MODEL 1
REMARK VINA RESULT:      -6.2      0.000      0.000
REMARK  Name = 28962345
REMARK  12 active torsions:
REMARK  status: ('A' for Active; 'I' for Inactive)
REMARK    1  A    between atoms: O_2  and  C_8
REMARK    2  A    between atoms: O_3  and  C_11
REMARK    3  A    between atoms: N_4  and  C_6
REMARK    4  A    between atoms: N_4  and  C_12
REMARK    5  A    between atoms: N_4  and  C_13
REMARK    6  A    between atoms: N_5  and  C_10
REMARK    7  A    between atoms: N_5  and  C_14
REMARK    8  A    between atoms: C_7  and  C_10
REMARK    9  A    between atoms: C_9  and  C_11
REMARK   10  A    between atoms: C_12  and  C_15
REMARK   11  A    between atoms: C_14  and  C_16
REMARK   12  A    between atoms: C_14  and  C_17
REMARK                            x       y       z     vdW  Elec       q    Type
REMARK                         _______ _______ _______ _____ _____    ______ ____
ROOT
ATOM      1  O   UNL     1      10.937   7.594  20.324  0.00  0.00    -0.366 OA
ATOM      6  C   UNL     1      13.088   8.610  20.644  0.00  0.00    +0.118 C 
ATOM      7  C   UNL     1      11.864   8.522  19.725  0.00  0.00    +0.152 C 
ATOM      8  C   UNL     1      12.998   7.321  21.448  0.00  0.00    +0.165 C 
ATOM      9  C   UNL     1      11.496   7.093  21.550  0.00  0.00    +0.174 C 
ENDROOT
BRANCH   8   2
ATOM      2  O   UNL     1      13.624   6.266  20.723  0.00  0.00    -0.388 OA
ATOM     24  H   UNL     1      12.943   5.595  20.542  0.00  0.00    +0.210 HD
ENDBRANCH   8   2
BRANCH   6   4
ATOM      4  N   UNL     1      12.972   9.782  21.516  0.00  0.00    -0.293 NA
ATOM     13  C   UNL     1      14.269  10.448  21.664  0.00  0.00    +0.105 C 
BRANCH   4  12
ATOM     12  C   UNL     1      11.978  10.721  20.990  0.00  0.00    +0.119 C 
BRANCH  12  15
ATOM     15  C   UNL     1      11.396  11.586  22.076  0.00  0.00    -0.033 A 
ATOM     18  C   UNL     1      11.057  12.912  21.804  0.00  0.00    +0.005 A 
ATOM     19  C   UNL     1      11.194  11.063  23.353  0.00  0.00    +0.005 A 
ATOM     20  C   UNL     1      10.517  13.714  22.810  0.00  0.00    +0.000 A 
ATOM     21  C   UNL     1      10.653  11.864  24.358  0.00  0.00    +0.000 A 
ATOM     22  C   UNL     1      10.315  13.191  24.087  0.00  0.00    +0.000 A 
ENDBRANCH  12  15
ENDBRANCH   4  12
ENDBRANCH   6   4
BRANCH   7  10
ATOM     10  C   UNL     1      12.202   8.002  18.332  0.00  0.00    +0.114 C 
BRANCH  10   5
ATOM      5  N   UNL     1      13.634   8.091  18.069  0.00  0.00    -0.311 NA
ATOM     23  H   UNL     1      14.104   8.376  18.928  0.00  0.00    +0.122 HD
BRANCH   5  14
ATOM     14  C   UNL     1      13.908   9.051  17.008  0.00  0.00    +0.048 C 
ATOM     16  C   UNL     1      14.414  10.363  17.600  0.00  0.00    +0.023 C 
ATOM     17  C   UNL     1      12.643   9.272  16.185  0.00  0.00    +0.023 C 
ENDBRANCH   5  14
ENDBRANCH  10   5
ENDBRANCH   7  10
BRANCH   9  11
ATOM     11  C   UNL     1      11.067   5.649  21.741  0.00  0.00    +0.190 C 
BRANCH  11   3
ATOM      3  O   UNL     1      11.104   4.996  20.484  0.00  0.00    -0.392 OA
ATOM     25  H   UNL     1      10.433   4.293  20.507  0.00  0.00    +0.210 HD
ENDBRANCH  11   3
ENDBRANCH   9  11
TORSDOF 9
ENDMDL
MODEL 2
REMARK VINA RESULT:      -6.1      3.469      6.500
REMARK  Name = 28962345
REMARK  12 active torsions:
REMARK  status: ('A' for Active; 'I' for Inactive)
REMARK    1  A    between atoms: O_2  and  C_8
REMARK    2  A    between atoms: O_3  and  C_11
REMARK    3  A    between atoms: N_4  and  C_6
REMARK    4  A    between atoms: N_4  and  C_12
REMARK    5  A    between atoms: N_4  and  C_13
REMARK    6  A    between atoms: N_5  and  C_10
REMARK    7  A    between atoms: N_5  and  C_14
REMARK    8  A    between atoms: C_7  and  C_10
REMARK    9  A    between atoms: C_9  and  C_11
REMARK   10  A    between atoms: C_12  and  C_15
REMARK   11  A    between atoms: C_14  and  C_16
REMARK   12  A    between atoms: C_14  and  C_17
REMARK                            x       y       z     vdW  Elec       q    Type
REMARK                         _______ _______ _______ _____ _____    ______ ____
ROOT
ATOM      1  O   UNL     1      14.115   7.929  17.243  0.00  0.00    -0.366 OA
ATOM      6  C   UNL     1      14.067   9.323  19.197  0.00  0.00    +0.118 C 
ATOM      7  C   UNL     1      13.793   7.917  18.648  0.00  0.00    +0.152 C 
ATOM      8  C   UNL     1      14.033  10.184  17.944  0.00  0.00    +0.165 C 
ATOM      9  C   UNL     1      14.567   9.242  16.873  0.00  0.00    +0.174 C 
ENDROOT
BRANCH   8   2
ATOM      2  O   UNL     1      12.688  10.561  17.663  0.00  0.00    -0.388 OA
ATOM     24  H   UNL     1      12.358  11.057  18.432  0.00  0.00    +0.210 HD
ENDBRANCH   8   2
BRANCH   6   4
ATOM      4  N   UNL     1      15.389   9.361  19.826  0.00  0.00    -0.293 NA
ATOM     13  C   UNL     1      15.622  10.659  20.464  0.00  0.00    +0.105 C 
BRANCH   4  12
ATOM     12  C   UNL     1      15.527   8.283  20.808  0.00  0.00    +0.119 C 
BRANCH  12  15
ATOM     15  C   UNL     1      16.843   7.565  20.672  0.00  0.00    -0.033 A 
ATOM     18  C   UNL     1      16.955   6.472  19.812  0.00  0.00    +0.005 A 
ATOM     19  C   UNL     1      17.951   7.993  21.403  0.00  0.00    +0.005 A 
ATOM     20  C   UNL     1      18.174   5.806  19.686  0.00  0.00    +0.000 A 
ATOM     21  C   UNL     1      19.170   7.328  21.276  0.00  0.00    +0.000 A 
ATOM     22  C   UNL     1      19.282   6.234  20.417  0.00  0.00    +0.000 A 
ENDBRANCH  12  15
ENDBRANCH   4  12
ENDBRANCH   6   4
BRANCH   7  10
ATOM     10  C   UNL     1      12.332   7.500  18.784  0.00  0.00    +0.114 C 
BRANCH  10   5
ATOM      5  N   UNL     1      12.192   6.348  19.665  0.00  0.00    -0.311 NA
ATOM     23  H   UNL     1      11.518   5.703  19.252  0.00  0.00    +0.122 HD
BRANCH   5  14
ATOM     14  C   UNL     1      11.743   6.758  20.989  0.00  0.00    +0.048 C 
ATOM     16  C   UNL     1      11.012   5.609  21.678  0.00  0.00    +0.023 C 
ATOM     17  C   UNL     1      10.843   7.983  20.862  0.00  0.00    +0.023 C 
ENDBRANCH   5  14
ENDBRANCH  10   5
ENDBRANCH   7  10
BRANCH   9  11
ATOM     11  C   UNL     1      14.117   9.544  15.455  0.00  0.00    +0.190 C 
BRANCH  11   3
ATOM      3  O   UNL     1      12.923   8.827  15.197  0.00  0.00    -0.392 OA
ATOM     25  H   UNL     1      13.126   8.167  14.513  0.00  0.00    +0.210 HD
ENDBRANCH  11   3
ENDBRANCH   9  11
TORSDOF 9
ENDMDL
MODEL 3
REMARK VINA RESULT:      -5.8      3.659      6.580
REMARK  Name = 28962345
REMARK  12 active torsions:
REMARK  status: ('A' for Active; 'I' for Inactive)
REMARK    1  A    between atoms: O_2  and  C_8
REMARK    2  A    between atoms: O_3  and  C_11
REMARK    3  A    between atoms: N_4  and  C_6
REMARK    4  A    between atoms: N_4  and  C_12
REMARK    5  A    between atoms: N_4  and  C_13
REMARK    6  A    between atoms: N_5  and  C_10
REMARK    7  A    between atoms: N_5  and  C_14
REMARK    8  A    between atoms: C_7  and  C_10
REMARK    9  A    between atoms: C_9  and  C_11
REMARK   10  A    between atoms: C_12  and  C_15
REMARK   11  A    between atoms: C_14  and  C_16
REMARK   12  A    between atoms: C_14  and  C_17
REMARK                            x       y       z     vdW  Elec       q    Type
REMARK                         _______ _______ _______ _____ _____    ______ ____
ROOT
ATOM      1  O   UNL     1      14.082   7.191  19.610  0.00  0.00    -0.366 OA
ATOM      6  C   UNL     1      14.932   9.369  20.155  0.00  0.00    +0.118 C 
ATOM      7  C   UNL     1      14.301   8.089  20.716  0.00  0.00    +0.152 C 
ATOM      8  C   UNL     1      14.550   9.314  18.683  0.00  0.00    +0.165 C 
ATOM      9  C   UNL     1      14.530   7.819  18.396  0.00  0.00    +0.174 C 
ENDROOT
BRANCH   8   2
ATOM      2  O   UNL     1      13.256   9.882  18.508  0.00  0.00    -0.388 OA
ATOM     24  H   UNL     1      12.792   9.817  19.361  0.00  0.00    +0.210 HD
ENDBRANCH   8   2
BRANCH   6   4
ATOM      4  N   UNL     1      16.387   9.319  20.322  0.00  0.00    -0.293 NA
ATOM     13  C   UNL     1      16.938  10.669  20.469  0.00  0.00    +0.105 C 
BRANCH   4  12
ATOM     12  C   UNL     1      16.747   8.497  21.480  0.00  0.00    +0.119 C 
BRANCH  12  15
ATOM     15  C   UNL     1      17.848   7.523  21.155  0.00  0.00    -0.033 A 
ATOM     18  C   UNL     1      19.067   7.599  21.830  0.00  0.00    +0.005 A 
ATOM     19  C   UNL     1      17.651   6.545  20.180  0.00  0.00    +0.005 A 
ATOM     20  C   UNL     1      20.088   6.696  21.529  0.00  0.00    +0.000 A 
ATOM     21  C   UNL     1      18.671   5.643  19.880  0.00  0.00    +0.000 A 
ATOM     22  C   UNL     1      19.890   5.719  20.555  0.00  0.00    +0.000 A 
ENDBRANCH  12  15
ENDBRANCH   4  12
ENDBRANCH   6   4
BRANCH   7  10
ATOM     10  C   UNL     1      12.952   8.336  21.383  0.00  0.00    +0.114 C 
BRANCH  10   5
ATOM      5  N   UNL     1      11.851   7.972  20.499  0.00  0.00    -0.311 NA
ATOM     23  H   UNL     1      11.504   8.819  20.048  0.00  0.00    +0.122 HD
BRANCH   5  14
ATOM     14  C   UNL     1      10.778   7.327  21.243  0.00  0.00    +0.048 C 
ATOM     16  C   UNL     1      10.479   8.106  22.520  0.00  0.00    +0.023 C 
ATOM     17  C   UNL     1      11.174   5.888  21.558  0.00  0.00    +0.023 C 
ENDBRANCH   5  14
ENDBRANCH  10   5
ENDBRANCH   7  10
BRANCH   9  11
ATOM     11  C   UNL     1      13.633   7.386  17.251  0.00  0.00    +0.190 C 
BRANCH  11   3
ATOM      3  O   UNL     1      12.371   7.017  17.778  0.00  0.00    -0.392 OA
ATOM     25  H   UNL     1      11.741   7.011  17.038  0.00  0.00    +0.210 HD
ENDBRANCH  11   3
ENDBRANCH   9  11
TORSDOF 9
ENDMDL
MODEL 4
REMARK VINA RESULT:      -5.8      2.321      3.378
REMARK  Name = 28962345
REMARK  12 active torsions:
REMARK  status: ('A' for Active; 'I' for Inactive)
REMARK    1  A    between atoms: O_2  and  C_8
REMARK    2  A    between atoms: O_3  and  C_11
REMARK    3  A    between atoms: N_4  and  C_6
REMARK    4  A    between atoms: N_4  and  C_12
REMARK    5  A    between atoms: N_4  and  C_13
REMARK    6  A    between atoms: N_5  and  C_10
REMARK    7  A    between atoms: N_5  and  C_14
REMARK    8  A    between atoms: C_7  and  C_10
REMARK    9  A    between atoms: C_9  and  C_11
REMARK   10  A    between atoms: C_12  and  C_15
REMARK   11  A    between atoms: C_14  and  C_16
REMARK   12  A    between atoms: C_14  and  C_17
REMARK                            x       y       z     vdW  Elec       q    Type
REMARK                         _______ _______ _______ _____ _____    ______ ____
ROOT
ATOM      1  O   UNL     1      14.086   8.954  19.827  0.00  0.00    -0.366 OA
ATOM      6  C   UNL     1      12.626   8.297  21.615  0.00  0.00    +0.118 C 
ATOM      7  C   UNL     1      13.999   8.881  21.264  0.00  0.00    +0.152 C 
ATOM      8  C   UNL     1      12.224   7.588  20.330  0.00  0.00    +0.165 C 
ATOM      9  C   UNL     1      12.866   8.453  19.254  0.00  0.00    +0.174 C 
ENDROOT
BRANCH   8   2
ATOM      2  O   UNL     1      12.775   6.275  20.321  0.00  0.00    -0.388 OA
ATOM     24  H   UNL     1      12.714   5.927  21.227  0.00  0.00    +0.210 HD
ENDBRANCH   8   2
BRANCH   6   4
ATOM      4  N   UNL     1      11.692   9.380  21.932  0.00  0.00    -0.293 NA
ATOM     13  C   UNL     1      10.481   8.852  22.565  0.00  0.00    +0.105 C 
BRANCH   4  12
ATOM     12  C   UNL     1      12.326  10.372  22.804  0.00  0.00    +0.119 C 
BRANCH  12  15
ATOM     15  C   UNL     1      11.532  11.649  22.870  0.00  0.00    -0.033 A 
ATOM     18  C   UNL     1      10.980  12.065  24.082  0.00  0.00    +0.005 A 
ATOM     19  C   UNL     1      11.349  12.418  21.721  0.00  0.00    +0.005 A 
ATOM     20  C   UNL     1      10.244  13.249  24.144  0.00  0.00    +0.000 A 
ATOM     21  C   UNL     1      10.615  13.602  21.782  0.00  0.00    +0.000 A 
ATOM     22  C   UNL     1      10.061  14.017  22.994  0.00  0.00    +0.000 A 
ENDBRANCH  12  15
ENDBRANCH   4  12
ENDBRANCH   6   4
BRANCH   7  10
ATOM     10  C   UNL     1      15.156   8.016  21.753  0.00  0.00    +0.114 C 
BRANCH  10   5
ATOM      5  N   UNL     1      16.267   8.036  20.809  0.00  0.00    -0.311 NA
ATOM     23  H   UNL     1      15.929   8.403  19.919  0.00  0.00    +0.122 HD
BRANCH   5  14
ATOM     14  C   UNL     1      16.814   6.700  20.622  0.00  0.00    +0.048 C 
ATOM     16  C   UNL     1      18.325   6.713  20.835  0.00  0.00    +0.023 C 
ATOM     17  C   UNL     1      16.461   6.197  19.225  0.00  0.00    +0.023 C 
ENDBRANCH   5  14
ENDBRANCH  10   5
ENDBRANCH   7  10
BRANCH   9  11
ATOM     11  C   UNL     1      13.181   7.745  17.949  0.00  0.00    +0.190 C 
BRANCH  11   3
ATOM      3  O   UNL     1      12.048   6.990  17.559  0.00  0.00    -0.392 OA
ATOM     25  H   UNL     1      11.844   6.380  18.288  0.00  0.00    +0.210 HD
ENDBRANCH  11   3
ENDBRANCH   9  11
TORSDOF 9
ENDMDL
MODEL 5
REMARK VINA RESULT:      -5.4     14.355     16.647
REMARK  Name = 28962345
REMARK  12 active torsions:
REMARK  status: ('A' for Active; 'I' for Inactive)
REMARK    1  A    between atoms: O_2  and  C_8
REMARK    2  A    between atoms: O_3  and  C_11
REMARK    3  A    between atoms: N_4  and  C_6
REMARK    4  A    between atoms: N_4  and  C_12
REMARK    5  A    between atoms: N_4  and  C_13
REMARK    6  A    between atoms: N_5  and  C_10
REMARK    7  A    between atoms: N_5  and  C_14
REMARK    8  A    between atoms: C_7  and  C_10
REMARK    9  A    between atoms: C_9  and  C_11
REMARK   10  A    between atoms: C_12  and  C_15
REMARK   11  A    between atoms: C_14  and  C_16
REMARK   12  A    between atoms: C_14  and  C_17
REMARK                            x       y       z     vdW  Elec       q    Type
REMARK                         _______ _______ _______ _____ _____    ______ ____
ROOT
ATOM      1  O   UNL     1      -1.504  -0.607  23.421  0.00  0.00    -0.366 OA
ATOM      6  C   UNL     1      -0.278   0.537  25.139  0.00  0.00    +0.118 C 
ATOM      7  C   UNL     1      -0.470   0.376  23.626  0.00  0.00    +0.152 C 
ATOM      8  C   UNL     1      -0.862  -0.755  25.690  0.00  0.00    +0.165 C 
ATOM      9  C   UNL     1      -1.972  -1.074  24.698  0.00  0.00    +0.174 C 
ENDROOT
BRANCH   8   2
ATOM      2  O   UNL     1       0.138  -1.770  25.677  0.00  0.00    -0.388 OA
ATOM     24  H   UNL     1       0.545  -1.766  24.794  0.00  0.00    +0.210 HD
ENDBRANCH   8   2
BRANCH   6   4
ATOM      4  N   UNL     1      -1.033   1.700  25.613  0.00  0.00    -0.293 NA
ATOM     13  C   UNL     1      -0.139   2.679  26.237  0.00  0.00    +0.105 C 
BRANCH   4  12
ATOM     12  C   UNL     1      -1.775   2.320  24.513  0.00  0.00    +0.119 C 
BRANCH  12  15
ATOM     15  C   UNL     1      -3.235   2.482  24.841  0.00  0.00    -0.033 A 
ATOM     18  C   UNL     1      -4.129   1.445  24.573  0.00  0.00    +0.005 A 
ATOM     19  C   UNL     1      -3.694   3.668  25.414  0.00  0.00    +0.005 A 
ATOM     20  C   UNL     1      -5.482   1.595  24.877  0.00  0.00    +0.000 A 
ATOM     21  C   UNL     1      -5.047   3.817  25.720  0.00  0.00    +0.000 A 
ATOM     22  C   UNL     1      -5.941   2.780  25.450  0.00  0.00    +0.000 A 
ENDBRANCH  12  15
ENDBRANCH   4  12
ENDBRANCH   6   4
BRANCH   7  10
ATOM     10  C   UNL     1       0.786  -0.122  22.918  0.00  0.00    +0.114 C 
BRANCH  10   5
ATOM      5  N   UNL     1       1.941   0.705  23.248  0.00  0.00    -0.311 NA
ATOM     23  H   UNL     1       1.784   1.643  22.879  0.00  0.00    +0.122 HD
BRANCH   5  14
ATOM     14  C   UNL     1       3.160   0.144  22.682  0.00  0.00    +0.048 C 
ATOM     16  C   UNL     1       3.634  -1.040  23.519  0.00  0.00    +0.023 C 
ATOM     17  C   UNL     1       4.231   1.228  22.608  0.00  0.00    +0.023 C 
ENDBRANCH   5  14
ENDBRANCH  10   5
ENDBRANCH   7  10
BRANCH   9  11
ATOM     11  C   UNL     1      -2.346  -2.541  24.587  0.00  0.00    +0.190 C 
BRANCH  11   3
ATOM      3  O   UNL     1      -3.704  -2.691  24.961  0.00  0.00    -0.392 OA
ATOM     25  H   UNL     1      -3.880  -3.645  25.027  0.00  0.00    +0.210 HD
ENDBRANCH  11   3
ENDBRANCH   9  11
TORSDOF 9
ENDMDL
MODEL 6
REMARK VINA RESULT:      -5.4     28.322     29.716
REMARK  Name = 28962345
REMARK  12 active torsions:
REMARK  status: ('A' for Active; 'I' for Inactive)
REMARK    1  A    between atoms: O_2  and  C_8
REMARK    2  A    between atoms: O_3  and  C_11
REMARK    3  A    between atoms: N_4  and  C_6
REMARK    4  A    between atoms: N_4  and  C_12
REMARK    5  A    between atoms: N_4  and  C_13
REMARK    6  A    between atoms: N_5  and  C_10
REMARK    7  A    between atoms: N_5  and  C_14
REMARK    8  A    between atoms: C_7  and  C_10
REMARK    9  A    between atoms: C_9  and  C_11
REMARK   10  A    between atoms: C_12  and  C_15
REMARK   11  A    between atoms: C_14  and  C_16
REMARK   12  A    between atoms: C_14  and  C_17
REMARK                            x       y       z     vdW  Elec       q    Type
REMARK                         _______ _______ _______ _____ _____    ______ ____
ROOT
ATOM      1  O   UNL     1     -14.401   3.846  30.085  0.00  0.00    -0.366 OA
ATOM      6  C   UNL     1     -15.744   3.395  32.022  0.00  0.00    +0.118 C 
ATOM      7  C   UNL     1     -14.349   3.259  31.401  0.00  0.00    +0.152 C 
ATOM      8  C   UNL     1     -16.636   3.588  30.806  0.00  0.00    +0.165 C 
ATOM      9  C   UNL     1     -15.729   4.336  29.839  0.00  0.00    +0.174 C 
ENDROOT
BRANCH   8   2
ATOM      2  O   UNL     1     -17.001   2.316  30.278  0.00  0.00    -0.388 OA
ATOM     24  H   UNL     1     -16.332   2.074  29.615  0.00  0.00    +0.210 HD
ENDBRANCH   8   2
BRANCH   6   4
ATOM      4  N   UNL     1     -15.786   4.570  32.897  0.00  0.00    -0.293 NA
ATOM     13  C   UNL     1     -17.069   4.647  33.600  0.00  0.00    +0.105 C 
BRANCH   4  12
ATOM     12  C   UNL     1     -14.682   4.538  33.860  0.00  0.00    +0.119 C 
BRANCH  12  15
ATOM     15  C   UNL     1     -13.992   5.872  33.966  0.00  0.00    -0.033 A 
ATOM     18  C   UNL     1     -13.736   6.618  32.815  0.00  0.00    +0.005 A 
ATOM     19  C   UNL     1     -13.609   6.363  35.214  0.00  0.00    +0.005 A 
ATOM     20  C   UNL     1     -13.096   7.854  32.913  0.00  0.00    +0.000 A 
ATOM     21  C   UNL     1     -12.970   7.598  35.312  0.00  0.00    +0.000 A 
ATOM     22  C   UNL     1     -12.713   8.344  34.161  0.00  0.00    +0.000 A 
ENDBRANCH  12  15
ENDBRANCH   4  12
ENDBRANCH   6   4
BRANCH   7  10
ATOM     10  C   UNL     1     -13.908   1.808  31.241  0.00  0.00    +0.114 C 
BRANCH  10   5
ATOM      5  N   UNL     1     -13.915   1.405  29.840  0.00  0.00    -0.311 NA
ATOM     23  H   UNL     1     -14.491   2.064  29.316  0.00  0.00    +0.122 HD
BRANCH   5  14
ATOM     14  C   UNL     1     -14.440   0.055  29.691  0.00  0.00    +0.048 C 
ATOM     16  C   UNL     1     -15.087  -0.407  30.994  0.00  0.00    +0.023 C 
ATOM     17  C   UNL     1     -13.313  -0.885  29.275  0.00  0.00    +0.023 C 
ENDBRANCH   5  14
ENDBRANCH  10   5
ENDBRANCH   7  10
BRANCH   9  11
ATOM     11  C   UNL     1     -16.060   4.164  28.367  0.00  0.00    +0.190 C 
BRANCH  11   3
ATOM      3  O   UNL     1     -15.230   3.148  27.833  0.00  0.00    -0.392 OA
ATOM     25  H   UNL     1     -15.807   2.407  27.582  0.00  0.00    +0.210 HD
ENDBRANCH  11   3
ENDBRANCH   9  11
TORSDOF 9
ENDMDL
MODEL 7
REMARK VINA RESULT:      -5.4     25.739     27.575
REMARK  Name = 28962345
REMARK  12 active torsions:
REMARK  status: ('A' for Active; 'I' for Inactive)
REMARK    1  A    between atoms: O_2  and  C_8
REMARK    2  A    between atoms: O_3  and  C_11
REMARK    3  A    between atoms: N_4  and  C_6
REMARK    4  A    between atoms: N_4  and  C_12
REMARK    5  A    between atoms: N_4  and  C_13
REMARK    6  A    between atoms: N_5  and  C_10
REMARK    7  A    between atoms: N_5  and  C_14
REMARK    8  A    between atoms: C_7  and  C_10
REMARK    9  A    between atoms: C_9  and  C_11
REMARK   10  A    between atoms: C_12  and  C_15
REMARK   11  A    between atoms: C_14  and  C_16
REMARK   12  A    between atoms: C_14  and  C_17
REMARK                            x       y       z     vdW  Elec       q    Type
REMARK                         _______ _______ _______ _____ _____    ______ ____
ROOT
ATOM      1  O   UNL     1      -3.584 -10.294  15.225  0.00  0.00    -0.366 OA
ATOM      6  C   UNL     1      -5.086 -12.010  14.477  0.00  0.00    +0.118 C 
ATOM      7  C   UNL     1      -4.979 -10.653  15.184  0.00  0.00    +0.152 C 
ATOM      8  C   UNL     1      -3.683 -12.578  14.627  0.00  0.00    +0.165 C 
ATOM      9  C   UNL     1      -2.810 -11.330  14.597  0.00  0.00    +0.174 C 
ENDROOT
BRANCH   8   2
ATOM      2  O   UNL     1      -3.572 -13.245  15.881  0.00  0.00    -0.388 OA
ATOM     24  H   UNL     1      -4.319 -13.864  15.948  0.00  0.00    +0.210 HD
ENDBRANCH   8   2
BRANCH   6   4
ATOM      4  N   UNL     1      -5.425 -11.810  13.066  0.00  0.00    -0.293 NA
ATOM     13  C   UNL     1      -6.456 -12.760  12.641  0.00  0.00    +0.105 C 
BRANCH   4  12
ATOM     12  C   UNL     1      -5.875 -10.436  12.832  0.00  0.00    +0.119 C 
BRANCH  12  15
ATOM     15  C   UNL     1      -5.233  -9.837  11.609  0.00  0.00    -0.033 A 
ATOM     18  C   UNL     1      -5.951  -8.946  10.811  0.00  0.00    +0.005 A 
ATOM     19  C   UNL     1      -3.921 -10.170  11.275  0.00  0.00    +0.005 A 
ATOM     20  C   UNL     1      -5.356  -8.390   9.677  0.00  0.00    +0.000 A 
ATOM     21  C   UNL     1      -3.326  -9.614  10.143  0.00  0.00    +0.000 A 
ATOM     22  C   UNL     1      -4.044  -8.724   9.344  0.00  0.00    +0.000 A 
ENDBRANCH  12  15
ENDBRANCH   4  12
ENDBRANCH   6   4
BRANCH   7  10
ATOM     10  C   UNL     1      -5.489 -10.690  16.621  0.00  0.00    +0.114 C 
BRANCH  10   5
ATOM      5  N   UNL     1      -4.385 -10.749  17.571  0.00  0.00    -0.311 NA
ATOM     23  H   UNL     1      -3.607 -11.244  17.134  0.00  0.00    +0.122 HD
BRANCH   5  14
ATOM     14  C   UNL     1      -4.787 -11.433  18.792  0.00  0.00    +0.048 C 
ATOM     16  C   UNL     1      -3.600 -12.180  19.395  0.00  0.00    +0.023 C 
ATOM     17  C   UNL     1      -5.937 -12.387  18.485  0.00  0.00    +0.023 C 
ENDBRANCH   5  14
ENDBRANCH  10   5
ENDBRANCH   7  10
BRANCH   9  11
ATOM     11  C   UNL     1      -1.473 -11.452  15.304  0.00  0.00    +0.190 C 
BRANCH  11   3
ATOM      3  O   UNL     1      -1.647 -11.101  16.666  0.00  0.00    -0.392 OA
ATOM     25  H   UNL     1      -0.795 -10.757  16.985  0.00  0.00    +0.210 HD
ENDBRANCH  11   3
ENDBRANCH   9  11
TORSDOF 9
ENDMDL
MODEL 8
REMARK VINA RESULT:      -5.2      3.414      6.482
REMARK  Name = 28962345
REMARK  12 active torsions:
REMARK  status: ('A' for Active; 'I' for Inactive)
REMARK    1  A    between atoms: O_2  and  C_8
REMARK    2  A    between atoms: O_3  and  C_11
REMARK    3  A    between atoms: N_4  and  C_6
REMARK    4  A    between atoms: N_4  and  C_12
REMARK    5  A    between atoms: N_4  and  C_13
REMARK    6  A    between atoms: N_5  and  C_10
REMARK    7  A    between atoms: N_5  and  C_14
REMARK    8  A    between atoms: C_7  and  C_10
REMARK    9  A    between atoms: C_9  and  C_11
REMARK   10  A    between atoms: C_12  and  C_15
REMARK   11  A    between atoms: C_14  and  C_16
REMARK   12  A    between atoms: C_14  and  C_17
REMARK                            x       y       z     vdW  Elec       q    Type
REMARK                         _______ _______ _______ _____ _____    ______ ____
ROOT
ATOM      1  O   UNL     1      13.382   7.590  20.239  0.00  0.00    -0.366 OA
ATOM      6  C   UNL     1      14.557   9.683  20.314  0.00  0.00    +0.118 C 
ATOM      7  C   UNL     1      13.858   8.603  21.149  0.00  0.00    +0.152 C 
ATOM      8  C   UNL     1      13.973   9.465  18.927  0.00  0.00    +0.165 C 
ATOM      9  C   UNL     1      13.732   7.962  18.895  0.00  0.00    +0.174 C 
ENDROOT
BRANCH   8   2
ATOM      2  O   UNL     1      12.745  10.178  18.811  0.00  0.00    -0.388 OA
ATOM     24  H   UNL     1      12.174   9.678  18.202  0.00  0.00    +0.210 HD
ENDBRANCH   8   2
BRANCH   6   4
ATOM      4  N   UNL     1      16.004   9.453  20.317  0.00  0.00    -0.293 NA
ATOM     13  C   UNL     1      16.729  10.722  20.425  0.00  0.00    +0.105 C 
BRANCH   4  12
ATOM     12  C   UNL     1      16.384   8.559  21.413  0.00  0.00    +0.119 C 
BRANCH  12  15
ATOM     15  C   UNL     1      17.394   7.533  20.975  0.00  0.00    -0.033 A 
ATOM     18  C   UNL     1      17.111   6.691  19.899  0.00  0.00    +0.005 A 
ATOM     19  C   UNL     1      18.613   7.423  21.644  0.00  0.00    +0.005 A 
ATOM     20  C   UNL     1      18.047   5.740  19.493  0.00  0.00    +0.000 A 
ATOM     21  C   UNL     1      19.549   6.473  21.238  0.00  0.00    +0.000 A 
ATOM     22  C   UNL     1      19.266   5.630  20.162  0.00  0.00    +0.000 A 
ENDBRANCH  12  15
ENDBRANCH   4  12
ENDBRANCH   6   4
BRANCH   7  10
ATOM     10  C   UNL     1      12.653   9.134  21.918  0.00  0.00    +0.114 C 
BRANCH  10   5
ATOM      5  N   UNL     1      12.606  10.591  21.885  0.00  0.00    -0.311 NA
ATOM     23  H   UNL     1      13.267  10.952  22.572  0.00  0.00    +0.122 HD
BRANCH   5  14
ATOM     14  C   UNL     1      11.264  11.074  22.181  0.00  0.00    +0.048 C 
ATOM     16  C   UNL     1      11.153  12.560  21.851  0.00  0.00    +0.023 C 
ATOM     17  C   UNL     1      10.944  10.813  23.650  0.00  0.00    +0.023 C 
ENDBRANCH   5  14
ENDBRANCH  10   5
ENDBRANCH   7  10
BRANCH   9  11
ATOM     11  C   UNL     1      12.640   7.495  17.948  0.00  0.00    +0.190 C 
BRANCH  11   3
ATOM      3  O   UNL     1      12.813   8.147  16.702  0.00  0.00    -0.392 OA
ATOM     25  H   UNL     1      13.181   9.027  16.887  0.00  0.00    +0.210 HD
ENDBRANCH  11   3
ENDBRANCH   9  11
TORSDOF 9
ENDMDL
MODEL 9
REMARK VINA RESULT:      -5.2     25.360     27.964
REMARK  Name = 28962345
REMARK  12 active torsions:
REMARK  status: ('A' for Active; 'I' for Inactive)
REMARK    1  A    between atoms: O_2  and  C_8
REMARK    2  A    between atoms: O_3  and  C_11
REMARK    3  A    between atoms: N_4  and  C_6
REMARK    4  A    between atoms: N_4  and  C_12
REMARK    5  A    between atoms: N_4  and  C_13
REMARK    6  A    between atoms: N_5  and  C_10
REMARK    7  A    between atoms: N_5  and  C_14
REMARK    8  A    between atoms: C_7  and  C_10
REMARK    9  A    between atoms: C_9  and  C_11
REMARK   10  A    between atoms: C_12  and  C_15
REMARK   11  A    between atoms: C_14  and  C_16
REMARK   12  A    between atoms: C_14  and  C_17
REMARK                            x       y       z     vdW  Elec       q    Type
REMARK                         _______ _______ _______ _____ _____    ______ ____
ROOT
ATOM      1  O   UNL     1      -6.367  -9.995  17.749  0.00  0.00    -0.366 OA
ATOM      6  C   UNL     1      -7.016 -11.629  16.114  0.00  0.00    +0.118 C 
ATOM      7  C   UNL     1      -6.855 -10.131  16.399  0.00  0.00    +0.152 C 
ATOM      8  C   UNL     1      -7.101 -12.229  17.510  0.00  0.00    +0.165 C 
ATOM      9  C   UNL     1      -6.214 -11.302  18.329  0.00  0.00    +0.174 C 
ENDROOT
BRANCH   8   2
ATOM      2  O   UNL     1      -8.449 -12.176  17.967  0.00  0.00    -0.388 OA
ATOM     24  H   UNL     1      -8.814 -13.076  17.902  0.00  0.00    +0.210 HD
ENDBRANCH   8   2
BRANCH   6   4
ATOM      4  N   UNL     1      -5.839 -12.128  15.399  0.00  0.00    -0.293 NA
ATOM     13  C   UNL     1      -6.165 -13.341  14.646  0.00  0.00    +0.105 C 
BRANCH   4  12
ATOM     12  C   UNL     1      -5.307 -11.101  14.499  0.00  0.00    +0.119 C 
BRANCH  12  15
ATOM     15  C   UNL     1      -3.849 -10.830  14.758  0.00  0.00    -0.033 A 
ATOM     18  C   UNL     1      -3.337 -10.944  16.051  0.00  0.00    +0.005 A 
ATOM     19  C   UNL     1      -3.009 -10.465  13.706  0.00  0.00    +0.005 A 
ATOM     20  C   UNL     1      -1.986 -10.692  16.291  0.00  0.00    +0.000 A 
ATOM     21  C   UNL     1      -1.658 -10.214  13.945  0.00  0.00    +0.000 A 
ATOM     22  C   UNL     1      -1.147 -10.327  15.239  0.00  0.00    +0.000 A 
ENDBRANCH  12  15
ENDBRANCH   4  12
ENDBRANCH   6   4
BRANCH   7  10
ATOM     10  C   UNL     1      -8.170  -9.364  16.305  0.00  0.00    +0.114 C 
BRANCH  10   5
ATOM      5  N   UNL     1      -8.579  -8.855  17.609  0.00  0.00    -0.311 NA
ATOM     23  H   UNL     1      -8.671  -9.642  18.250  0.00  0.00    +0.122 HD
BRANCH   5  14
ATOM     14  C   UNL     1      -9.843  -8.138  17.513  0.00  0.00    +0.048 C 
ATOM     16  C   UNL     1     -11.010  -9.090  17.761  0.00  0.00    +0.023 C 
ATOM     17  C   UNL     1      -9.952  -7.482  16.140  0.00  0.00    +0.023 C 
ENDBRANCH   5  14
ENDBRANCH  10   5
ENDBRANCH   7  10
BRANCH   9  11
ATOM     11  C   UNL     1      -6.537 -11.231  19.811  0.00  0.00    +0.190 C 
BRANCH  11   3
ATOM      3  O   UNL     1      -7.643 -10.364  19.992  0.00  0.00    -0.392 OA
ATOM     25  H   UNL     1      -8.055 -10.238  19.121  0.00  0.00    +0.210 HD
ENDBRANCH  11   3
ENDBRANCH   9  11
TORSDOF 9
ENDMDL
MODEL 10
REMARK VINA RESULT:      -5.1     25.012     27.779
REMARK  Name = 28962345
REMARK  12 active torsions:
REMARK  status: ('A' for Active; 'I' for Inactive)
REMARK    1  A    between atoms: O_2  and  C_8
REMARK    2  A    between atoms: O_3  and  C_11
REMARK    3  A    between atoms: N_4  and  C_6
REMARK    4  A    between atoms: N_4  and  C_12
REMARK    5  A    between atoms: N_4  and  C_13
REMARK    6  A    between atoms: N_5  and  C_10
REMARK    7  A    between atoms: N_5  and  C_14
REMARK    8  A    between atoms: C_7  and  C_10
REMARK    9  A    between atoms: C_9  and  C_11
REMARK   10  A    between atoms: C_12  and  C_15
REMARK   11  A    between atoms: C_14  and  C_16
REMARK   12  A    between atoms: C_14  and  C_17
REMARK                            x       y       z     vdW  Elec       q    Type
REMARK                         _______ _______ _______ _____ _____    ______ ____
ROOT
ATOM      1  O   UNL     1      -5.144 -12.487  15.775  0.00  0.00    -0.366 OA
ATOM      6  C   UNL     1      -5.619 -11.355  17.838  0.00  0.00    +0.118 C 
ATOM      7  C   UNL     1      -5.066 -11.198  16.416  0.00  0.00    +0.152 C 
ATOM      8  C   UNL     1      -5.492 -12.851  18.084  0.00  0.00    +0.165 C 
ATOM      9  C   UNL     1      -5.703 -13.439  16.695  0.00  0.00    +0.174 C 
ENDROOT
BRANCH   8   2
ATOM      2  O   UNL     1      -4.184 -13.144  18.565  0.00  0.00    -0.388 OA
ATOM     24  H   UNL     1      -4.237 -13.203  19.535  0.00  0.00    +0.210 HD
ENDBRANCH   8   2
BRANCH   6   4
ATOM      4  N   UNL     1      -7.021 -10.933  17.875  0.00  0.00    -0.293 NA
ATOM     13  C   UNL     1      -7.632 -11.279  19.161  0.00  0.00    +0.105 C 
BRANCH   4  12
ATOM     12  C   UNL     1      -7.135  -9.493  17.631  0.00  0.00    +0.119 C 
BRANCH  12  15
ATOM     15  C   UNL     1      -8.320  -9.164  16.763  0.00  0.00    -0.033 A 
ATOM     18  C   UNL     1      -9.326  -8.326  17.245  0.00  0.00    +0.005 A 
ATOM     19  C   UNL     1      -8.413  -9.695  15.477  0.00  0.00    +0.005 A 
ATOM     20  C   UNL     1     -10.424  -8.020  16.441  0.00  0.00    +0.000 A 
ATOM     21  C   UNL     1      -9.510  -9.388  14.672  0.00  0.00    +0.000 A 
ATOM     22  C   UNL     1     -10.516  -8.551  15.155  0.00  0.00    +0.000 A 
ENDBRANCH  12  15
ENDBRANCH   4  12
ENDBRANCH   6   4
BRANCH   7  10
ATOM     10  C   UNL     1      -3.606 -10.758  16.391  0.00  0.00    +0.114 C 
BRANCH  10   5
ATOM      5  N   UNL     1      -2.741 -11.827  15.907  0.00  0.00    -0.311 NA
ATOM     23  H   UNL     1      -2.320 -12.293  16.711  0.00  0.00    +0.122 HD
BRANCH   5  14
ATOM     14  C   UNL     1      -1.700 -11.298  15.036  0.00  0.00    +0.048 C 
ATOM     16  C   UNL     1      -0.987 -10.132  15.712  0.00  0.00    +0.023 C 
ATOM     17  C   UNL     1      -2.319 -10.868  13.710  0.00  0.00    +0.023 C 
ENDBRANCH   5  14
ENDBRANCH  10   5
ENDBRANCH   7  10
BRANCH   9  11
ATOM     11  C   UNL     1      -5.065 -14.797  16.457  0.00  0.00    +0.190 C 
BRANCH  11   3
ATOM      3  O   UNL     1      -3.758 -14.600  15.948  0.00  0.00    -0.392 OA
ATOM     25  H   UNL     1      -3.328 -13.935  16.512  0.00  0.00    +0.210 HD
ENDBRANCH  11   3
ENDBRANCH   9  11
TORSDOF 9
ENDMDL
