MODEL 1
REMARK VINA RESULT:      -7.1      0.000      0.000
REMARK  Name = 40777147
REMARK  11 active torsions:
REMARK  status: ('A' for Active; 'I' for Inactive)
REMARK    1  A    between atoms: O_5  and  C_34
REMARK    2  A    between atoms: N_8  and  C_18
REMARK    3  A    between atoms: C_12  and  C_19
REMARK    4  A    between atoms: C_13  and  C_18
REMARK    5  A    between atoms: C_21  and  C_25
REMARK    6  A    between atoms: C_22  and  C_24
REMARK    7  A    between atoms: C_23  and  C_26
REMARK    8  A    between atoms: C_24  and  C_27
REMARK    9  A    between atoms: C_27  and  C_30
REMARK   10  A    between atoms: C_30  and  C_34
REMARK   11  A    between atoms: C_33  and  C_35
REMARK                            x       y       z     vdW  Elec       q    Type
REMARK                         _______ _______ _______ _____ _____    ______ ____
ROOT
ATOM      7  N   UNL     1      11.019   8.641  21.015  0.00  0.00    -0.297 NA
ATOM     11  C   UNL     1      12.799   6.741  20.931  0.00  0.00    +0.002 C 
ATOM     12  C   UNL     1      13.355   7.974  21.696  0.00  0.00    +0.055 C 
ATOM     13  C   UNL     1      11.173   8.150  19.620  0.00  0.00    +0.074 C 
ATOM     14  C   UNL     1      12.364   7.173  19.515  0.00  0.00    +0.024 C 
ATOM     15  C   UNL     1      11.525   6.291  21.679  0.00  0.00    +0.019 C 
ATOM     16  C   UNL     1      12.324   9.127  21.529  0.00  0.00    +0.094 C 
ATOM     17  C   UNL     1      10.587   7.498  21.855  0.00  0.00    +0.085 C 
ENDROOT
BRANCH  12  19
ATOM      9  N   UNL     1      14.957   9.737  21.138  0.00  0.00    -0.237 NA
ATOM     10  N   UNL     1      17.306   9.290  20.845  0.00  0.00    -0.232 NA
ATOM     19  C   UNL     1      14.777   8.424  21.396  0.00  0.00    +0.050 A 
ATOM     20  C   UNL     1      15.799   7.497  21.396  0.00  0.00    +0.052 A 
ATOM     21  C   UNL     1      17.055   7.992  21.112  0.00  0.00    +0.075 A 
ATOM     23  C   UNL     1      16.228  10.096  20.875  0.00  0.00    +0.127 A 
ATOM     26  C   UNL     1      16.465  11.538  20.582  0.00  0.00    +0.088 C 
BRANCH  21  25
ATOM     25  C   UNL     1      18.208   7.124  21.080  0.00  0.00    +0.000 A 
ATOM     28  C   UNL     1      18.263   6.070  20.167  0.00  0.00    +0.010 A 
ATOM     29  C   UNL     1      19.268   7.340  21.961  0.00  0.00    +0.010 A 
ATOM     31  C   UNL     1      19.379   5.233  20.136  0.00  0.00    +0.013 A 
ATOM     32  C   UNL     1      20.383   6.502  21.930  0.00  0.00    +0.013 A 
ATOM     33  C   UNL     1      20.438   5.449  21.018  0.00  0.00    +0.055 A 
BRANCH  33  35
ATOM      1  F   UNL     1      22.347   4.552  22.147  0.00  0.00    -0.166 F 
ATOM      2  F   UNL     1      22.518   4.895  20.006  0.00  0.00    -0.166 F 
ATOM      3  F   UNL     1      21.321   3.241  20.756  0.00  0.00    -0.166 F 
ATOM     35  C   UNL     1      21.629   4.553  20.984  0.00  0.00    +0.417 C 
ENDBRANCH  33  35
ENDBRANCH  21  25
ENDBRANCH  12  19
BRANCH  13  18
ATOM     18  C   UNL     1      11.282   9.293  18.608  0.00  0.00    +0.123 C 
BRANCH  18   8
ATOM      4  O   UNL     1      13.162  11.461  18.643  0.00  0.00    -0.276 OA
ATOM      8  N   UNL     1      12.574   9.310  17.995  0.00  0.00    -0.314 N 
ATOM     22  C   UNL     1      13.427  10.412  18.062  0.00  0.00    +0.213 C 
ATOM     36  H   UNL     1      12.874   8.484  17.485  0.00  0.00    +0.149 HD
BRANCH  22  24
ATOM     24  C   UNL     1      14.723  10.179  17.306  0.00  0.00    +0.096 C 
BRANCH  24  27
ATOM     27  C   UNL     1      14.533  10.007  15.799  0.00  0.00    +0.020 C 
BRANCH  27  30
ATOM     30  C   UNL     1      14.973  11.244  15.012  0.00  0.00    +0.121 C 
BRANCH  30  34
ATOM      6  O   UNL     1      13.183  11.760  13.443  0.00  0.00    -0.251 OA
ATOM     34  C   UNL     1      13.791  12.017  14.474  0.00  0.00    +0.305 C 
BRANCH  34   5
ATOM      5  O   UNL     1      13.467  13.057  15.286  0.00  0.00    -0.481 OA
ATOM     37  H   UNL     1      13.670  13.922  14.870  0.00  0.00    +0.295 HD
ENDBRANCH  34   5
ENDBRANCH  30  34
ENDBRANCH  27  30
ENDBRANCH  24  27
ENDBRANCH  22  24
ENDBRANCH  18   8
ENDBRANCH  13  18
TORSDOF 10
ENDMDL
MODEL 2
REMARK VINA RESULT:      -7.0     26.679     29.672
REMARK  Name = 40777147
REMARK  11 active torsions:
REMARK  status: ('A' for Active; 'I' for Inactive)
REMARK    1  A    between atoms: O_5  and  C_34
REMARK    2  A    between atoms: N_8  and  C_18
REMARK    3  A    between atoms: C_12  and  C_19
REMARK    4  A    between atoms: C_13  and  C_18
REMARK    5  A    between atoms: C_21  and  C_25
REMARK    6  A    between atoms: C_22  and  C_24
REMARK    7  A    between atoms: C_23  and  C_26
REMARK    8  A    between atoms: C_24  and  C_27
REMARK    9  A    between atoms: C_27  and  C_30
REMARK   10  A    between atoms: C_30  and  C_34
REMARK   11  A    between atoms: C_33  and  C_35
REMARK                            x       y       z     vdW  Elec       q    Type
REMARK                         _______ _______ _______ _____ _____    ______ ____
ROOT
ATOM      7  N   UNL     1      -7.376 -11.423  17.795  0.00  0.00    -0.297 NA
ATOM     11  C   UNL     1      -4.875 -11.845  18.389  0.00  0.00    +0.002 C 
ATOM     12  C   UNL     1      -5.005 -10.657  17.394  0.00  0.00    +0.055 C 
ATOM     13  C   UNL     1      -7.050 -12.864  17.628  0.00  0.00    +0.074 C 
ATOM     14  C   UNL     1      -5.531 -13.099  17.774  0.00  0.00    +0.024 C 
ATOM     15  C   UNL     1      -5.698 -11.470  19.640  0.00  0.00    +0.019 C 
ATOM     16  C   UNL     1      -6.490 -10.598  16.935  0.00  0.00    +0.094 C 
ATOM     17  C   UNL     1      -7.117 -11.059  19.209  0.00  0.00    +0.085 C 
ENDROOT
BRANCH  12  19
ATOM      9  N   UNL     1      -2.722 -10.538  16.525  0.00  0.00    -0.237 NA
ATOM     10  N   UNL     1      -2.250 -10.467  14.164  0.00  0.00    -0.232 NA
ATOM     19  C   UNL     1      -4.036 -10.591  16.223  0.00  0.00    +0.050 A 
ATOM     20  C   UNL     1      -4.527 -10.586  14.933  0.00  0.00    +0.052 A 
ATOM     21  C   UNL     1      -3.578 -10.522  13.934  0.00  0.00    +0.075 A 
ATOM     23  C   UNL     1      -1.897 -10.478  15.463  0.00  0.00    +0.127 A 
ATOM     26  C   UNL     1      -0.436 -10.416  15.757  0.00  0.00    +0.088 C 
BRANCH  21  25
ATOM     25  C   UNL     1      -3.961 -10.509  12.542  0.00  0.00    +0.000 A 
ATOM     28  C   UNL     1      -3.110 -11.054  11.579  0.00  0.00    +0.010 A 
ATOM     29  C   UNL     1      -5.181  -9.952  12.160  0.00  0.00    +0.010 A 
ATOM     31  C   UNL     1      -3.482 -11.041  10.235  0.00  0.00    +0.013 A 
ATOM     32  C   UNL     1      -5.552  -9.940  10.815  0.00  0.00    +0.013 A 
ATOM     33  C   UNL     1      -4.702 -10.484   9.853  0.00  0.00    +0.055 A 
BRANCH  33  35
ATOM      1  F   UNL     1      -4.893  -9.267   7.802  0.00  0.00    -0.166 F 
ATOM      2  F   UNL     1      -6.419 -10.756   8.230  0.00  0.00    -0.166 F 
ATOM      3  F   UNL     1      -4.418 -11.378   7.652  0.00  0.00    -0.166 F 
ATOM     35  C   UNL     1      -5.097 -10.471   8.415  0.00  0.00    +0.417 C 
ENDBRANCH  33  35
ENDBRANCH  21  25
ENDBRANCH  12  19
BRANCH  13  18
ATOM     18  C   UNL     1      -7.592 -13.436  16.316  0.00  0.00    +0.123 C 
BRANCH  18   8
ATOM      4  O   UNL     1      -7.288 -12.638  13.575  0.00  0.00    -0.276 OA
ATOM      8  N   UNL     1      -6.523 -13.797  15.436  0.00  0.00    -0.314 N 
ATOM     22  C   UNL     1      -6.454 -13.363  14.114  0.00  0.00    +0.213 C 
ATOM     36  H   UNL     1      -5.790 -14.403  15.796  0.00  0.00    +0.149 HD
BRANCH  22  24
ATOM     24  C   UNL     1      -5.235 -13.912  13.393  0.00  0.00    +0.096 C 
BRANCH  24  27
ATOM     27  C   UNL     1      -4.283 -14.689  14.302  0.00  0.00    +0.020 C 
BRANCH  27  30
ATOM     30  C   UNL     1      -2.944 -13.972  14.490  0.00  0.00    +0.121 C 
BRANCH  30  34
ATOM      6  O   UNL     1      -2.118 -15.079  12.484  0.00  0.00    -0.251 OA
ATOM     34  C   UNL     1      -2.024 -14.180  13.308  0.00  0.00    +0.305 C 
BRANCH  34   5
ATOM      5  O   UNL     1      -1.055 -13.228  13.261  0.00  0.00    -0.481 OA
ATOM     37  H   UNL     1      -1.435 -12.324  13.209  0.00  0.00    +0.295 HD
ENDBRANCH  34   5
ENDBRANCH  30  34
ENDBRANCH  27  30
ENDBRANCH  24  27
ENDBRANCH  22  24
ENDBRANCH  18   8
ENDBRANCH  13  18
TORSDOF 10
ENDMDL
MODEL 3
REMARK VINA RESULT:      -6.9     26.864     29.945
REMARK  Name = 40777147
REMARK  11 active torsions:
REMARK  status: ('A' for Active; 'I' for Inactive)
REMARK    1  A    between atoms: O_5  and  C_34
REMARK    2  A    between atoms: N_8  and  C_18
REMARK    3  A    between atoms: C_12  and  C_19
REMARK    4  A    between atoms: C_13  and  C_18
REMARK    5  A    between atoms: C_21  and  C_25
REMARK    6  A    between atoms: C_22  and  C_24
REMARK    7  A    between atoms: C_23  and  C_26
REMARK    8  A    between atoms: C_24  and  C_27
REMARK    9  A    between atoms: C_27  and  C_30
REMARK   10  A    between atoms: C_30  and  C_34
REMARK   11  A    between atoms: C_33  and  C_35
REMARK                            x       y       z     vdW  Elec       q    Type
REMARK                         _______ _______ _______ _____ _____    ______ ____
ROOT
ATOM      7  N   UNL     1      -5.501 -11.244  10.182  0.00  0.00    -0.297 NA
ATOM     11  C   UNL     1      -3.987  -9.340  11.112  0.00  0.00    +0.002 C 
ATOM     12  C   UNL     1      -3.643 -10.693  11.797  0.00  0.00    +0.055 C 
ATOM     13  C   UNL     1      -6.336 -10.080  10.582  0.00  0.00    +0.074 C 
ATOM     14  C   UNL     1      -5.484  -9.028  11.323  0.00  0.00    +0.024 C 
ATOM     15  C   UNL     1      -3.775  -9.542   9.596  0.00  0.00    +0.019 C 
ATOM     16  C   UNL     1      -4.713 -11.727  11.344  0.00  0.00    +0.094 C 
ATOM     17  C   UNL     1      -4.554 -10.787   9.137  0.00  0.00    +0.085 C 
ENDROOT
BRANCH  12  19
ATOM      9  N   UNL     1      -2.196 -10.395  13.747  0.00  0.00    -0.237 NA
ATOM     10  N   UNL     1      -2.997 -10.707  15.998  0.00  0.00    -0.232 NA
ATOM     19  C   UNL     1      -3.433 -10.702  13.304  0.00  0.00    +0.050 A 
ATOM     20  C   UNL     1      -4.488 -11.018  14.136  0.00  0.00    +0.052 A 
ATOM     21  C   UNL     1      -4.209 -11.004  15.487  0.00  0.00    +0.075 A 
ATOM     23  C   UNL     1      -2.050 -10.416  15.085  0.00  0.00    +0.127 A 
ATOM     26  C   UNL     1      -0.695 -10.085  15.612  0.00  0.00    +0.088 C 
BRANCH  21  25
ATOM     25  C   UNL     1      -5.226 -11.318  16.462  0.00  0.00    +0.000 A 
ATOM     28  C   UNL     1      -5.346 -10.546  17.618  0.00  0.00    +0.010 A 
ATOM     29  C   UNL     1      -6.089 -12.392  16.248  0.00  0.00    +0.010 A 
ATOM     31  C   UNL     1      -6.330 -10.849  18.559  0.00  0.00    +0.013 A 
ATOM     32  C   UNL     1      -7.073 -12.695  17.190  0.00  0.00    +0.013 A 
ATOM     33  C   UNL     1      -7.193 -11.924  18.345  0.00  0.00    +0.055 A 
BRANCH  33  35
ATOM      1  F   UNL     1      -9.225 -13.069  18.875  0.00  0.00    -0.166 F 
ATOM      2  F   UNL     1      -8.889 -11.136  19.814  0.00  0.00    -0.166 F 
ATOM      3  F   UNL     1      -7.760 -12.877  20.464  0.00  0.00    -0.166 F 
ATOM     35  C   UNL     1      -8.244 -12.247  19.353  0.00  0.00    +0.417 C 
ENDBRANCH  33  35
ENDBRANCH  21  25
ENDBRANCH  12  19
BRANCH  13  18
ATOM     18  C   UNL     1      -7.564 -10.495  11.396  0.00  0.00    +0.123 C 
BRANCH  18   8
ATOM      4  O   UNL     1      -8.679 -11.549  13.822  0.00  0.00    -0.276 OA
ATOM      8  N   UNL     1      -7.563  -9.864  12.679  0.00  0.00    -0.314 N 
ATOM     22  C   UNL     1      -8.130 -10.450  13.810  0.00  0.00    +0.213 C 
ATOM     36  H   UNL     1      -7.135  -8.946  12.762  0.00  0.00    +0.149 HD
BRANCH  22  24
ATOM     24  C   UNL     1      -8.017  -9.559  15.034  0.00  0.00    +0.096 C 
BRANCH  24  27
ATOM     27  C   UNL     1      -9.114  -9.797  16.071  0.00  0.00    +0.020 C 
BRANCH  27  30
ATOM     30  C   UNL     1      -9.224  -8.650  17.077  0.00  0.00    +0.121 C 
BRANCH  30  34
ATOM      6  O   UNL     1     -11.453  -7.671  17.023  0.00  0.00    -0.251 OA
ATOM     34  C   UNL     1     -10.280  -7.647  16.674  0.00  0.00    +0.305 C 
BRANCH  34   5
ATOM      5  O   UNL     1      -9.768  -6.687  15.860  0.00  0.00    -0.481 OA
ATOM     37  H   UNL     1     -10.469  -6.235  15.343  0.00  0.00    +0.295 HD
ENDBRANCH  34   5
ENDBRANCH  30  34
ENDBRANCH  27  30
ENDBRANCH  24  27
ENDBRANCH  22  24
ENDBRANCH  18   8
ENDBRANCH  13  18
TORSDOF 10
ENDMDL
MODEL 4
REMARK VINA RESULT:      -6.9      2.347      4.570
REMARK  Name = 40777147
REMARK  11 active torsions:
REMARK  status: ('A' for Active; 'I' for Inactive)
REMARK    1  A    between atoms: O_5  and  C_34
REMARK    2  A    between atoms: N_8  and  C_18
REMARK    3  A    between atoms: C_12  and  C_19
REMARK    4  A    between atoms: C_13  and  C_18
REMARK    5  A    between atoms: C_21  and  C_25
REMARK    6  A    between atoms: C_22  and  C_24
REMARK    7  A    between atoms: C_23  and  C_26
REMARK    8  A    between atoms: C_24  and  C_27
REMARK    9  A    between atoms: C_27  and  C_30
REMARK   10  A    between atoms: C_30  and  C_34
REMARK   11  A    between atoms: C_33  and  C_35
REMARK                            x       y       z     vdW  Elec       q    Type
REMARK                         _______ _______ _______ _____ _____    ______ ____
ROOT
ATOM      7  N   UNL     1      15.116  12.580  21.390  0.00  0.00    -0.297 NA
ATOM     11  C   UNL     1      15.016  10.447  22.881  0.00  0.00    +0.002 C 
ATOM     12  C   UNL     1      16.262  10.403  21.952  0.00  0.00    +0.055 C 
ATOM     13  C   UNL     1      13.763  11.969  21.313  0.00  0.00    +0.074 C 
ATOM     14  C   UNL     1      13.744  10.597  22.021  0.00  0.00    +0.024 C 
ATOM     15  C   UNL     1      15.142  11.728  23.734  0.00  0.00    +0.019 C 
ATOM     16  C   UNL     1      16.143  11.596  20.961  0.00  0.00    +0.094 C 
ATOM     17  C   UNL     1      15.376  12.932  22.806  0.00  0.00    +0.085 C 
ENDROOT
BRANCH  12  19
ATOM      9  N   UNL     1      15.701   8.675  20.315  0.00  0.00    -0.237 NA
ATOM     10  N   UNL     1      17.107   6.754  19.944  0.00  0.00    -0.232 NA
ATOM     19  C   UNL     1      16.584   9.095  21.244  0.00  0.00    +0.050 A 
ATOM     20  C   UNL     1      17.734   8.408  21.575  0.00  0.00    +0.052 A 
ATOM     21  C   UNL     1      17.947   7.232  20.885  0.00  0.00    +0.075 A 
ATOM     23  C   UNL     1      16.020   7.514  19.712  0.00  0.00    +0.127 A 
ATOM     26  C   UNL     1      15.067   7.016  18.680  0.00  0.00    +0.088 C 
BRANCH  21  25
ATOM     25  C   UNL     1      19.113   6.420  21.138  0.00  0.00    +0.000 A 
ATOM     28  C   UNL     1      19.497   5.446  20.215  0.00  0.00    +0.010 A 
ATOM     29  C   UNL     1      19.855   6.609  22.304  0.00  0.00    +0.010 A 
ATOM     31  C   UNL     1      20.625   4.661  20.460  0.00  0.00    +0.013 A 
ATOM     32  C   UNL     1      20.982   5.823  22.548  0.00  0.00    +0.013 A 
ATOM     33  C   UNL     1      21.367   4.850  21.626  0.00  0.00    +0.055 A 
BRANCH  33  35
ATOM      1  F   UNL     1      22.295   2.846  22.546  0.00  0.00    -0.166 F 
ATOM      2  F   UNL     1      23.503   4.651  22.651  0.00  0.00    -0.166 F 
ATOM      3  F   UNL     1      23.229   3.629  20.751  0.00  0.00    -0.166 F 
ATOM     35  C   UNL     1      22.571   4.011  21.887  0.00  0.00    +0.417 C 
ENDBRANCH  33  35
ENDBRANCH  21  25
ENDBRANCH  12  19
BRANCH  13  18
ATOM     18  C   UNL     1      13.246  11.876  19.875  0.00  0.00    +0.123 C 
BRANCH  18   8
ATOM      4  O   UNL     1      13.486  10.129  17.610  0.00  0.00    -0.276 OA
ATOM      8  N   UNL     1      12.540  10.649  19.666  0.00  0.00    -0.314 N 
ATOM     22  C   UNL     1      12.719   9.860  18.531  0.00  0.00    +0.213 C 
ATOM     36  H   UNL     1      11.876  10.351  20.375  0.00  0.00    +0.149 HD
BRANCH  22  24
ATOM     24  C   UNL     1      11.829   8.629  18.544  0.00  0.00    +0.096 C 
BRANCH  24  27
ATOM     27  C   UNL     1      11.133   8.387  19.883  0.00  0.00    +0.020 C 
BRANCH  27  30
ATOM     30  C   UNL     1      11.896   7.397  20.765  0.00  0.00    +0.121 C 
BRANCH  30  34
ATOM      6  O   UNL     1      11.142   5.301  21.752  0.00  0.00    -0.251 OA
ATOM     34  C   UNL     1      10.961   6.492  21.534  0.00  0.00    +0.305 C 
BRANCH  34   5
ATOM      5  O   UNL     1       9.866   7.168  21.972  0.00  0.00    -0.481 OA
ATOM     37  H   UNL     1      10.087   8.086  22.239  0.00  0.00    +0.295 HD
ENDBRANCH  34   5
ENDBRANCH  30  34
ENDBRANCH  27  30
ENDBRANCH  24  27
ENDBRANCH  22  24
ENDBRANCH  18   8
ENDBRANCH  13  18
TORSDOF 10
ENDMDL
MODEL 5
REMARK VINA RESULT:      -6.7     15.128     18.569
REMARK  Name = 40777147
REMARK  11 active torsions:
REMARK  status: ('A' for Active; 'I' for Inactive)
REMARK    1  A    between atoms: O_5  and  C_34
REMARK    2  A    between atoms: N_8  and  C_18
REMARK    3  A    between atoms: C_12  and  C_19
REMARK    4  A    between atoms: C_13  and  C_18
REMARK    5  A    between atoms: C_21  and  C_25
REMARK    6  A    between atoms: C_22  and  C_24
REMARK    7  A    between atoms: C_23  and  C_26
REMARK    8  A    between atoms: C_24  and  C_27
REMARK    9  A    between atoms: C_27  and  C_30
REMARK   10  A    between atoms: C_30  and  C_34
REMARK   11  A    between atoms: C_33  and  C_35
REMARK                            x       y       z     vdW  Elec       q    Type
REMARK                         _______ _______ _______ _____ _____    ______ ____
ROOT
ATOM      7  N   UNL     1       9.697   7.245   7.527  0.00  0.00    -0.297 NA
ATOM     11  C   UNL     1       9.848   5.240   5.870  0.00  0.00    +0.002 C 
ATOM     12  C   UNL     1      11.117   6.131   5.764  0.00  0.00    +0.055 C 
ATOM     13  C   UNL     1       8.446   7.149   6.729  0.00  0.00    +0.074 C 
ATOM     14  C   UNL     1       8.596   6.103   5.604  0.00  0.00    +0.024 C 
ATOM     15  C   UNL     1       9.763   4.759   7.335  0.00  0.00    +0.019 C 
ATOM     16  C   UNL     1      10.865   7.402   6.624  0.00  0.00    +0.094 C 
ATOM     17  C   UNL     1       9.857   5.974   8.274  0.00  0.00    +0.085 C 
ENDROOT
BRANCH  12  19
ATOM      9  N   UNL     1      12.196   7.689   4.218  0.00  0.00    -0.237 NA
ATOM     10  N   UNL     1      12.601   7.132   1.909  0.00  0.00    -0.232 NA
ATOM     19  C   UNL     1      11.644   6.468   4.377  0.00  0.00    +0.050 A 
ATOM     20  C   UNL     1      11.535   5.538   3.363  0.00  0.00    +0.052 A 
ATOM     21  C   UNL     1      12.037   5.929   2.138  0.00  0.00    +0.075 A 
ATOM     23  C   UNL     1      12.648   7.951   2.977  0.00  0.00    +0.127 A 
ATOM     26  C   UNL     1      13.264   9.292   2.762  0.00  0.00    +0.088 C 
BRANCH  21  25
ATOM     25  C   UNL     1      11.983   5.048   0.996  0.00  0.00    +0.000 A 
ATOM     28  C   UNL     1      10.946   5.168   0.070  0.00  0.00    +0.010 A 
ATOM     29  C   UNL     1      12.969   4.077   0.817  0.00  0.00    +0.010 A 
ATOM     31  C   UNL     1      10.896   4.317  -1.034  0.00  0.00    +0.013 A 
ATOM     32  C   UNL     1      12.918   3.226  -0.288  0.00  0.00    +0.013 A 
ATOM     33  C   UNL     1      11.881   3.346  -1.213  0.00  0.00    +0.055 A 
BRANCH  33  35
ATOM      1  F   UNL     1      12.083   1.130  -2.090  0.00  0.00    -0.166 F 
ATOM      2  F   UNL     1      12.729   2.773  -3.359  0.00  0.00    -0.166 F 
ATOM      3  F   UNL     1      10.611   2.425  -3.018  0.00  0.00    -0.166 F 
ATOM     35  C   UNL     1      11.826   2.437  -2.393  0.00  0.00    +0.417 C 
ENDBRANCH  33  35
ENDBRANCH  21  25
ENDBRANCH  12  19
BRANCH  13  18
ATOM     18  C   UNL     1       7.995   8.508   6.186  0.00  0.00    +0.123 C 
BRANCH  18   8
ATOM      4  O   UNL     1       6.421  10.108   4.396  0.00  0.00    -0.276 OA
ATOM      8  N   UNL     1       8.104   8.550   4.760  0.00  0.00    -0.314 N 
ATOM     22  C   UNL     1       7.295   9.360   3.965  0.00  0.00    +0.213 C 
ATOM     36  H   UNL     1       8.798   7.956   4.315  0.00  0.00    +0.149 HD
BRANCH  22  24
ATOM     24  C   UNL     1       7.597   9.194   2.486  0.00  0.00    +0.096 C 
BRANCH  24  27
ATOM     27  C   UNL     1       8.854   8.372   2.203  0.00  0.00    +0.020 C 
BRANCH  27  30
ATOM     30  C   UNL     1       9.201   8.332   0.713  0.00  0.00    +0.121 C 
BRANCH  30  34
ATOM      6  O   UNL     1      10.281  10.513   0.632  0.00  0.00    -0.251 OA
ATOM     34  C   UNL     1      10.291   9.320   0.363  0.00  0.00    +0.305 C 
BRANCH  34   5
ATOM      5  O   UNL     1      11.311   8.716  -0.300  0.00  0.00    -0.481 OA
ATOM     37  H   UNL     1      11.060   8.478  -1.218  0.00  0.00    +0.295 HD
ENDBRANCH  34   5
ENDBRANCH  30  34
ENDBRANCH  27  30
ENDBRANCH  24  27
ENDBRANCH  22  24
ENDBRANCH  18   8
ENDBRANCH  13  18
TORSDOF 10
ENDMDL
MODEL 6
REMARK VINA RESULT:      -6.7     27.545     29.963
REMARK  Name = 40777147
REMARK  11 active torsions:
REMARK  status: ('A' for Active; 'I' for Inactive)
REMARK    1  A    between atoms: O_5  and  C_34
REMARK    2  A    between atoms: N_8  and  C_18
REMARK    3  A    between atoms: C_12  and  C_19
REMARK    4  A    between atoms: C_13  and  C_18
REMARK    5  A    between atoms: C_21  and  C_25
REMARK    6  A    between atoms: C_22  and  C_24
REMARK    7  A    between atoms: C_23  and  C_26
REMARK    8  A    between atoms: C_24  and  C_27
REMARK    9  A    between atoms: C_27  and  C_30
REMARK   10  A    between atoms: C_30  and  C_34
REMARK   11  A    between atoms: C_33  and  C_35
REMARK                            x       y       z     vdW  Elec       q    Type
REMARK                         _______ _______ _______ _____ _____    ______ ____
ROOT
ATOM      7  N   UNL     1     -10.130  -9.984  17.606  0.00  0.00    -0.297 NA
ATOM     11  C   UNL     1      -8.780 -11.635  19.102  0.00  0.00    +0.002 C 
ATOM     12  C   UNL     1      -7.870 -10.472  18.616  0.00  0.00    +0.055 C 
ATOM     13  C   UNL     1     -10.340 -11.379  17.140  0.00  0.00    +0.074 C 
ATOM     14  C   UNL     1      -9.391 -12.349  17.878  0.00  0.00    +0.024 C 
ATOM     15  C   UNL     1      -9.947 -10.990  19.881  0.00  0.00    +0.019 C 
ATOM     16  C   UNL     1      -8.684  -9.649  17.576  0.00  0.00    +0.094 C 
ATOM     17  C   UNL     1     -10.595  -9.899  19.011  0.00  0.00    +0.085 C 
ENDROOT
BRANCH  12  19
ATOM      9  N   UNL     1      -5.623 -11.352  19.014  0.00  0.00    -0.237 NA
ATOM     10  N   UNL     1      -3.953 -11.441  17.280  0.00  0.00    -0.232 NA
ATOM     19  C   UNL     1      -6.474 -10.813  18.117  0.00  0.00    +0.050 A 
ATOM     20  C   UNL     1      -6.141 -10.562  16.801  0.00  0.00    +0.052 A 
ATOM     21  C   UNL     1      -4.855 -10.900  16.435  0.00  0.00    +0.075 A 
ATOM     23  C   UNL     1      -4.397 -11.638  18.536  0.00  0.00    +0.127 A 
ATOM     26  C   UNL     1      -3.428 -12.232  19.500  0.00  0.00    +0.088 C 
BRANCH  21  25
ATOM     25  C   UNL     1      -4.383 -10.687  15.087  0.00  0.00    +0.000 A 
ATOM     28  C   UNL     1      -3.016 -10.735  14.812  0.00  0.00    +0.010 A 
ATOM     29  C   UNL     1      -5.293 -10.434  14.062  0.00  0.00    +0.010 A 
ATOM     31  C   UNL     1      -2.561 -10.529  13.509  0.00  0.00    +0.013 A 
ATOM     32  C   UNL     1      -4.837 -10.228  12.759  0.00  0.00    +0.013 A 
ATOM     33  C   UNL     1      -3.471 -10.276  12.483  0.00  0.00    +0.055 A 
BRANCH  33  35
ATOM      1  F   UNL     1      -3.668  -9.084  10.418  0.00  0.00    -0.166 F 
ATOM      2  F   UNL     1      -3.080 -11.175  10.317  0.00  0.00    -0.166 F 
ATOM      3  F   UNL     1      -1.672  -9.678  11.025  0.00  0.00    -0.166 F 
ATOM     35  C   UNL     1      -2.983 -10.056  11.091  0.00  0.00    +0.417 C 
ENDBRANCH  33  35
ENDBRANCH  21  25
ENDBRANCH  12  19
BRANCH  13  18
ATOM     18  C   UNL     1     -10.219 -11.511  15.620  0.00  0.00    +0.123 C 
BRANCH  18   8
ATOM      4  O   UNL     1      -9.312  -9.273  14.067  0.00  0.00    -0.276 OA
ATOM      8  N   UNL     1     -11.039 -10.544  14.957  0.00  0.00    -0.314 N 
ATOM     22  C   UNL     1     -10.512  -9.484  14.221  0.00  0.00    +0.213 C 
ATOM     36  H   UNL     1     -12.048 -10.636  15.037  0.00  0.00    +0.149 HD
BRANCH  22  24
ATOM     24  C   UNL     1     -11.598  -8.591  13.645  0.00  0.00    +0.096 C 
BRANCH  24  27
ATOM     27  C   UNL     1     -12.663  -8.185  14.663  0.00  0.00    +0.020 C 
BRANCH  27  30
ATOM     30  C   UNL     1     -12.113  -7.245  15.738  0.00  0.00    +0.121 C 
BRANCH  30  34
ATOM      6  O   UNL     1     -12.187  -5.214  14.396  0.00  0.00    -0.251 OA
ATOM     34  C   UNL     1     -11.573  -5.965  15.142  0.00  0.00    +0.305 C 
BRANCH  34   5
ATOM      5  O   UNL     1     -10.296  -5.733  15.542  0.00  0.00    -0.481 OA
ATOM     37  H   UNL     1     -10.051  -6.280  16.319  0.00  0.00    +0.295 HD
ENDBRANCH  34   5
ENDBRANCH  30  34
ENDBRANCH  27  30
ENDBRANCH  24  27
ENDBRANCH  22  24
ENDBRANCH  18   8
ENDBRANCH  13  18
TORSDOF 10
ENDMDL
MODEL 7
REMARK VINA RESULT:      -6.6     27.451     30.837
REMARK  Name = 40777147
REMARK  11 active torsions:
REMARK  status: ('A' for Active; 'I' for Inactive)
REMARK    1  A    between atoms: O_5  and  C_34
REMARK    2  A    between atoms: N_8  and  C_18
REMARK    3  A    between atoms: C_12  and  C_19
REMARK    4  A    between atoms: C_13  and  C_18
REMARK    5  A    between atoms: C_21  and  C_25
REMARK    6  A    between atoms: C_22  and  C_24
REMARK    7  A    between atoms: C_23  and  C_26
REMARK    8  A    between atoms: C_24  and  C_27
REMARK    9  A    between atoms: C_27  and  C_30
REMARK   10  A    between atoms: C_30  and  C_34
REMARK   11  A    between atoms: C_33  and  C_35
REMARK                            x       y       z     vdW  Elec       q    Type
REMARK                         _______ _______ _______ _____ _____    ______ ____
ROOT
ATOM      7  N   UNL     1      -2.542 -10.583  13.490  0.00  0.00    -0.297 NA
ATOM     11  C   UNL     1      -3.859 -12.825  13.330  0.00  0.00    +0.002 C 
ATOM     12  C   UNL     1      -4.836 -11.616  13.293  0.00  0.00    +0.055 C 
ATOM     13  C   UNL     1      -2.103 -11.509  14.567  0.00  0.00    +0.074 C 
ATOM     14  C   UNL     1      -3.011 -12.756  14.617  0.00  0.00    +0.024 C 
ATOM     15  C   UNL     1      -2.891 -12.651  12.139  0.00  0.00    +0.019 C 
ATOM     16  C   UNL     1      -4.003 -10.337  13.595  0.00  0.00    +0.094 C 
ATOM     17  C   UNL     1      -2.277 -11.241  12.188  0.00  0.00    +0.085 C 
ENDROOT
BRANCH  12  19
ATOM      9  N   UNL     1      -6.400 -12.889  14.677  0.00  0.00    -0.237 NA
ATOM     10  N   UNL     1      -8.366 -11.886  15.646  0.00  0.00    -0.232 NA
ATOM     19  C   UNL     1      -6.103 -11.690  14.133  0.00  0.00    +0.050 A 
ATOM     20  C   UNL     1      -6.877 -10.560  14.298  0.00  0.00    +0.052 A 
ATOM     21  C   UNL     1      -8.008 -10.719  15.072  0.00  0.00    +0.075 A 
ATOM     23  C   UNL     1      -7.529 -12.915  15.411  0.00  0.00    +0.127 A 
ATOM     26  C   UNL     1      -7.892 -14.223  16.027  0.00  0.00    +0.088 C 
BRANCH  21  25
ATOM     25  C   UNL     1      -8.903  -9.614  15.320  0.00  0.00    +0.000 A 
ATOM     28  C   UNL     1      -8.832  -8.917  16.527  0.00  0.00    +0.010 A 
ATOM     29  C   UNL     1      -9.837  -9.242  14.353  0.00  0.00    +0.010 A 
ATOM     31  C   UNL     1      -9.697  -7.848  16.766  0.00  0.00    +0.013 A 
ATOM     32  C   UNL     1     -10.702  -8.174  14.593  0.00  0.00    +0.013 A 
ATOM     33  C   UNL     1     -10.631  -7.477  15.799  0.00  0.00    +0.055 A 
BRANCH  33  35
ATOM      1  F   UNL     1     -11.201  -5.576  17.135  0.00  0.00    -0.166 F 
ATOM      2  F   UNL     1     -12.836  -6.739  16.298  0.00  0.00    -0.166 F 
ATOM      3  F   UNL     1     -11.640  -5.455  15.014  0.00  0.00    -0.166 F 
ATOM     35  C   UNL     1     -11.555  -6.335  16.056  0.00  0.00    +0.417 C 
ENDBRANCH  33  35
ENDBRANCH  21  25
ENDBRANCH  12  19
BRANCH  13  18
ATOM     18  C   UNL     1      -2.009 -10.817  15.929  0.00  0.00    +0.123 C 
BRANCH  18   8
ATOM      4  O   UNL     1      -4.526  -9.776  16.837  0.00  0.00    -0.276 OA
ATOM      8  N   UNL     1      -2.893 -11.427  16.873  0.00  0.00    -0.314 N 
ATOM     22  C   UNL     1      -4.101 -10.849  17.259  0.00  0.00    +0.213 C 
ATOM     36  H   UNL     1      -2.618 -12.316  17.282  0.00  0.00    +0.149 HD
BRANCH  22  24
ATOM     24  C   UNL     1      -4.833 -11.688  18.293  0.00  0.00    +0.096 C 
BRANCH  24  27
ATOM     27  C   UNL     1      -6.293 -11.284  18.491  0.00  0.00    +0.020 C 
BRANCH  27  30
ATOM     30  C   UNL     1      -7.058 -12.278  19.368  0.00  0.00    +0.121 C 
BRANCH  30  34
ATOM      6  O   UNL     1      -9.455 -12.522  19.728  0.00  0.00    -0.251 OA
ATOM     34  C   UNL     1      -8.465 -11.805  19.657  0.00  0.00    +0.305 C 
BRANCH  34   5
ATOM      5  O   UNL     1      -8.509 -10.460  19.837  0.00  0.00    -0.481 OA
ATOM     37  H   UNL     1      -7.860 -10.160  20.509  0.00  0.00    +0.295 HD
ENDBRANCH  34   5
ENDBRANCH  30  34
ENDBRANCH  27  30
ENDBRANCH  24  27
ENDBRANCH  22  24
ENDBRANCH  18   8
ENDBRANCH  13  18
TORSDOF 10
ENDMDL
MODEL 8
REMARK VINA RESULT:      -6.6     29.010     31.324
REMARK  Name = 40777147
REMARK  11 active torsions:
REMARK  status: ('A' for Active; 'I' for Inactive)
REMARK    1  A    between atoms: O_5  and  C_34
REMARK    2  A    between atoms: N_8  and  C_18
REMARK    3  A    between atoms: C_12  and  C_19
REMARK    4  A    between atoms: C_13  and  C_18
REMARK    5  A    between atoms: C_21  and  C_25
REMARK    6  A    between atoms: C_22  and  C_24
REMARK    7  A    between atoms: C_23  and  C_26
REMARK    8  A    between atoms: C_24  and  C_27
REMARK    9  A    between atoms: C_27  and  C_30
REMARK   10  A    between atoms: C_30  and  C_34
REMARK   11  A    between atoms: C_33  and  C_35
REMARK                            x       y       z     vdW  Elec       q    Type
REMARK                         _______ _______ _______ _____ _____    ______ ____
ROOT
ATOM      7  N   UNL     1      -4.452  -9.702  11.805  0.00  0.00    -0.297 NA
ATOM     11  C   UNL     1      -5.084 -11.191   9.764  0.00  0.00    +0.002 C 
ATOM     12  C   UNL     1      -5.010  -9.696   9.344  0.00  0.00    +0.055 C 
ATOM     13  C   UNL     1      -5.574 -10.608  12.165  0.00  0.00    +0.074 C 
ATOM     14  C   UNL     1      -6.098 -11.349  10.916  0.00  0.00    +0.024 C 
ATOM     15  C   UNL     1      -3.696 -11.564  10.328  0.00  0.00    +0.019 C 
ATOM     16  C   UNL     1      -4.831  -8.859  10.643  0.00  0.00    +0.094 C 
ATOM     17  C   UNL     1      -3.297 -10.544  11.408  0.00  0.00    +0.085 C 
ENDROOT
BRANCH  12  19
ATOM      9  N   UNL     1      -6.140  -9.592   7.178  0.00  0.00    -0.237 NA
ATOM     10  N   UNL     1      -8.063  -8.190   6.799  0.00  0.00    -0.232 NA
ATOM     19  C   UNL     1      -6.112  -9.146   8.451  0.00  0.00    +0.050 A 
ATOM     20  C   UNL     1      -7.013  -8.235   8.964  0.00  0.00    +0.052 A 
ATOM     21  C   UNL     1      -7.977  -7.788   8.084  0.00  0.00    +0.075 A 
ATOM     23  C   UNL     1      -7.127  -9.080   6.418  0.00  0.00    +0.127 A 
ATOM     26  C   UNL     1      -7.189  -9.547   5.003  0.00  0.00    +0.088 C 
BRANCH  21  25
ATOM     25  C   UNL     1      -8.977  -6.833   8.496  0.00  0.00    +0.000 A 
ATOM     28  C   UNL     1      -8.754  -5.467   8.316  0.00  0.00    +0.010 A 
ATOM     29  C   UNL     1     -10.167  -7.275   9.074  0.00  0.00    +0.010 A 
ATOM     31  C   UNL     1      -9.722  -4.545   8.715  0.00  0.00    +0.013 A 
ATOM     32  C   UNL     1     -11.135  -6.352   9.473  0.00  0.00    +0.013 A 
ATOM     33  C   UNL     1     -10.912  -4.988   9.293  0.00  0.00    +0.055 A 
BRANCH  33  35
ATOM      1  F   UNL     1     -12.331  -3.148   8.724  0.00  0.00    -0.166 F 
ATOM      2  F   UNL     1     -11.521  -3.202  10.741  0.00  0.00    -0.166 F 
ATOM      3  F   UNL     1     -13.103  -4.577  10.162  0.00  0.00    -0.166 F 
ATOM     35  C   UNL     1     -11.946  -4.001   9.719  0.00  0.00    +0.417 C 
ENDBRANCH  33  35
ENDBRANCH  21  25
ENDBRANCH  12  19
BRANCH  13  18
ATOM     18  C   UNL     1      -6.697  -9.879  12.908  0.00  0.00    +0.123 C 
BRANCH  18   8
ATOM      4  O   UNL     1      -7.006 -11.518  15.244  0.00  0.00    -0.276 OA
ATOM      8  N   UNL     1      -6.295  -9.549  14.241  0.00  0.00    -0.314 N 
ATOM     22  C   UNL     1      -6.485 -10.408  15.322  0.00  0.00    +0.213 C 
ATOM     36  H   UNL     1      -5.861  -8.644  14.400  0.00  0.00    +0.149 HD
BRANCH  22  24
ATOM     24  C   UNL     1      -5.996  -9.804  16.626  0.00  0.00    +0.096 C 
BRANCH  24  27
ATOM     27  C   UNL     1      -5.067 -10.722  17.419  0.00  0.00    +0.020 C 
BRANCH  27  30
ATOM     30  C   UNL     1      -5.374 -10.709  18.918  0.00  0.00    +0.121 C 
BRANCH  30  34
ATOM      6  O   UNL     1      -7.080 -12.448  18.910  0.00  0.00    -0.251 OA
ATOM     34  C   UNL     1      -6.725 -11.318  19.220  0.00  0.00    +0.305 C 
BRANCH  34   5
ATOM      5  O   UNL     1      -7.521 -10.449  19.895  0.00  0.00    -0.481 OA
ATOM     37  H   UNL     1      -7.155 -10.230  20.779  0.00  0.00    +0.295 HD
ENDBRANCH  34   5
ENDBRANCH  30  34
ENDBRANCH  27  30
ENDBRANCH  24  27
ENDBRANCH  22  24
ENDBRANCH  18   8
ENDBRANCH  13  18
TORSDOF 10
ENDMDL
MODEL 9
REMARK VINA RESULT:      -6.5     15.298     18.743
REMARK  Name = 40777147
REMARK  11 active torsions:
REMARK  status: ('A' for Active; 'I' for Inactive)
REMARK    1  A    between atoms: O_5  and  C_34
REMARK    2  A    between atoms: N_8  and  C_18
REMARK    3  A    between atoms: C_12  and  C_19
REMARK    4  A    between atoms: C_13  and  C_18
REMARK    5  A    between atoms: C_21  and  C_25
REMARK    6  A    between atoms: C_22  and  C_24
REMARK    7  A    between atoms: C_23  and  C_26
REMARK    8  A    between atoms: C_24  and  C_27
REMARK    9  A    between atoms: C_27  and  C_30
REMARK   10  A    between atoms: C_30  and  C_34
REMARK   11  A    between atoms: C_33  and  C_35
REMARK                            x       y       z     vdW  Elec       q    Type
REMARK                         _______ _______ _______ _____ _____    ______ ____
ROOT
ATOM      7  N   UNL     1       9.834   7.104   7.611  0.00  0.00    -0.297 NA
ATOM     11  C   UNL     1       9.876   5.160   5.878  0.00  0.00    +0.002 C 
ATOM     12  C   UNL     1      11.170   6.014   5.768  0.00  0.00    +0.055 C 
ATOM     13  C   UNL     1       8.560   7.077   6.846  0.00  0.00    +0.074 C 
ATOM     14  C   UNL     1       8.645   6.069   5.679  0.00  0.00    +0.024 C 
ATOM     15  C   UNL     1       9.817   4.626   7.326  0.00  0.00    +0.019 C 
ATOM     16  C   UNL     1      10.982   7.259   6.682  0.00  0.00    +0.094 C 
ATOM     17  C   UNL     1       9.975   5.802   8.306  0.00  0.00    +0.085 C 
ENDROOT
BRANCH  12  19
ATOM      9  N   UNL     1      12.172   7.630   4.230  0.00  0.00    -0.237 NA
ATOM     10  N   UNL     1      12.574   7.116   1.911  0.00  0.00    -0.232 NA
ATOM     19  C   UNL     1      11.668   6.388   4.380  0.00  0.00    +0.050 A 
ATOM     20  C   UNL     1      11.585   5.466   3.356  0.00  0.00    +0.052 A 
ATOM     21  C   UNL     1      12.058   5.889   2.131  0.00  0.00    +0.075 A 
ATOM     23  C   UNL     1      12.601   7.924   2.988  0.00  0.00    +0.127 A 
ATOM     26  C   UNL     1      13.162   9.290   2.782  0.00  0.00    +0.088 C 
BRANCH  21  25
ATOM     25  C   UNL     1      12.026   5.020   0.979  0.00  0.00    +0.000 A 
ATOM     28  C   UNL     1      13.102   4.171   0.716  0.00  0.00    +0.010 A 
ATOM     29  C   UNL     1      10.920   5.029   0.129  0.00  0.00    +0.010 A 
ATOM     31  C   UNL     1      13.070   3.332  -0.397  0.00  0.00    +0.013 A 
ATOM     32  C   UNL     1      10.890   4.189  -0.985  0.00  0.00    +0.013 A 
ATOM     33  C   UNL     1      11.964   3.341  -1.247  0.00  0.00    +0.055 A 
BRANCH  33  35
ATOM      1  F   UNL     1      12.012   1.115  -2.124  0.00  0.00    -0.166 F 
ATOM      2  F   UNL     1      12.963   2.677  -3.301  0.00  0.00    -0.166 F 
ATOM      3  F   UNL     1      10.795   2.564  -3.184  0.00  0.00    -0.166 F 
ATOM     35  C   UNL     1      11.932   2.442  -2.437  0.00  0.00    +0.417 C 
ENDBRANCH  33  35
ENDBRANCH  21  25
ENDBRANCH  12  19
BRANCH  13  18
ATOM     18  C   UNL     1       8.137   8.468   6.367  0.00  0.00    +0.123 C 
BRANCH  18   8
ATOM      4  O   UNL     1       7.834  10.744   4.644  0.00  0.00    -0.276 OA
ATOM      8  N   UNL     1       7.791   8.447   4.979  0.00  0.00    -0.314 N 
ATOM     22  C   UNL     1       7.664   9.606   4.215  0.00  0.00    +0.213 C 
ATOM     36  H   UNL     1       7.624   7.546   4.540  0.00  0.00    +0.149 HD
BRANCH  22  24
ATOM     24  C   UNL     1       7.262   9.305   2.782  0.00  0.00    +0.096 C 
BRANCH  24  27
ATOM     27  C   UNL     1       6.052  10.106   2.301  0.00  0.00    +0.020 C 
BRANCH  27  30
ATOM     30  C   UNL     1       5.522   9.608   0.955  0.00  0.00    +0.121 C 
BRANCH  30  34
ATOM      6  O   UNL     1       3.386   9.966  -0.160  0.00  0.00    -0.251 OA
ATOM     34  C   UNL     1       4.018   9.734   0.862  0.00  0.00    +0.305 C 
BRANCH  34   5
ATOM      5  O   UNL     1       3.429   9.552   2.073  0.00  0.00    -0.481 OA
ATOM     37  H   UNL     1       3.591  10.310   2.674  0.00  0.00    +0.295 HD
ENDBRANCH  34   5
ENDBRANCH  30  34
ENDBRANCH  27  30
ENDBRANCH  24  27
ENDBRANCH  22  24
ENDBRANCH  18   8
ENDBRANCH  13  18
TORSDOF 10
ENDMDL
MODEL 10
REMARK VINA RESULT:      -6.4     28.267     31.181
REMARK  Name = 40777147
REMARK  11 active torsions:
REMARK  status: ('A' for Active; 'I' for Inactive)
REMARK    1  A    between atoms: O_5  and  C_34
REMARK    2  A    between atoms: N_8  and  C_18
REMARK    3  A    between atoms: C_12  and  C_19
REMARK    4  A    between atoms: C_13  and  C_18
REMARK    5  A    between atoms: C_21  and  C_25
REMARK    6  A    between atoms: C_22  and  C_24
REMARK    7  A    between atoms: C_23  and  C_26
REMARK    8  A    between atoms: C_24  and  C_27
REMARK    9  A    between atoms: C_27  and  C_30
REMARK   10  A    between atoms: C_30  and  C_34
REMARK   11  A    between atoms: C_33  and  C_35
REMARK                            x       y       z     vdW  Elec       q    Type
REMARK                         _______ _______ _______ _____ _____    ______ ____
ROOT
ATOM      7  N   UNL     1      -4.971 -12.174  17.294  0.00  0.00    -0.297 NA
ATOM     11  C   UNL     1      -5.735 -11.410  19.664  0.00  0.00    +0.002 C 
ATOM     12  C   UNL     1      -6.780 -12.378  19.041  0.00  0.00    +0.055 C 
ATOM     13  C   UNL     1      -4.888 -10.693  17.402  0.00  0.00    +0.074 C 
ATOM     14  C   UNL     1      -5.529 -10.207  18.720  0.00  0.00    +0.024 C 
ATOM     15  C   UNL     1      -4.397 -12.177  19.720  0.00  0.00    +0.019 C 
ATOM     16  C   UNL     1      -6.359 -12.626  17.564  0.00  0.00    +0.094 C 
ATOM     17  C   UNL     1      -4.085 -12.756  18.329  0.00  0.00    +0.085 C 
ENDROOT
BRANCH  12  19
ATOM      9  N   UNL     1      -8.980 -12.751  20.043  0.00  0.00    -0.237 NA
ATOM     10  N   UNL     1     -10.905 -11.436  19.438  0.00  0.00    -0.232 NA
ATOM     19  C   UNL     1      -8.254 -12.023  19.169  0.00  0.00    +0.050 A 
ATOM     20  C   UNL     1      -8.777 -11.000  18.404  0.00  0.00    +0.052 A 
ATOM     21  C   UNL     1     -10.121 -10.748  18.583  0.00  0.00    +0.075 A 
ATOM     23  C   UNL     1     -10.280 -12.409  20.126  0.00  0.00    +0.127 A 
ATOM     26  C   UNL     1     -11.115 -13.194  21.080  0.00  0.00    +0.088 C 
BRANCH  21  25
ATOM     25  C   UNL     1     -10.789  -9.704  17.842  0.00  0.00    +0.000 A 
ATOM     28  C   UNL     1     -12.140  -9.832  17.521  0.00  0.00    +0.010 A 
ATOM     29  C   UNL     1     -10.082  -8.567  17.449  0.00  0.00    +0.010 A 
ATOM     31  C   UNL     1     -12.784  -8.822  16.806  0.00  0.00    +0.013 A 
ATOM     32  C   UNL     1     -10.727  -7.558  16.733  0.00  0.00    +0.013 A 
ATOM     33  C   UNL     1     -12.078  -7.686  16.412  0.00  0.00    +0.055 A 
BRANCH  33  35
ATOM      1  F   UNL     1     -13.068  -6.955  14.360  0.00  0.00    -0.166 F 
ATOM      2  F   UNL     1     -12.022  -5.468  15.554  0.00  0.00    -0.166 F 
ATOM      3  F   UNL     1     -13.957  -6.221  16.198  0.00  0.00    -0.166 F 
ATOM     35  C   UNL     1     -12.768  -6.607  15.647  0.00  0.00    +0.417 C 
ENDBRANCH  33  35
ENDBRANCH  21  25
ENDBRANCH  12  19
BRANCH  13  18
ATOM     18  C   UNL     1      -5.483  -9.984  16.183  0.00  0.00    +0.123 C 
BRANCH  18   8
ATOM      4  O   UNL     1      -6.401  -9.989  13.463  0.00  0.00    -0.276 OA
ATOM      8  N   UNL     1      -4.691 -10.223  15.016  0.00  0.00    -0.314 N 
ATOM     22  C   UNL     1      -5.221 -10.206  13.727  0.00  0.00    +0.213 C 
ATOM     36  H   UNL     1      -3.702 -10.421  15.141  0.00  0.00    +0.149 HD
BRANCH  22  24
ATOM     24  C   UNL     1      -4.173 -10.518  12.673  0.00  0.00    +0.096 C 
BRANCH  24  27
ATOM     27  C   UNL     1      -2.744 -10.533  13.213  0.00  0.00    +0.020 C 
BRANCH  27  30
ATOM     30  C   UNL     1      -2.047 -11.874  12.977  0.00  0.00    +0.121 C 
BRANCH  30  34
ATOM      6  O   UNL     1      -1.998 -13.993  14.178  0.00  0.00    -0.251 OA
ATOM     34  C   UNL     1      -2.138 -12.777  14.186  0.00  0.00    +0.305 C 
BRANCH  34   5
ATOM      5  O   UNL     1      -2.398 -12.068  15.315  0.00  0.00    -0.481 OA
ATOM     37  H   UNL     1      -2.078 -11.142  15.246  0.00  0.00    +0.295 HD
ENDBRANCH  34   5
ENDBRANCH  30  34
ENDBRANCH  27  30
ENDBRANCH  24  27
ENDBRANCH  22  24
ENDBRANCH  18   8
ENDBRANCH  13  18
TORSDOF 10
ENDMDL
