MODEL 1
REMARK VINA RESULT:      -7.2      0.000      0.000
REMARK  Name = 45360872
REMARK  7 active torsions:
REMARK  status: ('A' for Active; 'I' for Inactive)
REMARK    1  A    between atoms: N_3  and  C_17
REMARK    2  A    between atoms: N_4  and  C_18
REMARK    3  A    between atoms: N_7  and  C_28
REMARK    4  A    between atoms: C_13  and  C_16
REMARK    5  A    between atoms: C_16  and  C_19
REMARK    6  A    between atoms: C_17  and  C_20
REMARK    7  A    between atoms: C_19  and  C_21
REMARK                            x       y       z     vdW  Elec       q    Type
REMARK                         _______ _______ _______ _____ _____    ______ ____
ROOT
ATOM      1  O   UNL     1      17.957   5.937  19.262  0.00  0.00    -0.274 OA
ATOM      3  N   UNL     1      18.760   7.421  21.371  0.00  0.00    -0.283 NA
ATOM      4  N   UNL     1      15.784   9.054  20.003  0.00  0.00    -0.296 NA
ATOM      5  N   UNL     1      15.721   6.188  19.677  0.00  0.00    -0.312 N 
ATOM      9  C   UNL     1      16.740   8.737  21.087  0.00  0.00    +0.084 C 
ATOM     10  C   UNL     1      17.304   7.288  21.178  0.00  0.00    +0.161 C 
ATOM     11  C   UNL     1      18.027   9.581  21.052  0.00  0.00    +0.036 C 
ATOM     12  C   UNL     1      19.004   8.768  21.876  0.00  0.00    +0.087 C 
ATOM     13  C   UNL     1      14.499   8.304  20.075  0.00  0.00    +0.074 C 
ATOM     14  C   UNL     1      17.057   6.421  19.946  0.00  0.00    +0.232 C 
ATOM     15  C   UNL     1      14.638   6.808  20.414  0.00  0.00    +0.123 C 
ATOM     18  C   UNL     1      15.527  10.503  19.939  0.00  0.00    +0.105 C 
ATOM     33  H   UNL     1      15.492   5.554  18.918  0.00  0.00    +0.149 HD
ENDROOT
BRANCH  13  16
ATOM     16  C   UNL     1      13.738   8.408  18.736  0.00  0.00    +0.029 C 
BRANCH  16  19
ATOM     19  C   UNL     1      12.466   9.225  18.868  0.00  0.00    +0.097 C 
BRANCH  19  21
ATOM      2  O   UNL     1      11.135   7.597  19.985  0.00  0.00    -0.276 OA
ATOM      6  N   UNL     1      11.426   9.629  21.044  0.00  0.00    -0.301 N 
ATOM     21  C   UNL     1      11.616   8.730  20.010  0.00  0.00    +0.216 C 
ATOM     22  C   UNL     1      10.625   9.308  22.215  0.00  0.00    +0.108 C 
ATOM     23  C   UNL     1      11.970  10.981  21.136  0.00  0.00    +0.108 C 
ATOM     24  C   UNL     1      10.949  10.411  23.211  0.00  0.00    +0.020 C 
ATOM     25  C   UNL     1      11.234  11.607  22.311  0.00  0.00    +0.020 C 
ENDBRANCH  19  21
ENDBRANCH  16  19
ENDBRANCH  13  16
BRANCH   3  17
ATOM     17  C   UNL     1      19.323   6.398  22.242  0.00  0.00    +0.159 C 
BRANCH  17  20
ATOM      7  N   UNL     1      21.785   6.527  22.742  0.00  0.00    -0.330 N 
ATOM      8  N   UNL     1      21.215   5.486  20.862  0.00  0.00    -0.231 NA
ATOM     20  C   UNL     1      20.768   6.122  21.922  0.00  0.00    +0.125 A 
ATOM     26  C   UNL     1      22.967   6.126  22.173  0.00  0.00    +0.069 A 
ATOM     27  C   UNL     1      22.584   5.479  21.001  0.00  0.00    +0.089 A 
ATOM     28  C   UNL     1      21.644   7.249  23.986  0.00  0.00    +0.150 C 
ATOM     29  C   UNL     1      24.296   6.270  22.571  0.00  0.00    +0.028 A 
ATOM     30  C   UNL     1      23.574   4.936  20.164  0.00  0.00    +0.030 A 
ATOM     31  C   UNL     1      25.268   5.723  21.726  0.00  0.00    +0.002 A 
ATOM     32  C   UNL     1      24.915   5.069  20.544  0.00  0.00    +0.002 A 
ENDBRANCH  17  20
ENDBRANCH   3  17
TORSDOF 5
ENDMDL
MODEL 2
REMARK VINA RESULT:      -7.2      2.629      3.970
REMARK  Name = 45360872
REMARK  7 active torsions:
REMARK  status: ('A' for Active; 'I' for Inactive)
REMARK    1  A    between atoms: N_3  and  C_17
REMARK    2  A    between atoms: N_4  and  C_18
REMARK    3  A    between atoms: N_7  and  C_28
REMARK    4  A    between atoms: C_13  and  C_16
REMARK    5  A    between atoms: C_16  and  C_19
REMARK    6  A    between atoms: C_17  and  C_20
REMARK    7  A    between atoms: C_19  and  C_21
REMARK                            x       y       z     vdW  Elec       q    Type
REMARK                         _______ _______ _______ _____ _____    ______ ____
ROOT
ATOM      1  O   UNL     1      19.967   6.471  23.674  0.00  0.00    -0.274 OA
ATOM      3  N   UNL     1      20.812   5.487  21.305  0.00  0.00    -0.283 NA
ATOM      4  N   UNL     1      17.525   6.981  20.714  0.00  0.00    -0.296 NA
ATOM      5  N   UNL     1      19.003   8.344  22.782  0.00  0.00    -0.312 N 
ATOM      9  C   UNL     1      18.868   6.528  20.292  0.00  0.00    +0.084 C 
ATOM     10  C   UNL     1      20.066   6.758  21.260  0.00  0.00    +0.161 C 
ATOM     11  C   UNL     1      18.961   5.015  20.020  0.00  0.00    +0.036 C 
ATOM     12  C   UNL     1      20.446   4.732  20.113  0.00  0.00    +0.087 C 
ATOM     13  C   UNL     1      17.399   8.454  20.898  0.00  0.00    +0.074 C 
ATOM     14  C   UNL     1      19.680   7.143  22.686  0.00  0.00    +0.232 C 
ATOM     15  C   UNL     1      18.580   9.119  21.633  0.00  0.00    +0.123 C 
ATOM     18  C   UNL     1      16.492   6.493  19.785  0.00  0.00    +0.105 C 
ATOM     33  H   UNL     1      18.787   8.696  23.710  0.00  0.00    +0.149 HD
ENDROOT
BRANCH  13  16
ATOM     16  C   UNL     1      16.115   8.792  21.684  0.00  0.00    +0.029 C 
BRANCH  16  19
ATOM     19  C   UNL     1      14.980   9.205  20.767  0.00  0.00    +0.097 C 
BRANCH  19  21
ATOM      2  O   UNL     1      13.579  10.552  22.143  0.00  0.00    -0.276 OA
ATOM      6  N   UNL     1      12.781   8.469  21.541  0.00  0.00    -0.301 N 
ATOM     21  C   UNL     1      13.721   9.483  21.547  0.00  0.00    +0.216 C 
ATOM     22  C   UNL     1      11.515   8.578  22.253  0.00  0.00    +0.108 C 
ATOM     23  C   UNL     1      12.885   7.185  20.855  0.00  0.00    +0.108 C 
ATOM     24  C   UNL     1      10.679   7.424  21.722  0.00  0.00    +0.020 C 
ATOM     25  C   UNL     1      11.727   6.365  21.405  0.00  0.00    +0.020 C 
ENDBRANCH  19  21
ENDBRANCH  16  19
ENDBRANCH  13  16
BRANCH   3  17
ATOM     17  C   UNL     1      22.254   5.667  21.420  0.00  0.00    +0.159 C 
BRANCH  17  20
ATOM      7  N   UNL     1      23.951   3.845  21.060  0.00  0.00    -0.330 N 
ATOM      8  N   UNL     1      22.693   3.672  22.885  0.00  0.00    -0.231 NA
ATOM     20  C   UNL     1      22.949   4.390  21.815  0.00  0.00    +0.125 A 
ATOM     26  C   UNL     1      24.368   2.698  21.686  0.00  0.00    +0.069 A 
ATOM     27  C   UNL     1      23.567   2.613  22.822  0.00  0.00    +0.089 A 
ATOM     28  C   UNL     1      24.478   4.378  19.825  0.00  0.00    +0.150 C 
ATOM     29  C   UNL     1      25.346   1.757  21.365  0.00  0.00    +0.028 A 
ATOM     30  C   UNL     1      23.740   1.531  23.702  0.00  0.00    +0.030 A 
ATOM     31  C   UNL     1      25.505   0.687  22.252  0.00  0.00    +0.002 A 
ATOM     32  C   UNL     1      24.717   0.574  23.400  0.00  0.00    +0.002 A 
ENDBRANCH  17  20
ENDBRANCH   3  17
TORSDOF 5
ENDMDL
MODEL 3
REMARK VINA RESULT:      -7.1     27.599     30.471
REMARK  Name = 45360872
REMARK  7 active torsions:
REMARK  status: ('A' for Active; 'I' for Inactive)
REMARK    1  A    between atoms: N_3  and  C_17
REMARK    2  A    between atoms: N_4  and  C_18
REMARK    3  A    between atoms: N_7  and  C_28
REMARK    4  A    between atoms: C_13  and  C_16
REMARK    5  A    between atoms: C_16  and  C_19
REMARK    6  A    between atoms: C_17  and  C_20
REMARK    7  A    between atoms: C_19  and  C_21
REMARK                            x       y       z     vdW  Elec       q    Type
REMARK                         _______ _______ _______ _____ _____    ______ ____
ROOT
ATOM      1  O   UNL     1      -1.831 -11.082  16.316  0.00  0.00    -0.274 OA
ATOM      3  N   UNL     1      -2.405 -13.011  14.516  0.00  0.00    -0.283 NA
ATOM      4  N   UNL     1      -5.471 -12.395  16.416  0.00  0.00    -0.296 NA
ATOM      5  N   UNL     1      -3.852 -10.025  16.131  0.00  0.00    -0.312 N 
ATOM      9  C   UNL     1      -4.721 -12.842  15.221  0.00  0.00    +0.084 C 
ATOM     10  C   UNL     1      -3.469 -12.025  14.784  0.00  0.00    +0.161 C 
ATOM     11  C   UNL     1      -4.150 -14.267  15.338  0.00  0.00    +0.036 C 
ATOM     12  C   UNL     1      -3.057 -14.296  14.290  0.00  0.00    +0.087 C 
ATOM     13  C   UNL     1      -6.100 -11.051  16.283  0.00  0.00    +0.074 C 
ATOM     14  C   UNL     1      -2.954 -11.028  15.819  0.00  0.00    +0.232 C 
ATOM     15  C   UNL     1      -5.209  -9.980  15.626  0.00  0.00    +0.123 C 
ATOM     18  C   UNL     1      -6.480 -13.395  16.805  0.00  0.00    +0.105 C 
ATOM     33  H   UNL     1      -3.541  -9.285  16.754  0.00  0.00    +0.149 HD
ENDROOT
BRANCH  13  16
ATOM     16  C   UNL     1      -6.526 -10.515  17.666  0.00  0.00    +0.029 C 
BRANCH  16  19
ATOM     19  C   UNL     1      -7.602  -9.452  17.557  0.00  0.00    +0.097 C 
BRANCH  19  21
ATOM      2  O   UNL     1      -9.134 -11.231  17.954  0.00  0.00    -0.276 OA
ATOM      6  N   UNL     1     -10.010  -9.234  17.193  0.00  0.00    -0.301 N 
ATOM     21  C   UNL     1      -8.979 -10.064  17.593  0.00  0.00    +0.216 C 
ATOM     22  C   UNL     1     -11.397  -9.676  17.163  0.00  0.00    +0.108 C 
ATOM     23  C   UNL     1      -9.894  -7.845  16.758  0.00  0.00    +0.108 C 
ATOM     24  C   UNL     1     -12.200  -8.395  16.992  0.00  0.00    +0.020 C 
ATOM     25  C   UNL     1     -11.262  -7.513  16.179  0.00  0.00    +0.020 C 
ENDBRANCH  19  21
ENDBRANCH  16  19
ENDBRANCH  13  16
BRANCH   3  17
ATOM     17  C   UNL     1      -1.535 -12.635  13.408  0.00  0.00    +0.159 C 
BRANCH  17  20
ATOM      7  N   UNL     1      -2.196 -10.672  11.981  0.00  0.00    -0.330 N 
ATOM      8  N   UNL     1      -3.142 -12.619  11.476  0.00  0.00    -0.231 NA
ATOM     20  C   UNL     1      -2.306 -12.002  12.280  0.00  0.00    +0.125 A 
ATOM     26  C   UNL     1      -3.018 -10.414  10.914  0.00  0.00    +0.069 A 
ATOM     27  C   UNL     1      -3.596 -11.645  10.617  0.00  0.00    +0.089 A 
ATOM     28  C   UNL     1      -1.366  -9.707  12.666  0.00  0.00    +0.150 C 
ATOM     29  C   UNL     1      -3.295  -9.246  10.204  0.00  0.00    +0.028 A 
ATOM     30  C   UNL     1      -4.509 -11.734   9.552  0.00  0.00    +0.030 A 
ATOM     31  C   UNL     1      -4.205  -9.352   9.147  0.00  0.00    +0.002 A 
ATOM     32  C   UNL     1      -4.803 -10.573   8.826  0.00  0.00    +0.002 A 
ENDBRANCH  17  20
ENDBRANCH   3  17
TORSDOF 5
ENDMDL
MODEL 4
REMARK VINA RESULT:      -7.1     28.084     31.309
REMARK  Name = 45360872
REMARK  7 active torsions:
REMARK  status: ('A' for Active; 'I' for Inactive)
REMARK    1  A    between atoms: N_3  and  C_17
REMARK    2  A    between atoms: N_4  and  C_18
REMARK    3  A    between atoms: N_7  and  C_28
REMARK    4  A    between atoms: C_13  and  C_16
REMARK    5  A    between atoms: C_16  and  C_19
REMARK    6  A    between atoms: C_17  and  C_20
REMARK    7  A    between atoms: C_19  and  C_21
REMARK                            x       y       z     vdW  Elec       q    Type
REMARK                         _______ _______ _______ _____ _____    ______ ____
ROOT
ATOM      1  O   UNL     1      -5.357  -9.921  14.877  0.00  0.00    -0.274 OA
ATOM      3  N   UNL     1      -5.828 -11.785  16.773  0.00  0.00    -0.283 NA
ATOM      4  N   UNL     1      -3.294 -13.179  14.531  0.00  0.00    -0.296 NA
ATOM      5  N   UNL     1      -3.105 -10.310  14.767  0.00  0.00    -0.312 N 
ATOM      9  C   UNL     1      -3.996 -13.066  15.829  0.00  0.00    +0.084 C 
ATOM     10  C   UNL     1      -4.433 -11.653  16.315  0.00  0.00    +0.161 C 
ATOM     11  C   UNL     1      -5.319 -13.851  15.894  0.00  0.00    +0.036 C 
ATOM     12  C   UNL     1      -6.059 -13.200  17.044  0.00  0.00    +0.087 C 
ATOM     13  C   UNL     1      -1.973 -12.493  14.483  0.00  0.00    +0.074 C 
ATOM     14  C   UNL     1      -4.375 -10.558  15.253  0.00  0.00    +0.232 C 
ATOM     15  C   UNL     1      -1.942 -11.095  15.129  0.00  0.00    +0.123 C 
ATOM     18  C   UNL     1      -3.153 -14.590  14.133  0.00  0.00    +0.105 C 
ATOM     33  H   UNL     1      -2.987  -9.539  14.116  0.00  0.00    +0.149 HD
ENDROOT
BRANCH  13  16
ATOM     16  C   UNL     1      -1.497 -12.340  13.022  0.00  0.00    +0.029 C 
BRANCH  16  19
ATOM     19  C   UNL     1      -2.653 -12.099  12.071  0.00  0.00    +0.097 C 
BRANCH  19  21
ATOM      2  O   UNL     1      -1.719  -9.922  11.829  0.00  0.00    -0.276 OA
ATOM      6  N   UNL     1      -3.541 -10.441  10.508  0.00  0.00    -0.301 N 
ATOM     21  C   UNL     1      -2.583 -10.720  11.465  0.00  0.00    +0.216 C 
ATOM     22  C   UNL     1      -3.614  -9.153   9.834  0.00  0.00    +0.108 C 
ATOM     23  C   UNL     1      -4.587 -11.341  10.031  0.00  0.00    +0.108 C 
ATOM     24  C   UNL     1      -4.563  -9.387   8.669  0.00  0.00    +0.020 C 
ATOM     25  C   UNL     1      -5.510 -10.450   9.211  0.00  0.00    +0.020 C 
ENDBRANCH  19  21
ENDBRANCH  16  19
ENDBRANCH  13  16
BRANCH   3  17
ATOM     17  C   UNL     1      -6.141 -10.948  17.925  0.00  0.00    +0.159 C 
BRANCH  17  20
ATOM      7  N   UNL     1      -8.601 -10.697  18.387  0.00  0.00    -0.330 N 
ATOM      8  N   UNL     1      -7.689  -9.172  17.051  0.00  0.00    -0.231 NA
ATOM     20  C   UNL     1      -7.465 -10.250  17.768  0.00  0.00    +0.125 A 
ATOM     26  C   UNL     1      -9.624  -9.851  18.044  0.00  0.00    +0.069 A 
ATOM     27  C   UNL     1      -9.029  -8.909  17.211  0.00  0.00    +0.089 A 
ATOM     28  C   UNL     1      -8.706 -11.854  19.247  0.00  0.00    +0.150 C 
ATOM     29  C   UNL     1     -10.977  -9.831  18.382  0.00  0.00    +0.028 A 
ATOM     30  C   UNL     1      -9.817  -7.876  16.673  0.00  0.00    +0.030 A 
ATOM     31  C   UNL     1     -11.746  -8.797  17.839  0.00  0.00    +0.002 A 
ATOM     32  C   UNL     1     -11.178  -7.836  16.999  0.00  0.00    +0.002 A 
ENDBRANCH  17  20
ENDBRANCH   3  17
TORSDOF 5
ENDMDL
MODEL 5
REMARK VINA RESULT:      -7.0      2.579     10.033
REMARK  Name = 45360872
REMARK  7 active torsions:
REMARK  status: ('A' for Active; 'I' for Inactive)
REMARK    1  A    between atoms: N_3  and  C_17
REMARK    2  A    between atoms: N_4  and  C_18
REMARK    3  A    between atoms: N_7  and  C_28
REMARK    4  A    between atoms: C_13  and  C_16
REMARK    5  A    between atoms: C_16  and  C_19
REMARK    6  A    between atoms: C_17  and  C_20
REMARK    7  A    between atoms: C_19  and  C_21
REMARK                            x       y       z     vdW  Elec       q    Type
REMARK                         _______ _______ _______ _____ _____    ______ ____
ROOT
ATOM      1  O   UNL     1      18.240   9.529  20.827  0.00  0.00    -0.274 OA
ATOM      3  N   UNL     1      16.682   7.451  20.089  0.00  0.00    -0.283 NA
ATOM      4  N   UNL     1      19.974   6.069  20.890  0.00  0.00    -0.296 NA
ATOM      5  N   UNL     1      19.331   8.387  22.482  0.00  0.00    -0.312 N 
ATOM      9  C   UNL     1      18.506   5.984  20.732  0.00  0.00    +0.084 C 
ATOM     10  C   UNL     1      17.640   7.198  21.181  0.00  0.00    +0.161 C 
ATOM     11  C   UNL     1      18.045   5.782  19.276  0.00  0.00    +0.036 C 
ATOM     12  C   UNL     1      16.597   6.227  19.301  0.00  0.00    +0.087 C 
ATOM     13  C   UNL     1      20.437   6.179  22.302  0.00  0.00    +0.074 C 
ATOM     14  C   UNL     1      18.420   8.483  21.448  0.00  0.00    +0.232 C 
ATOM     15  C   UNL     1      19.623   7.150  23.178  0.00  0.00    +0.123 C 
ATOM     18  C   UNL     1      20.639   4.938  20.221  0.00  0.00    +0.105 C 
ATOM     33  H   UNL     1      19.825   9.229  22.762  0.00  0.00    +0.149 HD
ENDROOT
BRANCH  13  16
ATOM     16  C   UNL     1      21.911   6.634  22.352  0.00  0.00    +0.029 C 
BRANCH  16  19
ATOM     19  C   UNL     1      22.718   5.836  23.359  0.00  0.00    +0.097 C 
BRANCH  19  21
ATOM      2  O   UNL     1      22.005   3.576  23.593  0.00  0.00    -0.276 OA
ATOM      6  N   UNL     1      23.622   4.014  22.003  0.00  0.00    -0.301 N 
ATOM     21  C   UNL     1      22.738   4.371  23.004  0.00  0.00    +0.216 C 
ATOM     22  C   UNL     1      23.768   2.638  21.549  0.00  0.00    +0.108 C 
ATOM     23  C   UNL     1      24.513   4.904  21.264  0.00  0.00    +0.108 C 
ATOM     24  C   UNL     1      24.567   2.745  20.259  0.00  0.00    +0.020 C 
ATOM     25  C   UNL     1      25.441   3.969  20.504  0.00  0.00    +0.020 C 
ENDBRANCH  19  21
ENDBRANCH  16  19
ENDBRANCH  13  16
BRANCH   3  17
ATOM     17  C   UNL     1      15.375   7.894  20.558  0.00  0.00    +0.159 C 
BRANCH  17  20
ATOM      7  N   UNL     1      13.167   7.817  19.355  0.00  0.00    -0.330 N 
ATOM      8  N   UNL     1      14.779   9.000  18.382  0.00  0.00    -0.231 NA
ATOM     20  C   UNL     1      14.462   8.254  19.416  0.00  0.00    +0.125 A 
ATOM     26  C   UNL     1      12.612   8.315  18.203  0.00  0.00    +0.069 A 
ATOM     27  C   UNL     1      13.638   9.049  17.615  0.00  0.00    +0.089 A 
ATOM     28  C   UNL     1      12.500   6.981  20.326  0.00  0.00    +0.150 C 
ATOM     29  C   UNL     1      11.341   8.189  17.644  0.00  0.00    +0.028 A 
ATOM     30  C   UNL     1      13.398   9.704  16.394  0.00  0.00    +0.030 A 
ATOM     31  C   UNL     1      11.119   8.847  16.430  0.00  0.00    +0.002 A 
ATOM     32  C   UNL     1      12.129   9.591  15.814  0.00  0.00    +0.002 A 
ENDBRANCH  17  20
ENDBRANCH   3  17
TORSDOF 5
ENDMDL
MODEL 6
REMARK VINA RESULT:      -6.8      2.711      4.213
REMARK  Name = 45360872
REMARK  7 active torsions:
REMARK  status: ('A' for Active; 'I' for Inactive)
REMARK    1  A    between atoms: N_3  and  C_17
REMARK    2  A    between atoms: N_4  and  C_18
REMARK    3  A    between atoms: N_7  and  C_28
REMARK    4  A    between atoms: C_13  and  C_16
REMARK    5  A    between atoms: C_16  and  C_19
REMARK    6  A    between atoms: C_17  and  C_20
REMARK    7  A    between atoms: C_19  and  C_21
REMARK                            x       y       z     vdW  Elec       q    Type
REMARK                         _______ _______ _______ _____ _____    ______ ____
ROOT
ATOM      1  O   UNL     1      20.176   6.324  23.968  0.00  0.00    -0.274 OA
ATOM      3  N   UNL     1      21.241   5.363  21.680  0.00  0.00    -0.283 NA
ATOM      4  N   UNL     1      18.045   6.905  20.789  0.00  0.00    -0.296 NA
ATOM      5  N   UNL     1      19.326   8.222  23.013  0.00  0.00    -0.312 N 
ATOM      9  C   UNL     1      19.419   6.442  20.494  0.00  0.00    +0.084 C 
ATOM     10  C   UNL     1      20.517   6.644  21.580  0.00  0.00    +0.161 C 
ATOM     11  C   UNL     1      19.522   4.932  20.210  0.00  0.00    +0.036 C 
ATOM     12  C   UNL     1      20.987   4.629  20.446  0.00  0.00    +0.087 C 
ATOM     13  C   UNL     1      17.918   8.377  20.982  0.00  0.00    +0.074 C 
ATOM     14  C   UNL     1      19.996   7.014  22.966  0.00  0.00    +0.232 C 
ATOM     15  C   UNL     1      19.027   9.017  21.839  0.00  0.00    +0.123 C 
ATOM     18  C   UNL     1      17.104   6.443  19.755  0.00  0.00    +0.105 C 
ATOM     33  H   UNL     1      19.023   8.563  23.920  0.00  0.00    +0.149 HD
ENDROOT
BRANCH  13  16
ATOM     16  C   UNL     1      16.565   8.720  21.642  0.00  0.00    +0.029 C 
BRANCH  16  19
ATOM     19  C   UNL     1      15.589   9.326  20.653  0.00  0.00    +0.097 C 
BRANCH  19  21
ATOM      2  O   UNL     1      13.945   7.863  21.562  0.00  0.00    -0.276 OA
ATOM      6  N   UNL     1      13.608   8.617  19.406  0.00  0.00    -0.301 N 
ATOM     21  C   UNL     1      14.308   8.534  20.595  0.00  0.00    +0.216 C 
ATOM     22  C   UNL     1      12.358   7.906  19.187  0.00  0.00    +0.108 C 
ATOM     23  C   UNL     1      13.980   9.394  18.226  0.00  0.00    +0.108 C 
ATOM     24  C   UNL     1      11.784   8.523  17.921  0.00  0.00    +0.020 C 
ATOM     25  C   UNL     1      13.033   8.911  17.138  0.00  0.00    +0.020 C 
ENDBRANCH  19  21
ENDBRANCH  16  19
ENDBRANCH  13  16
BRANCH   3  17
ATOM     17  C   UNL     1      22.667   5.523  21.939  0.00  0.00    +0.159 C 
BRANCH  17  20
ATOM      7  N   UNL     1      23.434   3.616  23.389  0.00  0.00    -0.330 N 
ATOM      8  N   UNL     1      23.925   3.469  21.226  0.00  0.00    -0.231 NA
ATOM     20  C   UNL     1      23.350   4.199  22.154  0.00  0.00    +0.125 A 
ATOM     26  C   UNL     1      24.110   2.431  23.247  0.00  0.00    +0.069 A 
ATOM     27  C   UNL     1      24.405   2.363  21.888  0.00  0.00    +0.089 A 
ATOM     28  C   UNL     1      22.908   4.151  24.624  0.00  0.00    +0.150 C 
ATOM     29  C   UNL     1      24.476   1.445  24.162  0.00  0.00    +0.028 A 
ATOM     30  C   UNL     1      25.107   1.249  21.395  0.00  0.00    +0.030 A 
ATOM     31  C   UNL     1      25.173   0.344  23.655  0.00  0.00    +0.002 A 
ATOM     32  C   UNL     1      25.485   0.246  22.296  0.00  0.00    +0.002 A 
ENDBRANCH  17  20
ENDBRANCH   3  17
TORSDOF 5
ENDMDL
MODEL 7
REMARK VINA RESULT:      -6.8     27.556     31.208
REMARK  Name = 45360872
REMARK  7 active torsions:
REMARK  status: ('A' for Active; 'I' for Inactive)
REMARK    1  A    between atoms: N_3  and  C_17
REMARK    2  A    between atoms: N_4  and  C_18
REMARK    3  A    between atoms: N_7  and  C_28
REMARK    4  A    between atoms: C_13  and  C_16
REMARK    5  A    between atoms: C_16  and  C_19
REMARK    6  A    between atoms: C_17  and  C_20
REMARK    7  A    between atoms: C_19  and  C_21
REMARK                            x       y       z     vdW  Elec       q    Type
REMARK                         _______ _______ _______ _____ _____    ______ ____
ROOT
ATOM      1  O   UNL     1      -6.567  -9.403  16.439  0.00  0.00    -0.274 OA
ATOM      3  N   UNL     1      -7.134 -11.843  17.446  0.00  0.00    -0.283 NA
ATOM      4  N   UNL     1     -10.066  -9.741  18.061  0.00  0.00    -0.296 NA
ATOM      5  N   UNL     1      -8.676  -9.019  15.639  0.00  0.00    -0.312 N 
ATOM      9  C   UNL     1      -9.387 -11.040  17.859  0.00  0.00    +0.084 C 
ATOM     10  C   UNL     1      -8.248 -11.125  16.800  0.00  0.00    +0.161 C 
ATOM     11  C   UNL     1      -8.694 -11.587  19.120  0.00  0.00    +0.036 C 
ATOM     12  C   UNL     1      -7.696 -12.584  18.570  0.00  0.00    +0.087 C 
ATOM     13  C   UNL     1     -10.811  -9.243  16.872  0.00  0.00    +0.074 C 
ATOM     14  C   UNL     1      -7.730  -9.778  16.301  0.00  0.00    +0.232 C 
ATOM     15  C   UNL     1     -10.071  -9.397  15.530  0.00  0.00    +0.123 C 
ATOM     18  C   UNL     1     -10.952  -9.792  19.236  0.00  0.00    +0.105 C 
ATOM     33  H   UNL     1      -8.374  -8.148  15.213  0.00  0.00    +0.149 HD
ENDROOT
BRANCH  13  16
ATOM     16  C   UNL     1     -11.160  -7.749  17.040  0.00  0.00    +0.029 C 
BRANCH  16  19
ATOM     19  C   UNL     1     -12.267  -7.314  16.100  0.00  0.00    +0.097 C 
BRANCH  19  21
ATOM      2  O   UNL     1     -10.648  -5.791  15.246  0.00  0.00    -0.276 OA
ATOM      6  N   UNL     1     -12.781  -5.666  14.369  0.00  0.00    -0.301 N 
ATOM     21  C   UNL     1     -11.812  -6.191  15.204  0.00  0.00    +0.216 C 
ATOM     22  C   UNL     1     -12.505  -4.572  13.448  0.00  0.00    +0.108 C 
ATOM     23  C   UNL     1     -14.173  -6.095  14.267  0.00  0.00    +0.108 C 
ATOM     24  C   UNL     1     -13.712  -4.539  12.524  0.00  0.00    +0.020 C 
ATOM     25  C   UNL     1     -14.842  -5.019  13.425  0.00  0.00    +0.020 C 
ENDBRANCH  19  21
ENDBRANCH  16  19
ENDBRANCH  13  16
BRANCH   3  17
ATOM     17  C   UNL     1      -6.396 -12.707  16.533  0.00  0.00    +0.159 C 
BRANCH  17  20
ATOM      7  N   UNL     1      -4.117 -11.699  16.871  0.00  0.00    -0.330 N 
ATOM      8  N   UNL     1      -4.874 -11.742  14.782  0.00  0.00    -0.231 NA
ATOM     20  C   UNL     1      -5.138 -12.049  16.031  0.00  0.00    +0.125 A 
ATOM     26  C   UNL     1      -3.128 -11.127  16.111  0.00  0.00    +0.069 A 
ATOM     27  C   UNL     1      -3.626 -11.166  14.811  0.00  0.00    +0.089 A 
ATOM     28  C   UNL     1      -4.081 -11.894  18.302  0.00  0.00    +0.150 C 
ATOM     29  C   UNL     1      -1.881 -10.596  16.439  0.00  0.00    +0.028 A 
ATOM     30  C   UNL     1      -2.845 -10.649  13.763  0.00  0.00    +0.030 A 
ATOM     31  C   UNL     1      -1.117 -10.087  15.385  0.00  0.00    +0.002 A 
ATOM     32  C   UNL     1      -1.589 -10.110  14.070  0.00  0.00    +0.002 A 
ENDBRANCH  17  20
ENDBRANCH   3  17
TORSDOF 5
ENDMDL
MODEL 8
REMARK VINA RESULT:      -6.7      2.442      4.269
REMARK  Name = 45360872
REMARK  7 active torsions:
REMARK  status: ('A' for Active; 'I' for Inactive)
REMARK    1  A    between atoms: N_3  and  C_17
REMARK    2  A    between atoms: N_4  and  C_18
REMARK    3  A    between atoms: N_7  and  C_28
REMARK    4  A    between atoms: C_13  and  C_16
REMARK    5  A    between atoms: C_16  and  C_19
REMARK    6  A    between atoms: C_17  and  C_20
REMARK    7  A    between atoms: C_19  and  C_21
REMARK                            x       y       z     vdW  Elec       q    Type
REMARK                         _______ _______ _______ _____ _____    ______ ____
ROOT
ATOM      1  O   UNL     1      20.292   6.450  24.057  0.00  0.00    -0.274 OA
ATOM      3  N   UNL     1      21.770   5.594  21.965  0.00  0.00    -0.283 NA
ATOM      4  N   UNL     1      18.433   6.343  20.663  0.00  0.00    -0.296 NA
ATOM      5  N   UNL     1      19.168   8.050  22.869  0.00  0.00    -0.312 N 
ATOM      9  C   UNL     1      19.897   6.171  20.533  0.00  0.00    +0.084 C 
ATOM     10  C   UNL     1      20.808   6.678  21.690  0.00  0.00    +0.161 C 
ATOM     11  C   UNL     1      20.344   4.704  20.392  0.00  0.00    +0.036 C 
ATOM     12  C   UNL     1      21.807   4.743  20.781  0.00  0.00    +0.087 C 
ATOM     13  C   UNL     1      17.981   7.762  20.715  0.00  0.00    +0.074 C 
ATOM     14  C   UNL     1      20.078   7.016  22.987  0.00  0.00    +0.232 C 
ATOM     15  C   UNL     1      18.834   8.682  21.609  0.00  0.00    +0.123 C 
ATOM     18  C   UNL     1      17.724   5.620  19.593  0.00  0.00    +0.105 C 
ATOM     33  H   UNL     1      18.706   8.376  23.713  0.00  0.00    +0.149 HD
ENDROOT
BRANCH  13  16
ATOM     16  C   UNL     1      16.525   7.845  21.220  0.00  0.00    +0.029 C 
BRANCH  16  19
ATOM     19  C   UNL     1      15.631   8.596  20.253  0.00  0.00    +0.097 C 
BRANCH  19  21
ATOM      2  O   UNL     1      14.367   6.579  20.186  0.00  0.00    -0.276 OA
ATOM      6  N   UNL     1      13.750   8.259  18.727  0.00  0.00    -0.301 N 
ATOM     21  C   UNL     1      14.528   7.711  19.730  0.00  0.00    +0.216 C 
ATOM     22  C   UNL     1      12.650   7.530  18.110  0.00  0.00    +0.108 C 
ATOM     23  C   UNL     1      13.885   9.591  18.145  0.00  0.00    +0.108 C 
ATOM     24  C   UNL     1      11.886   8.587  17.327  0.00  0.00    +0.020 C 
ATOM     25  C   UNL     1      12.981   9.565  16.922  0.00  0.00    +0.020 C 
ENDBRANCH  19  21
ENDBRANCH  16  19
ENDBRANCH  13  16
BRANCH   3  17
ATOM     17  C   UNL     1      23.095   6.077  22.335  0.00  0.00    +0.159 C 
BRANCH  17  20
ATOM      7  N   UNL     1      24.686   6.328  20.403  0.00  0.00    -0.330 N 
ATOM      8  N   UNL     1      24.696   4.360  21.438  0.00  0.00    -0.231 NA
ATOM     20  C   UNL     1      24.160   5.560  21.405  0.00  0.00    +0.125 A 
ATOM     26  C   UNL     1      25.623   5.572  19.745  0.00  0.00    +0.069 A 
ATOM     27  C   UNL     1      25.609   4.349  20.410  0.00  0.00    +0.089 A 
ATOM     28  C   UNL     1      24.322   7.691  20.089  0.00  0.00    +0.150 C 
ATOM     29  C   UNL     1      26.454   5.845  18.659  0.00  0.00    +0.028 A 
ATOM     30  C   UNL     1      26.472   3.326  19.980  0.00  0.00    +0.030 A 
ATOM     31  C   UNL     1      27.306   4.817  18.244  0.00  0.00    +0.002 A 
ATOM     32  C   UNL     1      27.316   3.578  18.890  0.00  0.00    +0.002 A 
ENDBRANCH  17  20
ENDBRANCH   3  17
TORSDOF 5
ENDMDL
MODEL 9
REMARK VINA RESULT:      -6.7     28.326     31.962
REMARK  Name = 45360872
REMARK  7 active torsions:
REMARK  status: ('A' for Active; 'I' for Inactive)
REMARK    1  A    between atoms: N_3  and  C_17
REMARK    2  A    between atoms: N_4  and  C_18
REMARK    3  A    between atoms: N_7  and  C_28
REMARK    4  A    between atoms: C_13  and  C_16
REMARK    5  A    between atoms: C_16  and  C_19
REMARK    6  A    between atoms: C_17  and  C_20
REMARK    7  A    between atoms: C_19  and  C_21
REMARK                            x       y       z     vdW  Elec       q    Type
REMARK                         _______ _______ _______ _____ _____    ______ ____
ROOT
ATOM      1  O   UNL     1      -6.337  -9.781  16.764  0.00  0.00    -0.274 OA
ATOM      3  N   UNL     1      -6.579 -12.306  17.689  0.00  0.00    -0.283 NA
ATOM      4  N   UNL     1      -4.141 -12.411  14.962  0.00  0.00    -0.296 NA
ATOM      5  N   UNL     1      -4.082  -9.912  16.403  0.00  0.00    -0.312 N 
ATOM      9  C   UNL     1      -4.755 -12.917  16.209  0.00  0.00    +0.084 C 
ATOM     10  C   UNL     1      -5.228 -11.885  17.275  0.00  0.00    +0.161 C 
ATOM     11  C   UNL     1      -6.028 -13.753  15.985  0.00  0.00    +0.036 C 
ATOM     12  C   UNL     1      -6.718 -13.714  17.333  0.00  0.00    +0.087 C 
ATOM     13  C   UNL     1      -2.863 -11.673  15.159  0.00  0.00    +0.074 C 
ATOM     14  C   UNL     1      -5.300 -10.440  16.787  0.00  0.00    +0.232 C 
ATOM     15  C   UNL     1      -2.858 -10.686  16.343  0.00  0.00    +0.123 C 
ATOM     18  C   UNL     1      -3.957 -13.501  13.989  0.00  0.00    +0.105 C 
ATOM     33  H   UNL     1      -4.049  -8.931  16.143  0.00  0.00    +0.149 HD
ENDROOT
BRANCH  13  16
ATOM     16  C   UNL     1      -2.500 -10.874  13.889  0.00  0.00    +0.029 C 
BRANCH  16  19
ATOM     19  C   UNL     1      -3.728 -10.506  13.079  0.00  0.00    +0.097 C 
BRANCH  19  21
ATOM      2  O   UNL     1      -2.750 -11.673  11.248  0.00  0.00    -0.276 OA
ATOM      6  N   UNL     1      -4.224  -9.967  10.746  0.00  0.00    -0.301 N 
ATOM     21  C   UNL     1      -3.516 -10.780  11.612  0.00  0.00    +0.216 C 
ATOM     22  C   UNL     1      -4.124 -10.098   9.300  0.00  0.00    +0.108 C 
ATOM     23  C   UNL     1      -5.148  -8.897  11.111  0.00  0.00    +0.108 C 
ATOM     24  C   UNL     1      -5.279  -9.266   8.762  0.00  0.00    +0.020 C 
ATOM     25  C   UNL     1      -5.417  -8.165   9.805  0.00  0.00    +0.020 C 
ENDBRANCH  19  21
ENDBRANCH  16  19
ENDBRANCH  13  16
BRANCH   3  17
ATOM     17  C   UNL     1      -6.852 -12.068  19.101  0.00  0.00    +0.159 C 
BRANCH  17  20
ATOM      7  N   UNL     1      -9.161 -12.544  19.979  0.00  0.00    -0.330 N 
ATOM      8  N   UNL     1      -8.872 -10.578  18.982  0.00  0.00    -0.231 NA
ATOM     20  C   UNL     1      -8.293 -11.701  19.340  0.00  0.00    +0.125 A 
ATOM     26  C   UNL     1     -10.382 -11.922  20.035  0.00  0.00    +0.069 A 
ATOM     27  C   UNL     1     -10.175 -10.697  19.407  0.00  0.00    +0.089 A 
ATOM     28  C   UNL     1      -8.851 -13.855  20.501  0.00  0.00    +0.150 C 
ATOM     29  C   UNL     1     -11.610 -12.313  20.566  0.00  0.00    +0.028 A 
ATOM     30  C   UNL     1     -11.248  -9.796  19.293  0.00  0.00    +0.030 A 
ATOM     31  C   UNL     1     -12.666 -11.405  20.445  0.00  0.00    +0.002 A 
ATOM     32  C   UNL     1     -12.491 -10.169  19.819  0.00  0.00    +0.002 A 
ENDBRANCH  17  20
ENDBRANCH   3  17
TORSDOF 5
ENDMDL
MODEL 10
REMARK VINA RESULT:      -6.6     28.828     31.771
REMARK  Name = 45360872
REMARK  7 active torsions:
REMARK  status: ('A' for Active; 'I' for Inactive)
REMARK    1  A    between atoms: N_3  and  C_17
REMARK    2  A    between atoms: N_4  and  C_18
REMARK    3  A    between atoms: N_7  and  C_28
REMARK    4  A    between atoms: C_13  and  C_16
REMARK    5  A    between atoms: C_16  and  C_19
REMARK    6  A    between atoms: C_17  and  C_20
REMARK    7  A    between atoms: C_19  and  C_21
REMARK                            x       y       z     vdW  Elec       q    Type
REMARK                         _______ _______ _______ _____ _____    ______ ____
ROOT
ATOM      1  O   UNL     1      -7.163  -9.292  11.934  0.00  0.00    -0.274 OA
ATOM      3  N   UNL     1      -5.742  -9.228   9.639  0.00  0.00    -0.283 NA
ATOM      4  N   UNL     1      -3.577 -10.730  12.179  0.00  0.00    -0.296 NA
ATOM      5  N   UNL     1      -6.366 -11.328  12.609  0.00  0.00    -0.312 N 
ATOM      9  C   UNL     1      -4.020 -10.497  10.786  0.00  0.00    +0.084 C 
ATOM     10  C   UNL     1      -5.548 -10.411  10.499  0.00  0.00    +0.161 C 
ATOM     11  C   UNL     1      -3.504  -9.179  10.179  0.00  0.00    +0.036 C 
ATOM     12  C   UNL     1      -4.453  -8.927   9.026  0.00  0.00    +0.087 C 
ATOM     13  C   UNL     1      -3.999 -12.040  12.748  0.00  0.00    +0.074 C 
ATOM     14  C   UNL     1      -6.430 -10.259  11.735  0.00  0.00    +0.232 C 
ATOM     15  C   UNL     1      -5.455 -12.442  12.444  0.00  0.00    +0.123 C 
ATOM     18  C   UNL     1      -2.118 -10.566  12.298  0.00  0.00    +0.105 C 
ATOM     33  H   UNL     1      -6.988 -11.325  13.411  0.00  0.00    +0.149 HD
ENDROOT
BRANCH  13  16
ATOM     16  C   UNL     1      -3.829 -12.041  14.282  0.00  0.00    +0.029 C 
BRANCH  16  19
ATOM     19  C   UNL     1      -3.814 -10.636  14.853  0.00  0.00    +0.097 C 
BRANCH  19  21
ATOM      2  O   UNL     1      -5.995  -9.737  15.175  0.00  0.00    -0.276 OA
ATOM      6  N   UNL     1      -5.041 -10.854  16.957  0.00  0.00    -0.301 N 
ATOM     21  C   UNL     1      -5.055 -10.364  15.664  0.00  0.00    +0.216 C 
ATOM     22  C   UNL     1      -6.158 -10.668  17.871  0.00  0.00    +0.108 C 
ATOM     23  C   UNL     1      -3.963 -11.605  17.595  0.00  0.00    +0.108 C 
ATOM     24  C   UNL     1      -5.869 -11.618  19.023  0.00  0.00    +0.020 C 
ATOM     25  C   UNL     1      -4.347 -11.645  19.067  0.00  0.00    +0.020 C 
ENDBRANCH  19  21
ENDBRANCH  16  19
ENDBRANCH  13  16
BRANCH   3  17
ATOM     17  C   UNL     1      -6.795  -9.401   8.647  0.00  0.00    +0.159 C 
BRANCH  17  20
ATOM      7  N   UNL     1      -9.102  -8.550   9.179  0.00  0.00    -0.330 N 
ATOM      8  N   UNL     1      -7.653  -7.052   8.403  0.00  0.00    -0.231 NA
ATOM     20  C   UNL     1      -7.831  -8.312   8.731  0.00  0.00    +0.125 A 
ATOM     26  C   UNL     1      -9.789  -7.364   9.134  0.00  0.00    +0.069 A 
ATOM     27  C   UNL     1      -8.863  -6.446   8.646  0.00  0.00    +0.089 A 
ATOM     28  C   UNL     1      -9.629  -9.821   9.619  0.00  0.00    +0.150 C 
ATOM     29  C   UNL     1     -11.101  -7.027   9.468  0.00  0.00    +0.028 A 
ATOM     30  C   UNL     1      -9.253  -5.106   8.476  0.00  0.00    +0.030 A 
ATOM     31  C   UNL     1     -11.471  -5.690   9.293  0.00  0.00    +0.002 A 
ATOM     32  C   UNL     1     -10.566  -4.745   8.805  0.00  0.00    +0.002 A 
ENDBRANCH  17  20
ENDBRANCH   3  17
TORSDOF 5
ENDMDL
