REMARK  Name = 45783563
REMARK  8 active torsions:
REMARK  status: ('A' for Active; 'I' for Inactive)
REMARK    1  A    between atoms: O_3  and  C_24
REMARK    2  A    between atoms: O_3  and  C_25
REMARK    3  A    between atoms: O_4  and  C_26
REMARK    4  A    between atoms: O_4  and  C_27
REMARK    5  A    between atoms: N_5  and  C_9
REMARK    6  A    between atoms: C_10  and  C_18
REMARK    7  A    between atoms: C_19  and  C_20
REMARK    8  A    between atoms: C_25  and  C_26
REMARK                            x       y       z     vdW  Elec       q    Type
REMARK                         _______ _______ _______ _____ _____    ______ ____
ROOT
ATOM      2  O   UNL     1      -1.698   1.897  -1.738  0.00  0.00    -0.336 OA
ATOM      6  N   UNL     1      -1.065   0.832   0.128  0.00  0.00    -0.190 NA
ATOM      7  N   UNL     1      -0.324   1.665  -1.870  0.00  0.00    -0.056 NA
ATOM     18  C   UNL     1      -2.054   1.377  -0.534  0.00  0.00    +0.245 A 
ATOM     19  C   UNL     1      -0.024   1.033  -0.731  0.00  0.00    +0.204 A 
ENDROOT
BRANCH  19  20
ATOM      8  N   UNL     1       3.627   0.409  -1.071  0.00  0.00    -0.221 NA
ATOM     20  C   UNL     1       1.305   0.592  -0.420  0.00  0.00    +0.041 A 
ATOM     21  C   UNL     1       1.581  -0.062   0.776  0.00  0.00    +0.018 A 
ATOM     22  C   UNL     1       2.353   0.801  -1.302  0.00  0.00    +0.126 A 
ATOM     23  C   UNL     1       2.879  -0.479   1.050  0.00  0.00    +0.068 A 
ATOM     24  C   UNL     1       3.857  -0.223   0.102  0.00  0.00    +0.215 A 
BRANCH  24   3
ATOM      3  O   UNL     1       5.143  -0.625   0.349  0.00  0.00    -0.474 OA
BRANCH   3  25
ATOM     25  C   UNL     1       6.108  -0.336  -0.656  0.00  0.00    +0.258 C 
BRANCH  25  26
ATOM     26  C   UNL     1       7.465  -0.832  -0.197  0.00  0.00    +0.200 C 
BRANCH  26   4
ATOM      4  O   UNL     1       7.824  -0.156   1.003  0.00  0.00    -0.380 OA
ATOM     27  C   UNL     1       9.082  -0.599   1.493  0.00  0.00    +0.194 C 
ENDBRANCH  26   4
ENDBRANCH  25  26
ENDBRANCH   3  25
ENDBRANCH  24   3
ENDBRANCH  19  20
BRANCH  18  10
ATOM      5  N   UNL     1      -3.953   0.430   0.766  0.00  0.00    -0.288 NA
ATOM     10  C   UNL     1      -3.514   1.502  -0.150  0.00  0.00    +0.146 C 
ATOM     11  C   UNL     1      -5.028   0.997   1.580  0.00  0.00    +0.085 C 
ATOM     12  C   UNL     1      -3.820   2.809   0.603  0.00  0.00    +0.030 C 
ATOM     13  C   UNL     1      -4.485   2.374   1.901  0.00  0.00    +0.017 C 
BRANCH   5   9
ATOM      1  O   UNL     1      -4.024  -3.606  -0.390  0.00  0.00    -0.380 OA
ATOM      9  C   UNL     1      -4.372  -0.785   0.071  0.00  0.00    +0.062 C 
ATOM     14  C   UNL     1      -4.861  -1.846   1.062  0.00  0.00    +0.047 C 
ATOM     15  C   UNL     1      -3.219  -1.344  -0.767  0.00  0.00    +0.047 C 
ATOM     16  C   UNL     1      -5.167  -3.150   0.335  0.00  0.00    +0.161 C 
ATOM     17  C   UNL     1      -3.616  -2.676  -1.393  0.00  0.00    +0.161 C 
ENDBRANCH   5   9
ENDBRANCH  18  10
TORSDOF 7
