REMARK  Name = 40587841
REMARK  7 active torsions:
REMARK  status: ('A' for Active; 'I' for Inactive)
REMARK    1  A    between atoms: N_5  and  C_17
REMARK    2  A    between atoms: N_6  and  C_18
REMARK    3  A    between atoms: C_7  and  C_13
REMARK    4  A    between atoms: C_8  and  C_12
REMARK    5  A    between atoms: C_12  and  C_14
REMARK    6  A    between atoms: C_13  and  C_16
REMARK    7  A    between atoms: C_17  and  C_19
REMARK                            x       y       z     vdW  Elec       q    Type
REMARK                         _______ _______ _______ _____ _____    ______ ____
ROOT
ATOM      1  O   UNL     1       2.959  -1.618  -1.720  0.00  0.00    -0.252 OA
ATOM      4  N   UNL     1       1.713   0.310  -1.448  0.00  0.00    -0.285 N 
ATOM      6  N   UNL     1       3.981   0.253  -0.803  0.00  0.00    -0.269 N 
ATOM      7  C   UNL     1      -0.866   1.214  -0.496  0.00  0.00    +0.004 C 
ATOM      8  C   UNL     1       0.448   1.874   0.000  0.00  0.00    +0.010 C 
ATOM      9  C   UNL     1      -0.636  -0.232  -0.970  0.00  0.00    +0.023 C 
ATOM     10  C   UNL     1       1.538   1.721  -1.074  0.00  0.00    +0.113 C 
ATOM     11  C   UNL     1       0.503  -0.316  -1.984  0.00  0.00    +0.109 C 
ATOM     15  C   UNL     1       2.905  -0.440  -1.358  0.00  0.00    +0.306 C 
ATOM     29  H   UNL     1       4.022   1.258  -0.924  0.00  0.00    +0.156 HD
ENDROOT
BRANCH   6  18
ATOM     18  C   UNL     1       5.057  -0.287  -0.056  0.00  0.00    +0.035 A 
ATOM     20  C   UNL     1       6.059   0.553   0.429  0.00  0.00    +0.023 A 
ATOM     21  C   UNL     1       5.114  -1.658   0.194  0.00  0.00    +0.023 A 
ATOM     23  C   UNL     1       7.119   0.021   1.165  0.00  0.00    +0.002 A 
ATOM     24  C   UNL     1       6.174  -2.189   0.929  0.00  0.00    +0.002 A 
ATOM     25  C   UNL     1       7.176  -1.350   1.415  0.00  0.00    +0.000 A 
ENDBRANCH   6  18
BRANCH   8  12
ATOM     12  C   UNL     1       0.945   1.339   1.348  0.00  0.00    +0.002 C 
ATOM     14  C   UNL     1       2.218   2.037   1.778  0.00  0.00    +0.004 C 
ENDBRANCH   8  12
BRANCH   7  13
ATOM     13  C   UNL     1      -1.993   1.272   0.534  0.00  0.00    +0.099 C 
BRANCH  13  16
ATOM      2  O   UNL     1      -3.536   1.036  -1.315  0.00  0.00    -0.276 OA
ATOM      5  N   UNL     1      -4.365   1.184   0.851  0.00  0.00    -0.308 N 
ATOM     16  C   UNL     1      -3.360   1.149  -0.104  0.00  0.00    +0.214 C 
ATOM     28  H   UNL     1      -4.113   1.264   1.833  0.00  0.00    +0.149 HD
BRANCH   5  17
ATOM     17  C   UNL     1      -5.769   1.089   0.524  0.00  0.00    +0.178 C 
BRANCH  17  19
ATOM      3  O   UNL     1      -6.778  -0.820  -0.593  0.00  0.00    -0.466 OA
ATOM     19  C   UNL     1      -6.260  -0.329   0.564  0.00  0.00    +0.122 A 
ATOM     22  C   UNL     1      -6.303  -1.282   1.555  0.00  0.00    +0.046 A 
ATOM     26  C   UNL     1      -6.885  -2.432   0.970  0.00  0.00    +0.041 A 
ATOM     27  C   UNL     1      -7.156  -2.100  -0.337  0.00  0.00    +0.195 A 
ENDBRANCH  17  19
ENDBRANCH   5  17
ENDBRANCH  13  16
ENDBRANCH   7  13
TORSDOF 6
