MODEL 1
REMARK VINA RESULT:      -6.7      0.000      0.000
REMARK  Name = 40779644
REMARK  6 active torsions:
REMARK  status: ('A' for Active; 'I' for Inactive)
REMARK    1  A    between atoms: N_6  and  C_15
REMARK    2  A    between atoms: N_7  and  C_16
REMARK    3  A    between atoms: C_9  and  C_15
REMARK    4  A    between atoms: C_10  and  C_16
REMARK    5  A    between atoms: C_21  and  C_22
REMARK    6  A    between atoms: C_27  and  C_28
REMARK                            x       y       z     vdW  Elec       q    Type
REMARK                         _______ _______ _______ _____ _____    ______ ____
ROOT
ATOM     16  C   UNL     1      13.555   7.066   2.406  0.00  0.00    +0.123 C 
ENDROOT
BRANCH  16  10
ATOM      5  N   UNL     1      14.679   6.106   0.379  0.00  0.00    -0.298 NA
ATOM      8  C   UNL     1      13.871   3.679   0.847  0.00  0.00    -0.003 C 
ATOM      9  C   UNL     1      13.036   4.330  -0.278  0.00  0.00    +0.020 C 
ATOM     10  C   UNL     1      14.406   5.931   1.830  0.00  0.00    +0.074 C 
ATOM     11  C   UNL     1      13.784   4.546   2.115  0.00  0.00    +0.024 C 
ATOM     12  C   UNL     1      13.461   5.810  -0.413  0.00  0.00    +0.089 C 
ATOM     13  C   UNL     1      15.340   3.697   0.381  0.00  0.00    +0.019 C 
ATOM     14  C   UNL     1      15.729   5.134  -0.009  0.00  0.00    +0.085 C 
BRANCH   9  15
ATOM     15  C   UNL     1      11.529   4.194  -0.067  0.00  0.00    +0.089 C 
BRANCH  15   6
ATOM      6  N   UNL     1      10.892   3.584  -1.224  0.00  0.00    -0.302 NA
ATOM     17  C   UNL     1      10.319   4.574  -2.134  0.00  0.00    +0.084 C 
ATOM     18  C   UNL     1      11.834   2.817  -2.040  0.00  0.00    +0.084 C 
ATOM     19  C   UNL     1      10.077   3.772  -3.404  0.00  0.00    +0.017 C 
ATOM     20  C   UNL     1      11.070   2.615  -3.340  0.00  0.00    +0.017 C 
ENDBRANCH  15   6
ENDBRANCH   9  15
ENDBRANCH  16  10
BRANCH  16   7
ATOM      4  O   UNL     1      10.736   6.954   2.939  0.00  0.00    -0.270 OA
ATOM      7  N   UNL     1      12.934   6.667   3.630  0.00  0.00    -0.310 N 
ATOM     21  C   UNL     1      11.551   6.642   3.804  0.00  0.00    +0.244 C 
ATOM     29  H   UNL     1      13.550   6.455   4.406  0.00  0.00    +0.149 HD
BRANCH  21  22
ATOM     22  C   UNL     1      11.063   6.229   5.146  0.00  0.00    +0.037 A 
ATOM     23  C   UNL     1       9.972   5.366   5.256  0.00  0.00    +0.013 A 
ATOM     24  C   UNL     1      11.694   6.703   6.295  0.00  0.00    +0.013 A 
ATOM     25  C   UNL     1       9.513   4.979   6.515  0.00  0.00    +0.013 A 
ATOM     26  C   UNL     1      11.236   6.316   7.554  0.00  0.00    +0.013 A 
ATOM     27  C   UNL     1      10.145   5.454   7.663  0.00  0.00    +0.055 A 
BRANCH  27  28
ATOM      1  F   UNL     1      10.578   5.207  10.003  0.00  0.00    -0.166 F 
ATOM      2  F   UNL     1       9.302   3.723   9.057  0.00  0.00    -0.166 F 
ATOM      3  F   UNL     1       8.552   5.730   9.427  0.00  0.00    -0.166 F 
ATOM     28  C   UNL     1       9.655   5.040   9.010  0.00  0.00    +0.417 C 
ENDBRANCH  27  28
ENDBRANCH  21  22
ENDBRANCH  16   7
TORSDOF 6
ENDMDL
MODEL 2
REMARK VINA RESULT:      -6.7     34.867     38.596
REMARK  Name = 40779644
REMARK  6 active torsions:
REMARK  status: ('A' for Active; 'I' for Inactive)
REMARK    1  A    between atoms: N_6  and  C_15
REMARK    2  A    between atoms: N_7  and  C_16
REMARK    3  A    between atoms: C_9  and  C_15
REMARK    4  A    between atoms: C_10  and  C_16
REMARK    5  A    between atoms: C_21  and  C_22
REMARK    6  A    between atoms: C_27  and  C_28
REMARK                            x       y       z     vdW  Elec       q    Type
REMARK                         _______ _______ _______ _____ _____    ______ ____
ROOT
ATOM     16  C   UNL     1     -14.228   7.895  33.466  0.00  0.00    +0.123 C 
ENDROOT
BRANCH  16  10
ATOM      5  N   UNL     1     -12.617   9.790  33.790  0.00  0.00    -0.298 NA
ATOM      8  C   UNL     1     -11.166   9.160  31.726  0.00  0.00    -0.003 C 
ATOM      9  C   UNL     1     -12.078  10.366  31.410  0.00  0.00    +0.020 C 
ATOM     10  C   UNL     1     -12.764   8.341  33.488  0.00  0.00    +0.074 C 
ATOM     11  C   UNL     1     -12.032   7.970  32.179  0.00  0.00    +0.024 C 
ATOM     12  C   UNL     1     -13.016  10.604  32.616  0.00  0.00    +0.089 C 
ATOM     13  C   UNL     1     -10.285   9.565  32.923  0.00  0.00    +0.019 C 
ATOM     14  C   UNL     1     -11.185  10.055  34.071  0.00  0.00    +0.085 C 
BRANCH   9  15
ATOM     15  C   UNL     1     -12.864  10.206  30.110  0.00  0.00    +0.089 C 
BRANCH  15   6
ATOM      6  N   UNL     1     -12.172  10.842  29.000  0.00  0.00    -0.302 NA
ATOM     17  C   UNL     1     -11.298   9.917  28.281  0.00  0.00    +0.084 C 
ATOM     18  C   UNL     1     -13.096  11.356  27.988  0.00  0.00    +0.084 C 
ATOM     19  C   UNL     1     -11.007  10.658  26.985  0.00  0.00    +0.017 C 
ATOM     20  C   UNL     1     -12.186  11.607  26.795  0.00  0.00    +0.017 C 
ENDBRANCH  15   6
ENDBRANCH   9  15
ENDBRANCH  16  10
BRANCH  16   7
ATOM      4  O   UNL     1     -13.964   5.450  34.950  0.00  0.00    -0.270 OA
ATOM      7  N   UNL     1     -14.349   6.566  32.951  0.00  0.00    -0.310 N 
ATOM     21  C   UNL     1     -14.205   5.430  33.745  0.00  0.00    +0.244 C 
ATOM     29  H   UNL     1     -14.487   6.476  31.951  0.00  0.00    +0.149 HD
BRANCH  21  22
ATOM     22  C   UNL     1     -14.333   4.121  33.053  0.00  0.00    +0.037 A 
ATOM     23  C   UNL     1     -14.046   4.021  31.692  0.00  0.00    +0.013 A 
ATOM     24  C   UNL     1     -14.740   2.993  33.764  0.00  0.00    +0.013 A 
ATOM     25  C   UNL     1     -14.167   2.793  31.041  0.00  0.00    +0.013 A 
ATOM     26  C   UNL     1     -14.861   1.765  33.114  0.00  0.00    +0.013 A 
ATOM     27  C   UNL     1     -14.575   1.665  31.753  0.00  0.00    +0.055 A 
BRANCH  27  28
ATOM      1  F   UNL     1     -14.955  -0.692  31.904  0.00  0.00    -0.166 F 
ATOM      2  F   UNL     1     -13.574   0.005  30.377  0.00  0.00    -0.166 F 
ATOM      3  F   UNL     1     -15.712   0.315  30.138  0.00  0.00    -0.166 F 
ATOM     28  C   UNL     1     -14.704   0.352  31.059  0.00  0.00    +0.417 C 
ENDBRANCH  27  28
ENDBRANCH  21  22
ENDBRANCH  16   7
TORSDOF 6
ENDMDL
MODEL 3
REMARK VINA RESULT:      -6.6     28.695     31.764
REMARK  Name = 40779644
REMARK  6 active torsions:
REMARK  status: ('A' for Active; 'I' for Inactive)
REMARK    1  A    between atoms: N_6  and  C_15
REMARK    2  A    between atoms: N_7  and  C_16
REMARK    3  A    between atoms: C_9  and  C_15
REMARK    4  A    between atoms: C_10  and  C_16
REMARK    5  A    between atoms: C_21  and  C_22
REMARK    6  A    between atoms: C_27  and  C_28
REMARK                            x       y       z     vdW  Elec       q    Type
REMARK                         _______ _______ _______ _____ _____    ______ ____
ROOT
ATOM     16  C   UNL     1     -12.302  11.670  19.676  0.00  0.00    +0.123 C 
ENDROOT
BRANCH  16  10
ATOM      5  N   UNL     1     -12.753   9.743  18.135  0.00  0.00    -0.298 NA
ATOM      8  C   UNL     1     -11.092   8.145  19.341  0.00  0.00    -0.003 C 
ATOM      9  C   UNL     1     -12.552   7.811  19.721  0.00  0.00    +0.020 C 
ATOM     10  C   UNL     1     -11.709  10.532  18.842  0.00  0.00    +0.074 C 
ATOM     11  C   UNL     1     -10.797   9.616  19.688  0.00  0.00    +0.024 C 
ATOM     12  C   UNL     1     -13.480   8.877  19.094  0.00  0.00    +0.089 C 
ATOM     13  C   UNL     1     -10.986   8.008  17.810  0.00  0.00    +0.019 C 
ATOM     14  C   UNL     1     -12.075   8.870  17.147  0.00  0.00    +0.085 C 
BRANCH   9  15
ATOM     15  C   UNL     1     -12.770   7.691  21.228  0.00  0.00    +0.089 C 
BRANCH  15   6
ATOM      6  N   UNL     1     -13.875   6.792  21.526  0.00  0.00    -0.302 NA
ATOM     17  C   UNL     1     -13.420   5.477  21.975  0.00  0.00    +0.084 C 
ATOM     18  C   UNL     1     -14.724   7.291  22.607  0.00  0.00    +0.084 C 
ATOM     19  C   UNL     1     -14.675   4.871  22.585  0.00  0.00    +0.017 C 
ATOM     20  C   UNL     1     -15.534   6.063  22.996  0.00  0.00    +0.017 C 
ENDBRANCH  15   6
ENDBRANCH   9  15
ENDBRANCH  16  10
BRANCH  16   7
ATOM      4  O   UNL     1     -14.377  11.347  21.634  0.00  0.00    -0.270 OA
ATOM      7  N   UNL     1     -12.125  11.424  21.074  0.00  0.00    -0.310 N 
ATOM     21  C   UNL     1     -13.193  11.280  21.958  0.00  0.00    +0.244 C 
ATOM     29  H   UNL     1     -11.172  11.417  21.418  0.00  0.00    +0.149 HD
BRANCH  21  22
ATOM     22  C   UNL     1     -12.843  11.054  23.384  0.00  0.00    +0.037 A 
ATOM     23  C   UNL     1     -11.600  11.461  23.870  0.00  0.00    +0.013 A 
ATOM     24  C   UNL     1     -13.755  10.435  24.238  0.00  0.00    +0.013 A 
ATOM     25  C   UNL     1     -11.270  11.249  25.208  0.00  0.00    +0.013 A 
ATOM     26  C   UNL     1     -13.426  10.224  25.576  0.00  0.00    +0.013 A 
ATOM     27  C   UNL     1     -12.183  10.630  26.061  0.00  0.00    +0.055 A 
BRANCH  27  28
ATOM      1  F   UNL     1     -11.129  11.430  28.054  0.00  0.00    -0.166 F 
ATOM      2  F   UNL     1     -11.061   9.291  27.673  0.00  0.00    -0.166 F 
ATOM      3  F   UNL     1     -12.918  10.229  28.302  0.00  0.00    -0.166 F 
ATOM     28  C   UNL     1     -11.832  10.403  27.492  0.00  0.00    +0.417 C 
ENDBRANCH  27  28
ENDBRANCH  21  22
ENDBRANCH  16   7
TORSDOF 6
ENDMDL
MODEL 4
REMARK VINA RESULT:      -6.6     23.817     27.698
REMARK  Name = 40779644
REMARK  6 active torsions:
REMARK  status: ('A' for Active; 'I' for Inactive)
REMARK    1  A    between atoms: N_6  and  C_15
REMARK    2  A    between atoms: N_7  and  C_16
REMARK    3  A    between atoms: C_9  and  C_15
REMARK    4  A    between atoms: C_10  and  C_16
REMARK    5  A    between atoms: C_21  and  C_22
REMARK    6  A    between atoms: C_27  and  C_28
REMARK                            x       y       z     vdW  Elec       q    Type
REMARK                         _______ _______ _______ _____ _____    ______ ____
ROOT
ATOM     16  C   UNL     1      -4.957 -13.492  16.831  0.00  0.00    +0.123 C 
ENDROOT
BRANCH  16  10
ATOM      5  N   UNL     1      -6.678 -12.792  18.518  0.00  0.00    -0.298 NA
ATOM      8  C   UNL     1      -6.097 -10.263  18.341  0.00  0.00    -0.003 C 
ATOM      9  C   UNL     1      -7.398 -10.585  17.572  0.00  0.00    +0.020 C 
ATOM     10  C   UNL     1      -5.276 -12.623  18.051  0.00  0.00    +0.074 C 
ATOM     11  C   UNL     1      -4.952 -11.134  17.794  0.00  0.00    +0.024 C 
ATOM     12  C   UNL     1      -7.615 -12.115  17.589  0.00  0.00    +0.089 C 
ATOM     13  C   UNL     1      -6.329 -10.681  19.806  0.00  0.00    +0.019 C 
ATOM     14  C   UNL     1      -6.797 -12.146  19.847  0.00  0.00    +0.085 C 
BRANCH   9  15
ATOM     15  C   UNL     1      -7.411 -10.030  16.149  0.00  0.00    +0.089 C 
BRANCH  15   6
ATOM      6  N   UNL     1      -8.338  -8.916  16.030  0.00  0.00    -0.302 NA
ATOM     17  C   UNL     1      -9.371  -9.153  15.022  0.00  0.00    +0.084 C 
ATOM     18  C   UNL     1      -9.070  -8.664  17.272  0.00  0.00    +0.084 C 
ATOM     19  C   UNL     1     -10.410  -8.088  15.341  0.00  0.00    +0.017 C 
ATOM     20  C   UNL     1     -10.209  -7.764  16.818  0.00  0.00    +0.017 C 
ENDBRANCH  15   6
ENDBRANCH   9  15
ENDBRANCH  16  10
BRANCH  16   7
ATOM      4  O   UNL     1      -3.098 -14.012  14.705  0.00  0.00    -0.270 OA
ATOM      7  N   UNL     1      -4.738 -12.683  15.672  0.00  0.00    -0.310 N 
ATOM     21  C   UNL     1      -3.811 -13.012  14.684  0.00  0.00    +0.244 C 
ATOM     29  H   UNL     1      -5.251 -11.811  15.621  0.00  0.00    +0.149 HD
BRANCH  21  22
ATOM     22  C   UNL     1      -3.684 -12.054  13.555  0.00  0.00    +0.037 A 
ATOM     23  C   UNL     1      -2.470 -11.932  12.878  0.00  0.00    +0.013 A 
ATOM     24  C   UNL     1      -4.778 -11.279  13.171  0.00  0.00    +0.013 A 
ATOM     25  C   UNL     1      -2.350 -11.032  11.818  0.00  0.00    +0.013 A 
ATOM     26  C   UNL     1      -4.658 -10.380  12.111  0.00  0.00    +0.013 A 
ATOM     27  C   UNL     1      -3.444 -10.257  11.436  0.00  0.00    +0.055 A 
BRANCH  27  28
ATOM      1  F   UNL     1      -4.136  -8.208  10.413  0.00  0.00    -0.166 F 
ATOM      2  F   UNL     1      -3.622  -9.861   9.099  0.00  0.00    -0.166 F 
ATOM      3  F   UNL     1      -2.059  -8.782  10.158  0.00  0.00    -0.166 F 
ATOM     28  C   UNL     1      -3.317  -9.295  10.303  0.00  0.00    +0.417 C 
ENDBRANCH  27  28
ENDBRANCH  21  22
ENDBRANCH  16   7
TORSDOF 6
ENDMDL
MODEL 5
REMARK VINA RESULT:      -6.4      5.695      7.803
REMARK  Name = 40779644
REMARK  6 active torsions:
REMARK  status: ('A' for Active; 'I' for Inactive)
REMARK    1  A    between atoms: N_6  and  C_15
REMARK    2  A    between atoms: N_7  and  C_16
REMARK    3  A    between atoms: C_9  and  C_15
REMARK    4  A    between atoms: C_10  and  C_16
REMARK    5  A    between atoms: C_21  and  C_22
REMARK    6  A    between atoms: C_27  and  C_28
REMARK                            x       y       z     vdW  Elec       q    Type
REMARK                         _______ _______ _______ _____ _____    ______ ____
ROOT
ATOM     16  C   UNL     1       8.551   8.697   6.560  0.00  0.00    +0.123 C 
ENDROOT
BRANCH  16  10
ATOM      5  N   UNL     1      10.174   7.035   7.506  0.00  0.00    -0.298 NA
ATOM      8  C   UNL     1       9.708   5.250   5.672  0.00  0.00    -0.003 C 
ATOM      9  C   UNL     1      11.046   5.976   5.407  0.00  0.00    +0.020 C 
ATOM     10  C   UNL     1       8.817   7.236   6.933  0.00  0.00    +0.074 C 
ATOM     11  C   UNL     1       8.570   6.285   5.740  0.00  0.00    +0.024 C 
ATOM     12  C   UNL     1      11.201   7.117   6.439  0.00  0.00    +0.089 C 
ATOM     13  C   UNL     1       9.819   4.602   7.065  0.00  0.00    +0.019 C 
ATOM     14  C   UNL     1      10.225   5.673   8.092  0.00  0.00    +0.085 C 
BRANCH   9  15
ATOM     15  C   UNL     1      11.181   6.490   3.975  0.00  0.00    +0.089 C 
BRANCH  15   6
ATOM      6  N   UNL     1      10.764   5.480   3.015  0.00  0.00    -0.302 NA
ATOM     17  C   UNL     1      10.030   6.049   1.886  0.00  0.00    +0.084 C 
ATOM     18  C   UNL     1      11.899   4.778   2.416  0.00  0.00    +0.084 C 
ATOM     19  C   UNL     1      10.048   4.923   0.863  0.00  0.00    +0.017 C 
ATOM     20  C   UNL     1      11.274   4.085   1.214  0.00  0.00    +0.017 C 
ENDBRANCH  15   6
ENDBRANCH   9  15
ENDBRANCH  16  10
BRANCH  16   7
ATOM      4  O   UNL     1       7.878  11.094   5.130  0.00  0.00    -0.270 OA
ATOM      7  N   UNL     1       7.791   8.785   5.352  0.00  0.00    -0.310 N 
ATOM     21  C   UNL     1       7.509   9.995   4.722  0.00  0.00    +0.244 C 
ATOM     29  H   UNL     1       7.403   7.920   4.993  0.00  0.00    +0.149 HD
BRANCH  21  22
ATOM     22  C   UNL     1       6.684   9.920   3.488  0.00  0.00    +0.037 A 
ATOM     23  C   UNL     1       5.341  10.294   3.523  0.00  0.00    +0.013 A 
ATOM     24  C   UNL     1       7.253   9.475   2.294  0.00  0.00    +0.013 A 
ATOM     25  C   UNL     1       4.566  10.223   2.365  0.00  0.00    +0.013 A 
ATOM     26  C   UNL     1       6.478   9.404   1.137  0.00  0.00    +0.013 A 
ATOM     27  C   UNL     1       5.135   9.778   1.172  0.00  0.00    +0.055 A 
BRANCH  27  28
ATOM      1  F   UNL     1       4.370   8.489  -0.692  0.00  0.00    -0.166 F 
ATOM      2  F   UNL     1       4.686  10.616  -1.006  0.00  0.00    -0.166 F 
ATOM      3  F   UNL     1       2.978   9.925   0.149  0.00  0.00    -0.166 F 
ATOM     28  C   UNL     1       4.308   9.701  -0.066  0.00  0.00    +0.417 C 
ENDBRANCH  27  28
ENDBRANCH  21  22
ENDBRANCH  16   7
TORSDOF 6
ENDMDL
MODEL 6
REMARK VINA RESULT:      -6.4     23.452     25.193
REMARK  Name = 40779644
REMARK  6 active torsions:
REMARK  status: ('A' for Active; 'I' for Inactive)
REMARK    1  A    between atoms: N_6  and  C_15
REMARK    2  A    between atoms: N_7  and  C_16
REMARK    3  A    between atoms: C_9  and  C_15
REMARK    4  A    between atoms: C_10  and  C_16
REMARK    5  A    between atoms: C_21  and  C_22
REMARK    6  A    between atoms: C_27  and  C_28
REMARK                            x       y       z     vdW  Elec       q    Type
REMARK                         _______ _______ _______ _____ _____    ______ ____
ROOT
ATOM     16  C   UNL     1      -3.895 -10.320  12.042  0.00  0.00    +0.123 C 
ENDROOT
BRANCH  16  10
ATOM      5  N   UNL     1      -6.126  -9.971  10.949  0.00  0.00    -0.298 NA
ATOM      8  C   UNL     1      -5.108  -9.228   8.674  0.00  0.00    -0.003 C 
ATOM      9  C   UNL     1      -5.620 -10.684   8.600  0.00  0.00    +0.020 C 
ATOM     10  C   UNL     1      -4.761  -9.418  11.158  0.00  0.00    +0.074 C 
ATOM     11  C   UNL     1      -4.075  -9.107   9.809  0.00  0.00    +0.024 C 
ATOM     12  C   UNL     1      -6.079 -11.118  10.011  0.00  0.00    +0.089 C 
ATOM     13  C   UNL     1      -6.314  -8.349   9.059  0.00  0.00    +0.019 C 
ATOM     14  C   UNL     1      -6.961  -8.909  10.338  0.00  0.00    +0.085 C 
BRANCH   9  15
ATOM     15  C   UNL     1      -4.595 -11.655   8.018  0.00  0.00    +0.089 C 
BRANCH  15   6
ATOM      6  N   UNL     1      -4.501 -11.513   6.573  0.00  0.00    -0.302 NA
ATOM     17  C   UNL     1      -3.707 -12.575   5.957  0.00  0.00    +0.084 C 
ATOM     18  C   UNL     1      -5.807 -11.585   5.919  0.00  0.00    +0.084 C 
ATOM     19  C   UNL     1      -4.065 -12.458   4.483  0.00  0.00    +0.017 C 
ATOM     20  C   UNL     1      -5.443 -11.804   4.458  0.00  0.00    +0.017 C 
ENDBRANCH  15   6
ENDBRANCH   9  15
ENDBRANCH  16  10
BRANCH  16   7
ATOM      4  O   UNL     1      -2.389 -10.878  14.422  0.00  0.00    -0.270 OA
ATOM      7  N   UNL     1      -4.397 -10.356  13.380  0.00  0.00    -0.310 N 
ATOM     21  C   UNL     1      -3.592 -10.637  14.483  0.00  0.00    +0.244 C 
ATOM     29  H   UNL     1      -5.395 -10.226  13.497  0.00  0.00    +0.149 HD
BRANCH  21  22
ATOM     22  C   UNL     1      -4.271 -10.664  15.805  0.00  0.00    +0.037 A 
ATOM     23  C   UNL     1      -3.674 -11.319  16.882  0.00  0.00    +0.013 A 
ATOM     24  C   UNL     1      -5.504 -10.033  15.969  0.00  0.00    +0.013 A 
ATOM     25  C   UNL     1      -4.311 -11.345  18.123  0.00  0.00    +0.013 A 
ATOM     26  C   UNL     1      -6.140 -10.058  17.210  0.00  0.00    +0.013 A 
ATOM     27  C   UNL     1      -5.544 -10.714  18.286  0.00  0.00    +0.055 A 
BRANCH  27  28
ATOM      1  F   UNL     1      -6.149  -9.558  20.291  0.00  0.00    -0.166 F 
ATOM      2  F   UNL     1      -5.702 -11.679  20.453  0.00  0.00    -0.166 F 
ATOM      3  F   UNL     1      -7.561 -11.022  19.536  0.00  0.00    -0.166 F 
ATOM     28  C   UNL     1      -6.226 -10.740  19.612  0.00  0.00    +0.417 C 
ENDBRANCH  27  28
ENDBRANCH  21  22
ENDBRANCH  16   7
TORSDOF 6
ENDMDL
MODEL 7
REMARK VINA RESULT:      -6.4      2.898      4.291
REMARK  Name = 40779644
REMARK  6 active torsions:
REMARK  status: ('A' for Active; 'I' for Inactive)
REMARK    1  A    between atoms: N_6  and  C_15
REMARK    2  A    between atoms: N_7  and  C_16
REMARK    3  A    between atoms: C_9  and  C_15
REMARK    4  A    between atoms: C_10  and  C_16
REMARK    5  A    between atoms: C_21  and  C_22
REMARK    6  A    between atoms: C_27  and  C_28
REMARK                            x       y       z     vdW  Elec       q    Type
REMARK                         _______ _______ _______ _____ _____    ______ ____
ROOT
ATOM     16  C   UNL     1       8.092   8.899   1.887  0.00  0.00    +0.123 C 
ENDROOT
BRANCH  16  10
ATOM      5  N   UNL     1       9.598   8.337  -0.039  0.00  0.00    -0.298 NA
ATOM      8  C   UNL     1      11.781   8.577   1.353  0.00  0.00    -0.003 C 
ATOM      9  C   UNL     1      11.426   7.089   1.137  0.00  0.00    +0.020 C 
ATOM     10  C   UNL     1       9.368   9.246   1.116  0.00  0.00    +0.074 C 
ATOM     11  C   UNL     1      10.604   9.289   2.043  0.00  0.00    +0.024 C 
ATOM     12  C   UNL     1      10.052   7.008   0.434  0.00  0.00    +0.089 C 
ATOM     13  C   UNL     1      11.939   9.207  -0.044  0.00  0.00    +0.019 C 
ATOM     14  C   UNL     1      10.674   8.923  -0.873  0.00  0.00    +0.085 C 
BRANCH   9  15
ATOM     15  C   UNL     1      11.448   6.270   2.427  0.00  0.00    +0.089 C 
BRANCH  15   6
ATOM      6  N   UNL     1      12.413   5.185   2.341  0.00  0.00    -0.302 NA
ATOM     17  C   UNL     1      11.791   3.910   1.987  0.00  0.00    +0.084 C 
ATOM     18  C   UNL     1      13.422   5.417   1.307  0.00  0.00    +0.084 C 
ATOM     19  C   UNL     1      12.979   3.052   1.577  0.00  0.00    +0.017 C 
ATOM     20  C   UNL     1      14.052   4.043   1.134  0.00  0.00    +0.017 C 
ENDBRANCH  15   6
ENDBRANCH   9  15
ENDBRANCH  16  10
BRANCH  16   7
ATOM      4  O   UNL     1       7.207   9.500   4.552  0.00  0.00    -0.270 OA
ATOM      7  N   UNL     1       8.396   8.162   3.074  0.00  0.00    -0.310 N 
ATOM     21  C   UNL     1       7.923   8.526   4.333  0.00  0.00    +0.244 C 
ATOM     29  H   UNL     1       9.033   7.380   2.974  0.00  0.00    +0.149 HD
BRANCH  21  22
ATOM     22  C   UNL     1       8.351   7.671   5.471  0.00  0.00    +0.037 A 
ATOM     23  C   UNL     1       8.724   6.346   5.246  0.00  0.00    +0.013 A 
ATOM     24  C   UNL     1       8.381   8.193   6.764  0.00  0.00    +0.013 A 
ATOM     25  C   UNL     1       9.125   5.542   6.313  0.00  0.00    +0.013 A 
ATOM     26  C   UNL     1       8.783   7.391   7.831  0.00  0.00    +0.013 A 
ATOM     27  C   UNL     1       9.154   6.065   7.606  0.00  0.00    +0.055 A 
BRANCH  27  28
ATOM      1  F   UNL     1       8.721   5.234   9.806  0.00  0.00    -0.166 F 
ATOM      2  F   UNL     1      10.795   5.579   9.255  0.00  0.00    -0.166 F 
ATOM      3  F   UNL     1       9.712   3.887   8.424  0.00  0.00    -0.166 F 
ATOM     28  C   UNL     1       9.584   5.208   8.748  0.00  0.00    +0.417 C 
ENDBRANCH  27  28
ENDBRANCH  21  22
ENDBRANCH  16   7
TORSDOF 6
ENDMDL
MODEL 8
REMARK VINA RESULT:      -6.2     42.615     44.079
REMARK  Name = 40779644
REMARK  6 active torsions:
REMARK  status: ('A' for Active; 'I' for Inactive)
REMARK    1  A    between atoms: N_6  and  C_15
REMARK    2  A    between atoms: N_7  and  C_16
REMARK    3  A    between atoms: C_9  and  C_15
REMARK    4  A    between atoms: C_10  and  C_16
REMARK    5  A    between atoms: C_21  and  C_22
REMARK    6  A    between atoms: C_27  and  C_28
REMARK                            x       y       z     vdW  Elec       q    Type
REMARK                         _______ _______ _______ _____ _____    ______ ____
ROOT
ATOM     16  C   UNL     1      -9.764  -9.673  40.262  0.00  0.00    +0.123 C 
ENDROOT
BRANCH  16  10
ATOM      5  N   UNL     1     -10.096 -11.810  38.991  0.00  0.00    -0.298 NA
ATOM      8  C   UNL     1      -9.513 -10.752  36.687  0.00  0.00    -0.003 C 
ATOM      9  C   UNL     1      -8.331 -11.589  37.223  0.00  0.00    +0.020 C 
ATOM     10  C   UNL     1     -10.358 -10.346  39.022  0.00  0.00    +0.074 C 
ATOM     11  C   UNL     1      -9.881  -9.669  37.718  0.00  0.00    +0.024 C 
ATOM     12  C   UNL     1      -8.676 -12.072  38.651  0.00  0.00    +0.089 C 
ATOM     13  C   UNL     1     -10.721 -11.702  36.574  0.00  0.00    +0.019 C 
ATOM     14  C   UNL     1     -10.942 -12.403  37.927  0.00  0.00    +0.085 C 
BRANCH   9  15
ATOM     15  C   UNL     1      -6.998 -10.844  37.189  0.00  0.00    +0.089 C 
BRANCH  15   6
ATOM      6  N   UNL     1      -6.549 -10.514  38.532  0.00  0.00    -0.302 NA
ATOM     17  C   UNL     1      -5.291 -11.174  38.879  0.00  0.00    +0.084 C 
ATOM     18  C   UNL     1      -6.286  -9.084  38.698  0.00  0.00    +0.084 C 
ATOM     19  C   UNL     1      -4.828 -10.406  40.108  0.00  0.00    +0.017 C 
ATOM     20  C   UNL     1      -5.486  -9.034  39.990  0.00  0.00    +0.017 C 
ENDBRANCH  15   6
ENDBRANCH   9  15
ENDBRANCH  16  10
BRANCH  16   7
ATOM      4  O   UNL     1     -11.659  -7.622  40.929  0.00  0.00    -0.270 OA
ATOM      7  N   UNL     1      -9.608  -8.267  40.054  0.00  0.00    -0.310 N 
ATOM     21  C   UNL     1     -10.583  -7.337  40.409  0.00  0.00    +0.244 C 
ATOM     29  H   UNL     1      -8.768  -7.968  39.573  0.00  0.00    +0.149 HD
BRANCH  21  22
ATOM     22  C   UNL     1     -10.280  -5.914  40.103  0.00  0.00    +0.037 A 
ATOM     23  C   UNL     1      -8.959  -5.508  39.913  0.00  0.00    +0.013 A 
ATOM     24  C   UNL     1     -11.315  -4.985  40.005  0.00  0.00    +0.013 A 
ATOM     25  C   UNL     1      -8.674  -4.173  39.626  0.00  0.00    +0.013 A 
ATOM     26  C   UNL     1     -11.030  -3.651  39.718  0.00  0.00    +0.013 A 
ATOM     27  C   UNL     1      -9.710  -3.245  39.529  0.00  0.00    +0.055 A 
BRANCH  27  28
ATOM      1  F   UNL     1      -8.120  -1.606  38.815  0.00  0.00    -0.166 F 
ATOM      2  F   UNL     1      -9.588  -1.000  40.299  0.00  0.00    -0.166 F 
ATOM      3  F   UNL     1     -10.186  -1.293  38.229  0.00  0.00    -0.166 F 
ATOM     28  C   UNL     1      -9.406  -1.818  39.221  0.00  0.00    +0.417 C 
ENDBRANCH  27  28
ENDBRANCH  21  22
ENDBRANCH  16   7
TORSDOF 6
ENDMDL
MODEL 9
REMARK VINA RESULT:      -6.2     37.864     39.778
REMARK  Name = 40779644
REMARK  6 active torsions:
REMARK  status: ('A' for Active; 'I' for Inactive)
REMARK    1  A    between atoms: N_6  and  C_15
REMARK    2  A    between atoms: N_7  and  C_16
REMARK    3  A    between atoms: C_9  and  C_15
REMARK    4  A    between atoms: C_10  and  C_16
REMARK    5  A    between atoms: C_21  and  C_22
REMARK    6  A    between atoms: C_27  and  C_28
REMARK                            x       y       z     vdW  Elec       q    Type
REMARK                         _______ _______ _______ _____ _____    ______ ____
ROOT
ATOM     16  C   UNL     1     -13.455   7.231  33.820  0.00  0.00    +0.123 C 
ENDROOT
BRANCH  16  10
ATOM      5  N   UNL     1     -12.188   8.527  32.086  0.00  0.00    -0.298 NA
ATOM      8  C   UNL     1     -12.844  10.845  33.067  0.00  0.00    -0.003 C 
ATOM      9  C   UNL     1     -11.391  10.479  33.442  0.00  0.00    +0.020 C 
ATOM     10  C   UNL     1     -13.459   8.416  32.851  0.00  0.00    +0.074 C 
ATOM     11  C   UNL     1     -13.794   9.742  33.568  0.00  0.00    +0.024 C 
ATOM     12  C   UNL     1     -11.105   9.038  32.960  0.00  0.00    +0.089 C 
ATOM     13  C   UNL     1     -12.921  10.849  31.528  0.00  0.00    +0.019 C 
ATOM     14  C   UNL     1     -12.399   9.504  30.991  0.00  0.00    +0.085 C 
BRANCH   9  15
ATOM     15  C   UNL     1     -11.092  10.644  34.931  0.00  0.00    +0.089 C 
BRANCH  15   6
ATOM      6  N   UNL     1     -10.659   9.385  35.520  0.00  0.00    -0.302 NA
ATOM     17  C   UNL     1      -9.334   9.480  36.130  0.00  0.00    +0.084 C 
ATOM     18  C   UNL     1     -11.543   8.940  36.597  0.00  0.00    +0.084 C 
ATOM     19  C   UNL     1      -9.263   8.228  36.991  0.00  0.00    +0.017 C 
ATOM     20  C   UNL     1     -10.716   7.871  37.295  0.00  0.00    +0.017 C 
ENDBRANCH  15   6
ENDBRANCH   9  15
ENDBRANCH  16  10
BRANCH  16   7
ATOM      4  O   UNL     1     -14.626   4.812  34.833  0.00  0.00    -0.270 OA
ATOM      7  N   UNL     1     -13.604   5.995  33.116  0.00  0.00    -0.310 N 
ATOM     21  C   UNL     1     -14.187   4.864  33.687  0.00  0.00    +0.244 C 
ATOM     29  H   UNL     1     -13.208   5.950  32.185  0.00  0.00    +0.149 HD
BRANCH  21  22
ATOM     22  C   UNL     1     -14.244   3.650  32.832  0.00  0.00    +0.037 A 
ATOM     23  C   UNL     1     -14.010   3.751  31.460  0.00  0.00    +0.013 A 
ATOM     24  C   UNL     1     -14.531   2.409  33.401  0.00  0.00    +0.013 A 
ATOM     25  C   UNL     1     -14.064   2.611  30.658  0.00  0.00    +0.013 A 
ATOM     26  C   UNL     1     -14.585   1.270  32.598  0.00  0.00    +0.013 A 
ATOM     27  C   UNL     1     -14.352   1.371  31.227  0.00  0.00    +0.055 A 
BRANCH  27  28
ATOM      1  F   UNL     1     -13.201  -0.462  30.209  0.00  0.00    -0.166 F 
ATOM      2  F   UNL     1     -14.855   0.419  29.108  0.00  0.00    -0.166 F 
ATOM      3  F   UNL     1     -15.241  -0.818  30.854  0.00  0.00    -0.166 F 
ATOM     28  C   UNL     1     -14.410   0.152  30.370  0.00  0.00    +0.417 C 
ENDBRANCH  27  28
ENDBRANCH  21  22
ENDBRANCH  16   7
TORSDOF 6
ENDMDL
MODEL 10
REMARK VINA RESULT:      -6.2     23.689     27.390
REMARK  Name = 40779644
REMARK  6 active torsions:
REMARK  status: ('A' for Active; 'I' for Inactive)
REMARK    1  A    between atoms: N_6  and  C_15
REMARK    2  A    between atoms: N_7  and  C_16
REMARK    3  A    between atoms: C_9  and  C_15
REMARK    4  A    between atoms: C_10  and  C_16
REMARK    5  A    between atoms: C_21  and  C_22
REMARK    6  A    between atoms: C_27  and  C_28
REMARK                            x       y       z     vdW  Elec       q    Type
REMARK                         _______ _______ _______ _____ _____    ______ ____
ROOT
ATOM     16  C   UNL     1      -3.787 -11.479  17.620  0.00  0.00    +0.123 C 
ENDROOT
BRANCH  16  10
ATOM      5  N   UNL     1      -5.831 -12.380  18.761  0.00  0.00    -0.298 NA
ATOM      8  C   UNL     1      -7.441 -10.671  17.641  0.00  0.00    -0.003 C 
ATOM      9  C   UNL     1      -7.555 -12.058  16.969  0.00  0.00    +0.020 C 
ATOM     10  C   UNL     1      -5.083 -11.156  18.369  0.00  0.00    +0.074 C 
ATOM     11  C   UNL     1      -5.981 -10.187  17.569  0.00  0.00    +0.024 C 
ATOM     12  C   UNL     1      -6.480 -12.989  17.575  0.00  0.00    +0.089 C 
ATOM     13  C   UNL     1      -7.784 -10.866  19.131  0.00  0.00    +0.019 C 
ATOM     14  C   UNL     1      -6.895 -11.979  19.713  0.00  0.00    +0.085 C 
BRANCH   9  15
ATOM     15  C   UNL     1      -7.457 -12.000  15.446  0.00  0.00    +0.089 C 
BRANCH  15   6
ATOM      6  N   UNL     1      -8.410 -11.048  14.896  0.00  0.00    -0.302 NA
ATOM     17  C   UNL     1      -8.139 -10.732  13.495  0.00  0.00    +0.084 C 
ATOM     18  C   UNL     1      -9.781 -11.558  14.914  0.00  0.00    +0.084 C 
ATOM     19  C   UNL     1      -9.430 -10.068  13.038  0.00  0.00    +0.017 C 
ATOM     20  C   UNL     1     -10.508 -10.608  13.974  0.00  0.00    +0.017 C 
ENDBRANCH  15   6
ENDBRANCH   9  15
ENDBRANCH  16  10
BRANCH  16   7
ATOM      4  O   UNL     1      -1.641 -11.140  15.742  0.00  0.00    -0.270 OA
ATOM      7  N   UNL     1      -3.911 -11.170  16.229  0.00  0.00    -0.310 N 
ATOM     21  C   UNL     1      -2.811 -11.022  15.386  0.00  0.00    +0.244 C 
ATOM     29  H   UNL     1      -4.848 -10.999  15.882  0.00  0.00    +0.149 HD
BRANCH  21  22
ATOM     22  C   UNL     1      -3.107 -10.674  13.972  0.00  0.00    +0.037 A 
ATOM     23  C   UNL     1      -2.064 -10.524  13.057  0.00  0.00    +0.013 A 
ATOM     24  C   UNL     1      -4.427 -10.496  13.558  0.00  0.00    +0.013 A 
ATOM     25  C   UNL     1      -2.341 -10.196  11.730  0.00  0.00    +0.013 A 
ATOM     26  C   UNL     1      -4.704 -10.170  12.231  0.00  0.00    +0.013 A 
ATOM     27  C   UNL     1      -3.661 -10.019  11.317  0.00  0.00    +0.055 A 
BRANCH  27  28
ATOM      1  F   UNL     1      -3.070  -8.788   9.353  0.00  0.00    -0.166 F 
ATOM      2  F   UNL     1      -5.186  -9.090   9.748  0.00  0.00    -0.166 F 
ATOM      3  F   UNL     1      -3.957 -10.746   9.057  0.00  0.00    -0.166 F 
ATOM     28  C   UNL     1      -3.959  -9.669   9.898  0.00  0.00    +0.417 C 
ENDBRANCH  27  28
ENDBRANCH  21  22
ENDBRANCH  16   7
TORSDOF 6
ENDMDL
