MODEL 1
REMARK VINA RESULT:      -7.2      0.000      0.000
REMARK  Name = 45360651
REMARK  8 active torsions:
REMARK  status: ('A' for Active; 'I' for Inactive)
REMARK    1  A    between atoms: N_6  and  C_9
REMARK    2  A    between atoms: N_6  and  C_17
REMARK    3  A    between atoms: N_7  and  C_22
REMARK    4  A    between atoms: C_10  and  C_15
REMARK    5  A    between atoms: C_15  and  C_16
REMARK    6  A    between atoms: C_16  and  C_18
REMARK    7  A    between atoms: C_17  and  C_19
REMARK    8  A    between atoms: C_22  and  C_26
REMARK                            x       y       z     vdW  Elec       q    Type
REMARK                         _______ _______ _______ _____ _____    ______ ____
ROOT
ATOM      2  O   UNL     1      -7.344 -14.549  17.219  0.00  0.00    -0.274 OA
ATOM      4  N   UNL     1      -5.186 -11.690  17.920  0.00  0.00    -0.286 NA
ATOM      5  N   UNL     1      -6.165 -13.231  15.789  0.00  0.00    -0.313 N 
ATOM      8  C   UNL     1      -5.897 -12.933  18.246  0.00  0.00    +0.145 C 
ATOM      9  C   UNL     1      -6.786 -10.997  19.413  0.00  0.00    +0.070 C 
ATOM     10  C   UNL     1      -4.430 -11.739  16.674  0.00  0.00    +0.075 C 
ATOM     11  C   UNL     1      -6.960 -12.510  19.272  0.00  0.00    +0.048 C 
ATOM     12  C   UNL     1      -6.133 -10.592  18.098  0.00  0.00    +0.104 C 
ATOM     13  C   UNL     1      -5.338 -12.081  15.503  0.00  0.00    +0.123 C 
ATOM     14  C   UNL     1      -6.547 -13.622  17.050  0.00  0.00    +0.230 C 
ATOM     32  H   UNL     1      -6.589 -13.711  15.002  0.00  0.00    +0.149 HD
ENDROOT
BRANCH   9   6
ATOM      6  N   UNL     1      -8.036 -10.302  19.677  0.00  0.00    -0.308 NA
ATOM     33  H   UNL     1      -8.274 -10.407  20.664  0.00  0.00    +0.123 HD
BRANCH   6  17
ATOM     17  C   UNL     1      -9.120 -10.850  18.871  0.00  0.00    +0.116 C 
BRANCH  17  19
ATOM     19  C   UNL     1      -9.879  -9.771  18.145  0.00  0.00    -0.034 A 
ATOM     20  C   UNL     1      -9.188  -8.760  17.477  0.00  0.00    +0.005 A 
ATOM     21  C   UNL     1     -11.274  -9.782  18.141  0.00  0.00    +0.005 A 
ATOM     23  C   UNL     1      -9.891  -7.761  16.804  0.00  0.00    +0.000 A 
ATOM     24  C   UNL     1     -11.977  -8.783  17.468  0.00  0.00    +0.000 A 
ATOM     25  C   UNL     1     -11.285  -7.773  16.800  0.00  0.00    +0.000 A 
ENDBRANCH  17  19
ENDBRANCH   6  17
ENDBRANCH   9   6
BRANCH  10  15
ATOM     15  C   UNL     1      -3.646 -10.455  16.404  0.00  0.00    +0.029 C 
BRANCH  15  16
ATOM     16  C   UNL     1      -2.170 -10.749  16.171  0.00  0.00    +0.097 C 
BRANCH  16  18
ATOM      3  O   UNL     1      -0.998  -9.436  14.508  0.00  0.00    -0.276 OA
ATOM      7  N   UNL     1      -2.258 -11.262  13.823  0.00  0.00    -0.311 N 
ATOM     18  C   UNL     1      -1.730 -10.388  14.763  0.00  0.00    +0.213 C 
ATOM     34  H   UNL     1      -2.880 -12.009  14.116  0.00  0.00    +0.149 HD
BRANCH   7  22
ATOM     22  C   UNL     1      -1.987 -11.131  12.411  0.00  0.00    +0.139 C 
BRANCH  22  26
ATOM      1  F   UNL     1      -5.918  -8.051   9.799  0.00  0.00    -0.205 F 
ATOM     26  C   UNL     1      -3.038 -10.308  11.713  0.00  0.00    -0.030 A 
ATOM     27  C   UNL     1      -4.342 -10.279  12.205  0.00  0.00    +0.008 A 
ATOM     28  C   UNL     1      -2.706  -9.575  10.573  0.00  0.00    +0.008 A 
ATOM     29  C   UNL     1      -5.316  -9.517  11.559  0.00  0.00    +0.038 A 
ATOM     30  C   UNL     1      -3.679  -8.813   9.926  0.00  0.00    +0.038 A 
ATOM     31  C   UNL     1      -4.984  -8.784  10.419  0.00  0.00    +0.123 A 
ENDBRANCH  22  26
ENDBRANCH   7  22
ENDBRANCH  16  18
ENDBRANCH  15  16
ENDBRANCH  10  15
TORSDOF 8
ENDMDL
MODEL 2
REMARK VINA RESULT:      -7.1      3.118      6.286
REMARK  Name = 45360651
REMARK  8 active torsions:
REMARK  status: ('A' for Active; 'I' for Inactive)
REMARK    1  A    between atoms: N_6  and  C_9
REMARK    2  A    between atoms: N_6  and  C_17
REMARK    3  A    between atoms: N_7  and  C_22
REMARK    4  A    between atoms: C_10  and  C_15
REMARK    5  A    between atoms: C_15  and  C_16
REMARK    6  A    between atoms: C_16  and  C_18
REMARK    7  A    between atoms: C_17  and  C_19
REMARK    8  A    between atoms: C_22  and  C_26
REMARK                            x       y       z     vdW  Elec       q    Type
REMARK                         _______ _______ _______ _____ _____    ______ ____
ROOT
ATOM      2  O   UNL     1      -4.036  -9.151   9.504  0.00  0.00    -0.274 OA
ATOM      4  N   UNL     1      -3.714 -11.354  12.395  0.00  0.00    -0.286 NA
ATOM      5  N   UNL     1      -2.237  -9.547  10.838  0.00  0.00    -0.313 N 
ATOM      8  C   UNL     1      -4.317 -10.881  11.143  0.00  0.00    +0.145 C 
ATOM      9  C   UNL     1      -5.768 -10.580  13.066  0.00  0.00    +0.070 C 
ATOM     10  C   UNL     1      -2.261 -11.474  12.356  0.00  0.00    +0.075 C 
ATOM     11  C   UNL     1      -5.712 -10.382  11.550  0.00  0.00    +0.048 C 
ATOM     12  C   UNL     1      -4.303 -10.571  13.479  0.00  0.00    +0.104 C 
ATOM     13  C   UNL     1      -1.618 -10.143  11.999  0.00  0.00    +0.123 C 
ATOM     14  C   UNL     1      -3.533  -9.775  10.442  0.00  0.00    +0.230 C 
ATOM     32  H   UNL     1      -1.719  -8.823  10.350  0.00  0.00    +0.149 HD
ENDROOT
BRANCH   9   6
ATOM      6  N   UNL     1      -6.568  -9.570  13.743  0.00  0.00    -0.308 NA
ATOM     33  H   UNL     1      -6.353  -8.655  13.347  0.00  0.00    +0.123 HD
BRANCH   6  17
ATOM     17  C   UNL     1      -6.277  -9.545  15.171  0.00  0.00    +0.116 C 
BRANCH  17  19
ATOM     19  C   UNL     1      -7.460  -9.985  15.991  0.00  0.00    -0.034 A 
ATOM     20  C   UNL     1      -8.144 -11.155  15.659  0.00  0.00    +0.005 A 
ATOM     21  C   UNL     1      -7.873  -9.223  17.085  0.00  0.00    +0.005 A 
ATOM     23  C   UNL     1      -9.239 -11.562  16.419  0.00  0.00    +0.000 A 
ATOM     24  C   UNL     1      -8.969  -9.631  17.845  0.00  0.00    +0.000 A 
ATOM     25  C   UNL     1      -9.652 -10.801  17.511  0.00  0.00    +0.000 A 
ENDBRANCH  17  19
ENDBRANCH   6  17
ENDBRANCH   9   6
BRANCH  10  15
ATOM     15  C   UNL     1      -1.676 -12.036  13.652  0.00  0.00    +0.029 C 
BRANCH  15  16
ATOM     16  C   UNL     1      -1.583 -13.555  13.601  0.00  0.00    +0.097 C 
BRANCH  16  18
ATOM      3  O   UNL     1      -3.221 -15.327  13.798  0.00  0.00    -0.276 OA
ATOM      7  N   UNL     1      -3.438 -13.435  15.126  0.00  0.00    -0.311 N 
ATOM     18  C   UNL     1      -2.825 -14.224  14.164  0.00  0.00    +0.213 C 
ATOM     34  H   UNL     1      -3.060 -12.520  15.350  0.00  0.00    +0.149 HD
BRANCH   7  22
ATOM     22  C   UNL     1      -4.639 -13.850  15.812  0.00  0.00    +0.139 C 
BRANCH  22  26
ATOM      1  F   UNL     1      -5.949 -10.370  20.045  0.00  0.00    -0.205 F 
ATOM     26  C   UNL     1      -4.989 -12.920  16.943  0.00  0.00    -0.030 A 
ATOM     27  C   UNL     1      -4.222 -11.778  17.170  0.00  0.00    +0.008 A 
ATOM     28  C   UNL     1      -6.081 -13.202  17.765  0.00  0.00    +0.008 A 
ATOM     29  C   UNL     1      -4.546 -10.916  18.217  0.00  0.00    +0.038 A 
ATOM     30  C   UNL     1      -6.405 -12.341  18.813  0.00  0.00    +0.038 A 
ATOM     31  C   UNL     1      -5.637 -11.198  19.040  0.00  0.00    +0.123 A 
ENDBRANCH  22  26
ENDBRANCH   7  22
ENDBRANCH  16  18
ENDBRANCH  15  16
ENDBRANCH  10  15
TORSDOF 8
ENDMDL
MODEL 3
REMARK VINA RESULT:      -6.9      2.096      3.460
REMARK  Name = 45360651
REMARK  8 active torsions:
REMARK  status: ('A' for Active; 'I' for Inactive)
REMARK    1  A    between atoms: N_6  and  C_9
REMARK    2  A    between atoms: N_6  and  C_17
REMARK    3  A    between atoms: N_7  and  C_22
REMARK    4  A    between atoms: C_10  and  C_15
REMARK    5  A    between atoms: C_15  and  C_16
REMARK    6  A    between atoms: C_16  and  C_18
REMARK    7  A    between atoms: C_17  and  C_19
REMARK    8  A    between atoms: C_22  and  C_26
REMARK                            x       y       z     vdW  Elec       q    Type
REMARK                         _______ _______ _______ _____ _____    ______ ____
ROOT
ATOM      2  O   UNL     1      -8.038 -12.757  18.994  0.00  0.00    -0.274 OA
ATOM      4  N   UNL     1      -5.625 -10.355  17.679  0.00  0.00    -0.286 NA
ATOM      5  N   UNL     1      -6.004 -13.112  18.041  0.00  0.00    -0.313 N 
ATOM      8  C   UNL     1      -6.758 -10.786  18.508  0.00  0.00    +0.145 C 
ATOM      9  C   UNL     1      -7.407  -9.262  16.731  0.00  0.00    +0.070 C 
ATOM     10  C   UNL     1      -4.459 -11.227  17.756  0.00  0.00    +0.075 C 
ATOM     11  C   UNL     1      -7.969 -10.046  17.919  0.00  0.00    +0.048 C 
ATOM     12  C   UNL     1      -6.155 -10.041  16.354  0.00  0.00    +0.104 C 
ATOM     13  C   UNL     1      -4.819 -12.649  17.354  0.00  0.00    +0.123 C 
ATOM     14  C   UNL     1      -7.000 -12.292  18.515  0.00  0.00    +0.230 C 
ATOM     32  H   UNL     1      -6.168 -14.113  18.070  0.00  0.00    +0.149 HD
ENDROOT
BRANCH   9   6
ATOM      6  N   UNL     1      -8.356  -9.126  15.637  0.00  0.00    -0.308 NA
ATOM     33  H   UNL     1      -9.297  -9.032  16.022  0.00  0.00    +0.123 HD
BRANCH   6  17
ATOM     17  C   UNL     1      -8.320 -10.294  14.766  0.00  0.00    +0.116 C 
BRANCH  17  19
ATOM     19  C   UNL     1      -8.057  -9.915  13.332  0.00  0.00    -0.034 A 
ATOM     20  C   UNL     1      -6.823  -9.375  12.968  0.00  0.00    +0.005 A 
ATOM     21  C   UNL     1      -9.048 -10.104  12.368  0.00  0.00    +0.005 A 
ATOM     23  C   UNL     1      -6.580  -9.025  11.640  0.00  0.00    +0.000 A 
ATOM     24  C   UNL     1      -8.804  -9.753  11.040  0.00  0.00    +0.000 A 
ATOM     25  C   UNL     1      -7.570  -9.213  10.677  0.00  0.00    +0.000 A 
ENDBRANCH  17  19
ENDBRANCH   6  17
ENDBRANCH   9   6
BRANCH  10  15
ATOM     15  C   UNL     1      -3.276 -10.709  16.937  0.00  0.00    +0.029 C 
BRANCH  15  16
ATOM     16  C   UNL     1      -3.067 -11.545  15.682  0.00  0.00    +0.097 C 
BRANCH  16  18
ATOM      3  O   UNL     1      -1.133 -10.279  14.961  0.00  0.00    -0.276 OA
ATOM      7  N   UNL     1      -2.715 -10.919  13.388  0.00  0.00    -0.311 N 
ATOM     18  C   UNL     1      -2.184 -10.842  14.667  0.00  0.00    +0.213 C 
ATOM     34  H   UNL     1      -3.606 -11.380  13.234  0.00  0.00    +0.149 HD
BRANCH   7  22
ATOM     22  C   UNL     1      -2.061 -10.325  12.245  0.00  0.00    +0.139 C 
BRANCH  22  26
ATOM      1  F   UNL     1      -5.375 -10.355   7.687  0.00  0.00    -0.205 F 
ATOM     26  C   UNL     1      -2.947 -10.333  11.026  0.00  0.00    -0.030 A 
ATOM     27  C   UNL     1      -3.109  -9.170  10.274  0.00  0.00    +0.008 A 
ATOM     28  C   UNL     1      -3.606 -11.504  10.652  0.00  0.00    +0.008 A 
ATOM     29  C   UNL     1      -3.929  -9.177   9.147  0.00  0.00    +0.038 A 
ATOM     30  C   UNL     1      -4.427 -11.512   9.523  0.00  0.00    +0.038 A 
ATOM     31  C   UNL     1      -4.589 -10.347   8.771  0.00  0.00    +0.123 A 
ENDBRANCH  22  26
ENDBRANCH   7  22
ENDBRANCH  16  18
ENDBRANCH  15  16
ENDBRANCH  10  15
TORSDOF 8
ENDMDL
MODEL 4
REMARK VINA RESULT:      -6.9      1.346      2.164
REMARK  Name = 45360651
REMARK  8 active torsions:
REMARK  status: ('A' for Active; 'I' for Inactive)
REMARK    1  A    between atoms: N_6  and  C_9
REMARK    2  A    between atoms: N_6  and  C_17
REMARK    3  A    between atoms: N_7  and  C_22
REMARK    4  A    between atoms: C_10  and  C_15
REMARK    5  A    between atoms: C_15  and  C_16
REMARK    6  A    between atoms: C_16  and  C_18
REMARK    7  A    between atoms: C_17  and  C_19
REMARK    8  A    between atoms: C_22  and  C_26
REMARK                            x       y       z     vdW  Elec       q    Type
REMARK                         _______ _______ _______ _____ _____    ______ ____
ROOT
ATOM      2  O   UNL     1      -7.827 -12.936  19.781  0.00  0.00    -0.274 OA
ATOM      4  N   UNL     1      -6.118 -10.248  17.998  0.00  0.00    -0.286 NA
ATOM      5  N   UNL     1      -6.126 -13.041  18.275  0.00  0.00    -0.313 N 
ATOM      8  C   UNL     1      -6.925 -10.825  19.082  0.00  0.00    +0.145 C 
ATOM      9  C   UNL     1      -8.189  -9.316  17.658  0.00  0.00    +0.070 C 
ATOM     10  C   UNL     1      -4.905 -10.995  17.689  0.00  0.00    +0.075 C 
ATOM     11  C   UNL     1      -8.315 -10.196  18.903  0.00  0.00    +0.048 C 
ATOM     12  C   UNL     1      -7.030  -9.946  16.897  0.00  0.00    +0.104 C 
ATOM     13  C   UNL     1      -5.233 -12.432  17.316  0.00  0.00    +0.123 C 
ATOM     14  C   UNL     1      -7.016 -12.348  19.060  0.00  0.00    +0.230 C 
ATOM     32  H   UNL     1      -6.183 -14.054  18.286  0.00  0.00    +0.149 HD
ENDROOT
BRANCH   9   6
ATOM      6  N   UNL     1      -9.418  -9.243  16.885  0.00  0.00    -0.308 NA
ATOM     33  H   UNL     1      -9.238  -9.582  15.939  0.00  0.00    +0.123 HD
BRANCH   6  17
ATOM     17  C   UNL     1      -9.906  -7.872  16.808  0.00  0.00    +0.116 C 
BRANCH  17  19
ATOM     19  C   UNL     1     -11.399  -7.818  16.622  0.00  0.00    -0.034 A 
ATOM     20  C   UNL     1     -12.198  -8.864  17.084  0.00  0.00    +0.005 A 
ATOM     21  C   UNL     1     -11.984  -6.721  15.988  0.00  0.00    +0.005 A 
ATOM     23  C   UNL     1     -13.582  -8.813  16.913  0.00  0.00    +0.000 A 
ATOM     24  C   UNL     1     -13.367  -6.672  15.816  0.00  0.00    +0.000 A 
ATOM     25  C   UNL     1     -14.166  -7.719  16.279  0.00  0.00    +0.000 A 
ENDBRANCH  17  19
ENDBRANCH   6  17
ENDBRANCH   9   6
BRANCH  10  15
ATOM     15  C   UNL     1      -4.056 -10.327  16.607  0.00  0.00    +0.029 C 
BRANCH  15  16
ATOM     16  C   UNL     1      -2.695 -10.999  16.482  0.00  0.00    +0.097 C 
BRANCH  16  18
ATOM      3  O   UNL     1      -1.067  -9.840  15.116  0.00  0.00    -0.276 OA
ATOM      7  N   UNL     1      -2.541 -11.321  14.104  0.00  0.00    -0.311 N 
ATOM     18  C   UNL     1      -1.997 -10.639  15.183  0.00  0.00    +0.213 C 
ATOM     34  H   UNL     1      -3.330 -11.944  14.243  0.00  0.00    +0.149 HD
BRANCH   7  22
ATOM     22  C   UNL     1      -2.050 -11.150  12.757  0.00  0.00    +0.139 C 
BRANCH  22  26
ATOM      1  F   UNL     1      -5.611  -8.143   9.591  0.00  0.00    -0.205 F 
ATOM     26  C   UNL     1      -3.002 -10.347  11.911  0.00  0.00    -0.030 A 
ATOM     27  C   UNL     1      -4.336 -10.216  12.295  0.00  0.00    +0.008 A 
ATOM     28  C   UNL     1      -2.548  -9.734  10.743  0.00  0.00    +0.008 A 
ATOM     29  C   UNL     1      -5.218  -9.472  11.512  0.00  0.00    +0.038 A 
ATOM     30  C   UNL     1      -3.430  -8.989   9.958  0.00  0.00    +0.038 A 
ATOM     31  C   UNL     1      -4.765  -8.859  10.343  0.00  0.00    +0.123 A 
ENDBRANCH  22  26
ENDBRANCH   7  22
ENDBRANCH  16  18
ENDBRANCH  15  16
ENDBRANCH  10  15
TORSDOF 8
ENDMDL
MODEL 5
REMARK VINA RESULT:      -6.7      4.076      6.515
REMARK  Name = 45360651
REMARK  8 active torsions:
REMARK  status: ('A' for Active; 'I' for Inactive)
REMARK    1  A    between atoms: N_6  and  C_9
REMARK    2  A    between atoms: N_6  and  C_17
REMARK    3  A    between atoms: N_7  and  C_22
REMARK    4  A    between atoms: C_10  and  C_15
REMARK    5  A    between atoms: C_15  and  C_16
REMARK    6  A    between atoms: C_16  and  C_18
REMARK    7  A    between atoms: C_17  and  C_19
REMARK    8  A    between atoms: C_22  and  C_26
REMARK                            x       y       z     vdW  Elec       q    Type
REMARK                         _______ _______ _______ _____ _____    ______ ____
ROOT
ATOM      2  O   UNL     1     -13.510  -9.861  16.032  0.00  0.00    -0.274 OA
ATOM      4  N   UNL     1     -10.374  -8.186  16.855  0.00  0.00    -0.286 NA
ATOM      5  N   UNL     1     -11.369 -10.590  15.804  0.00  0.00    -0.313 N 
ATOM      8  C   UNL     1     -11.819  -8.427  16.951  0.00  0.00    +0.145 C 
ATOM      9  C   UNL     1     -11.279  -6.291  15.928  0.00  0.00    +0.070 C 
ATOM     10  C   UNL     1      -9.557  -9.391  16.943  0.00  0.00    +0.075 C 
ATOM     11  C   UNL     1     -12.460  -7.159  16.365  0.00  0.00    +0.048 C 
ATOM     12  C   UNL     1     -10.159  -7.300  15.713  0.00  0.00    +0.104 C 
ATOM     13  C   UNL     1      -9.939 -10.385  15.858  0.00  0.00    +0.123 C 
ATOM     14  C   UNL     1     -12.304  -9.667  16.206  0.00  0.00    +0.230 C 
ATOM     32  H   UNL     1     -11.705 -11.421  15.329  0.00  0.00    +0.149 HD
ENDROOT
BRANCH   9   6
ATOM      6  N   UNL     1     -11.567  -5.486  14.751  0.00  0.00    -0.308 NA
ATOM     33  H   UNL     1     -11.252  -4.530  14.916  0.00  0.00    +0.123 HD
BRANCH   6  17
ATOM     17  C   UNL     1     -12.997  -5.468  14.468  0.00  0.00    +0.116 C 
BRANCH  17  19
ATOM     19  C   UNL     1     -13.318  -4.626  13.262  0.00  0.00    -0.034 A 
ATOM     20  C   UNL     1     -14.624  -4.183  13.049  0.00  0.00    +0.005 A 
ATOM     21  C   UNL     1     -12.311  -4.289  12.357  0.00  0.00    +0.005 A 
ATOM     23  C   UNL     1     -14.922  -3.403  11.932  0.00  0.00    +0.000 A 
ATOM     24  C   UNL     1     -12.610  -3.510  11.240  0.00  0.00    +0.000 A 
ATOM     25  C   UNL     1     -13.916  -3.067  11.028  0.00  0.00    +0.000 A 
ENDBRANCH  17  19
ENDBRANCH   6  17
ENDBRANCH   9   6
BRANCH  10  15
ATOM     15  C   UNL     1      -8.057  -9.095  16.913  0.00  0.00    +0.029 C 
BRANCH  15  16
ATOM     16  C   UNL     1      -7.339  -9.770  18.072  0.00  0.00    +0.097 C 
BRANCH  16  18
ATOM      3  O   UNL     1      -6.876 -11.959  17.146  0.00  0.00    -0.276 OA
ATOM      7  N   UNL     1      -5.102 -10.600  17.774  0.00  0.00    -0.311 N 
ATOM     18  C   UNL     1      -6.445 -10.906  17.608  0.00  0.00    +0.213 C 
ATOM     34  H   UNL     1      -4.830  -9.716  18.191  0.00  0.00    +0.149 HD
BRANCH   7  22
ATOM     22  C   UNL     1      -4.051 -11.520  17.407  0.00  0.00    +0.139 C 
BRANCH  22  26
ATOM      1  F   UNL     1      -1.409  -9.916  12.695  0.00  0.00    -0.205 F 
ATOM     26  C   UNL     1      -3.345 -11.092  16.148  0.00  0.00    -0.030 A 
ATOM     27  C   UNL     1      -4.019 -11.116  14.927  0.00  0.00    +0.008 A 
ATOM     28  C   UNL     1      -2.016 -10.671  16.202  0.00  0.00    +0.008 A 
ATOM     29  C   UNL     1      -3.366 -10.720  13.761  0.00  0.00    +0.038 A 
ATOM     30  C   UNL     1      -1.361 -10.274  15.036  0.00  0.00    +0.038 A 
ATOM     31  C   UNL     1      -2.037 -10.299  13.815  0.00  0.00    +0.123 A 
ENDBRANCH  22  26
ENDBRANCH   7  22
ENDBRANCH  16  18
ENDBRANCH  15  16
ENDBRANCH  10  15
TORSDOF 8
ENDMDL
MODEL 6
REMARK VINA RESULT:      -6.7      2.200      3.426
REMARK  Name = 45360651
REMARK  8 active torsions:
REMARK  status: ('A' for Active; 'I' for Inactive)
REMARK    1  A    between atoms: N_6  and  C_9
REMARK    2  A    between atoms: N_6  and  C_17
REMARK    3  A    between atoms: N_7  and  C_22
REMARK    4  A    between atoms: C_10  and  C_15
REMARK    5  A    between atoms: C_15  and  C_16
REMARK    6  A    between atoms: C_16  and  C_18
REMARK    7  A    between atoms: C_17  and  C_19
REMARK    8  A    between atoms: C_22  and  C_26
REMARK                            x       y       z     vdW  Elec       q    Type
REMARK                         _______ _______ _______ _____ _____    ______ ____
ROOT
ATOM      2  O   UNL     1      -9.867 -14.723  18.981  0.00  0.00    -0.274 OA
ATOM      4  N   UNL     1      -7.864 -11.759  19.705  0.00  0.00    -0.286 NA
ATOM      5  N   UNL     1      -7.851 -14.090  18.141  0.00  0.00    -0.313 N 
ATOM      8  C   UNL     1      -8.889 -12.773  19.982  0.00  0.00    +0.145 C 
ATOM      9  C   UNL     1      -9.819 -10.560  19.615  0.00  0.00    +0.070 C 
ATOM     10  C   UNL     1      -6.589 -12.302  19.251  0.00  0.00    +0.075 C 
ATOM     11  C   UNL     1     -10.215 -11.996  19.961  0.00  0.00    +0.048 C 
ATOM     12  C   UNL     1      -8.492 -10.724  18.887  0.00  0.00    +0.104 C 
ATOM     13  C   UNL     1      -6.773 -13.139  17.995  0.00  0.00    +0.123 C 
ATOM     14  C   UNL     1      -8.925 -13.926  18.983  0.00  0.00    +0.230 C 
ATOM     32  H   UNL     1      -7.877 -14.873  17.496  0.00  0.00    +0.149 HD
ENDROOT
BRANCH   9   6
ATOM      6  N   UNL     1     -10.828  -9.864  18.831  0.00  0.00    -0.308 NA
ATOM     33  H   UNL     1     -11.420 -10.551  18.365  0.00  0.00    +0.123 HD
BRANCH   6  17
ATOM     17  C   UNL     1     -10.210  -9.013  17.822  0.00  0.00    +0.116 C 
BRANCH  17  19
ATOM     19  C   UNL     1     -11.227  -8.169  17.101  0.00  0.00    -0.034 A 
ATOM     20  C   UNL     1     -12.521  -8.652  16.904  0.00  0.00    +0.005 A 
ATOM     21  C   UNL     1     -10.876  -6.903  16.631  0.00  0.00    +0.005 A 
ATOM     23  C   UNL     1     -13.463  -7.869  16.237  0.00  0.00    +0.000 A 
ATOM     24  C   UNL     1     -11.819  -6.121  15.964  0.00  0.00    +0.000 A 
ATOM     25  C   UNL     1     -13.113  -6.605  15.767  0.00  0.00    +0.000 A 
ENDBRANCH  17  19
ENDBRANCH   6  17
ENDBRANCH   9   6
BRANCH  10  15
ATOM     15  C   UNL     1      -5.525 -11.224  19.041  0.00  0.00    +0.029 C 
BRANCH  15  16
ATOM     16  C   UNL     1      -4.280 -11.800  18.381  0.00  0.00    +0.097 C 
BRANCH  16  18
ATOM      3  O   UNL     1      -4.381  -9.944  16.830  0.00  0.00    -0.276 OA
ATOM      7  N   UNL     1      -2.524 -11.338  16.805  0.00  0.00    -0.311 N 
ATOM     18  C   UNL     1      -3.763 -10.913  17.263  0.00  0.00    +0.213 C 
ATOM     34  H   UNL     1      -2.094 -12.168  17.199  0.00  0.00    +0.149 HD
BRANCH   7  22
ATOM     22  C   UNL     1      -1.821 -10.659  15.742  0.00  0.00    +0.139 C 
BRANCH  22  26
ATOM      1  F   UNL     1      -3.103 -12.793  10.686  0.00  0.00    -0.205 F 
ATOM     26  C   UNL     1      -2.164 -11.229  14.390  0.00  0.00    -0.030 A 
ATOM     27  C   UNL     1      -2.335 -10.380  13.298  0.00  0.00    +0.008 A 
ATOM     28  C   UNL     1      -2.311 -12.607  14.233  0.00  0.00    +0.008 A 
ATOM     29  C   UNL     1      -2.652 -10.907  12.046  0.00  0.00    +0.038 A 
ATOM     30  C   UNL     1      -2.628 -13.136  12.981  0.00  0.00    +0.038 A 
ATOM     31  C   UNL     1      -2.799 -12.285  11.888  0.00  0.00    +0.123 A 
ENDBRANCH  22  26
ENDBRANCH   7  22
ENDBRANCH  16  18
ENDBRANCH  15  16
ENDBRANCH  10  15
TORSDOF 8
ENDMDL
MODEL 7
REMARK VINA RESULT:      -6.6     19.398     22.634
REMARK  Name = 45360651
REMARK  8 active torsions:
REMARK  status: ('A' for Active; 'I' for Inactive)
REMARK    1  A    between atoms: N_6  and  C_9
REMARK    2  A    between atoms: N_6  and  C_17
REMARK    3  A    between atoms: N_7  and  C_22
REMARK    4  A    between atoms: C_10  and  C_15
REMARK    5  A    between atoms: C_15  and  C_16
REMARK    6  A    between atoms: C_16  and  C_18
REMARK    7  A    between atoms: C_17  and  C_19
REMARK    8  A    between atoms: C_22  and  C_26
REMARK                            x       y       z     vdW  Elec       q    Type
REMARK                         _______ _______ _______ _____ _____    ______ ____
ROOT
ATOM      2  O   UNL     1     -11.156   7.965  19.892  0.00  0.00    -0.274 OA
ATOM      4  N   UNL     1     -14.346   7.625  21.631  0.00  0.00    -0.286 NA
ATOM      5  N   UNL     1     -11.975   6.222  21.102  0.00  0.00    -0.313 N 
ATOM      8  C   UNL     1     -13.426   8.190  20.636  0.00  0.00    +0.145 C 
ATOM      9  C   UNL     1     -14.039   9.777  22.370  0.00  0.00    +0.070 C 
ATOM     10  C   UNL     1     -14.359   6.168  21.679  0.00  0.00    +0.075 C 
ATOM     11  C   UNL     1     -13.222   9.646  21.083  0.00  0.00    +0.048 C 
ATOM     12  C   UNL     1     -14.123   8.346  22.882  0.00  0.00    +0.104 C 
ATOM     13  C   UNL     1     -12.968   5.624  21.965  0.00  0.00    +0.123 C 
ATOM     14  C   UNL     1     -12.087   7.467  20.530  0.00  0.00    +0.230 C 
ATOM     32  H   UNL     1     -11.086   5.742  21.007  0.00  0.00    +0.149 HD
ENDROOT
BRANCH   9   6
ATOM      6  N   UNL     1     -13.451  10.702  23.326  0.00  0.00    -0.308 NA
ATOM     33  H   UNL     1     -12.443  10.549  23.361  0.00  0.00    +0.123 HD
BRANCH   6  17
ATOM     17  C   UNL     1     -14.005  10.496  24.659  0.00  0.00    +0.116 C 
BRANCH  17  19
ATOM     19  C   UNL     1     -12.933  10.492  25.716  0.00  0.00    -0.034 A 
ATOM     20  C   UNL     1     -13.278  10.330  27.058  0.00  0.00    +0.005 A 
ATOM     21  C   UNL     1     -11.595  10.649  25.355  0.00  0.00    +0.005 A 
ATOM     23  C   UNL     1     -12.285  10.325  28.038  0.00  0.00    +0.000 A 
ATOM     24  C   UNL     1     -10.603  10.645  26.334  0.00  0.00    +0.000 A 
ATOM     25  C   UNL     1     -10.949  10.483  27.677  0.00  0.00    +0.000 A 
ENDBRANCH  17  19
ENDBRANCH   6  17
ENDBRANCH   9   6
BRANCH  10  15
ATOM     15  C   UNL     1     -15.379   5.615  22.675  0.00  0.00    +0.029 C 
BRANCH  15  16
ATOM     16  C   UNL     1     -14.720   4.672  23.672  0.00  0.00    +0.097 C 
BRANCH  16  18
ATOM      3  O   UNL     1     -16.241   2.813  23.370  0.00  0.00    -0.276 OA
ATOM      7  N   UNL     1     -15.791   3.566  25.519  0.00  0.00    -0.311 N 
ATOM     18  C   UNL     1     -15.666   3.580  24.137  0.00  0.00    +0.213 C 
ATOM     34  H   UNL     1     -15.301   4.255  26.081  0.00  0.00    +0.149 HD
BRANCH   7  22
ATOM     22  C   UNL     1     -16.636   2.619  26.208  0.00  0.00    +0.139 C 
BRANCH  22  26
ATOM      1  F   UNL     1     -15.388   2.294  31.693  0.00  0.00    -0.205 F 
ATOM     26  C   UNL     1     -16.302   2.532  27.674  0.00  0.00    -0.030 A 
ATOM     27  C   UNL     1     -16.124   3.697  28.419  0.00  0.00    +0.008 A 
ATOM     28  C   UNL     1     -16.170   1.286  28.286  0.00  0.00    +0.008 A 
ATOM     29  C   UNL     1     -15.815   3.618  29.776  0.00  0.00    +0.038 A 
ATOM     30  C   UNL     1     -15.861   1.205  29.644  0.00  0.00    +0.038 A 
ATOM     31  C   UNL     1     -15.683   2.371  30.389  0.00  0.00    +0.123 A 
ENDBRANCH  22  26
ENDBRANCH   7  22
ENDBRANCH  16  18
ENDBRANCH  15  16
ENDBRANCH  10  15
TORSDOF 8
ENDMDL
MODEL 8
REMARK VINA RESULT:      -6.5      2.462      7.461
REMARK  Name = 45360651
REMARK  8 active torsions:
REMARK  status: ('A' for Active; 'I' for Inactive)
REMARK    1  A    between atoms: N_6  and  C_9
REMARK    2  A    between atoms: N_6  and  C_17
REMARK    3  A    between atoms: N_7  and  C_22
REMARK    4  A    between atoms: C_10  and  C_15
REMARK    5  A    between atoms: C_15  and  C_16
REMARK    6  A    between atoms: C_16  and  C_18
REMARK    7  A    between atoms: C_17  and  C_19
REMARK    8  A    between atoms: C_22  and  C_26
REMARK                            x       y       z     vdW  Elec       q    Type
REMARK                         _______ _______ _______ _____ _____    ______ ____
ROOT
ATOM      2  O   UNL     1      -1.304 -12.971  13.440  0.00  0.00    -0.274 OA
ATOM      4  N   UNL     1      -4.215 -12.311  15.541  0.00  0.00    -0.286 NA
ATOM      5  N   UNL     1      -1.644 -11.335  14.983  0.00  0.00    -0.313 N 
ATOM      8  C   UNL     1      -3.336 -13.140  14.706  0.00  0.00    +0.145 C 
ATOM      9  C   UNL     1      -5.502 -12.727  13.686  0.00  0.00    +0.070 C 
ATOM     10  C   UNL     1      -3.518 -11.528  16.555  0.00  0.00    +0.075 C 
ATOM     11  C   UNL     1      -4.180 -13.465  13.464  0.00  0.00    +0.048 C 
ATOM     12  C   UNL     1      -5.123 -11.603  14.641  0.00  0.00    +0.104 C 
ATOM     13  C   UNL     1      -2.481 -10.617  15.917  0.00  0.00    +0.123 C 
ATOM     14  C   UNL     1      -2.026 -12.468  14.305  0.00  0.00    +0.230 C 
ATOM     32  H   UNL     1      -0.760 -10.910  14.722  0.00  0.00    +0.149 HD
ENDROOT
BRANCH   9   6
ATOM      6  N   UNL     1      -6.107 -12.258  12.449  0.00  0.00    -0.308 NA
ATOM     33  H   UNL     1      -6.926 -12.830  12.241  0.00  0.00    +0.123 HD
BRANCH   6  17
ATOM     17  C   UNL     1      -5.170 -12.357  11.338  0.00  0.00    +0.116 C 
BRANCH  17  19
ATOM     19  C   UNL     1      -4.920 -11.019  10.695  0.00  0.00    -0.034 A 
ATOM     20  C   UNL     1      -3.613 -10.573  10.498  0.00  0.00    +0.005 A 
ATOM     21  C   UNL     1      -5.995 -10.225  10.296  0.00  0.00    +0.005 A 
ATOM     23  C   UNL     1      -3.381  -9.333   9.901  0.00  0.00    +0.000 A 
ATOM     24  C   UNL     1      -5.763  -8.985   9.700  0.00  0.00    +0.000 A 
ATOM     25  C   UNL     1      -4.455  -8.540   9.503  0.00  0.00    +0.000 A 
ENDBRANCH  17  19
ENDBRANCH   6  17
ENDBRANCH   9   6
BRANCH  10  15
ATOM     15  C   UNL     1      -4.469 -10.734  17.450  0.00  0.00    +0.029 C 
BRANCH  15  16
ATOM     16  C   UNL     1      -4.645 -11.409  18.803  0.00  0.00    +0.097 C 
BRANCH  16  18
ATOM      3  O   UNL     1      -6.394 -10.957  20.414  0.00  0.00    -0.276 OA
ATOM      7  N   UNL     1      -6.972 -11.775  18.320  0.00  0.00    -0.311 N 
ATOM     18  C   UNL     1      -6.081 -11.345  19.292  0.00  0.00    +0.213 C 
ATOM     34  H   UNL     1      -6.627 -12.108  17.426  0.00  0.00    +0.149 HD
BRANCH   7  22
ATOM     22  C   UNL     1      -8.398 -11.810  18.543  0.00  0.00    +0.139 C 
BRANCH  22  26
ATOM      1  F   UNL     1     -10.880  -6.992  16.999  0.00  0.00    -0.205 F 
ATOM     26  C   UNL     1      -9.061 -10.522  18.130  0.00  0.00    -0.030 A 
ATOM     27  C   UNL     1      -8.357  -9.585  17.375  0.00  0.00    +0.008 A 
ATOM     28  C   UNL     1     -10.381 -10.267  18.504  0.00  0.00    +0.008 A 
ATOM     29  C   UNL     1      -8.970  -8.393  16.993  0.00  0.00    +0.038 A 
ATOM     30  C   UNL     1     -10.996  -9.074  18.122  0.00  0.00    +0.038 A 
ATOM     31  C   UNL     1     -10.290  -8.136  17.367  0.00  0.00    +0.123 A 
ENDBRANCH  22  26
ENDBRANCH   7  22
ENDBRANCH  16  18
ENDBRANCH  15  16
ENDBRANCH  10  15
TORSDOF 8
ENDMDL
MODEL 9
REMARK VINA RESULT:      -6.5      2.445      7.169
REMARK  Name = 45360651
REMARK  8 active torsions:
REMARK  status: ('A' for Active; 'I' for Inactive)
REMARK    1  A    between atoms: N_6  and  C_9
REMARK    2  A    between atoms: N_6  and  C_17
REMARK    3  A    between atoms: N_7  and  C_22
REMARK    4  A    between atoms: C_10  and  C_15
REMARK    5  A    between atoms: C_15  and  C_16
REMARK    6  A    between atoms: C_16  and  C_18
REMARK    7  A    between atoms: C_17  and  C_19
REMARK    8  A    between atoms: C_22  and  C_26
REMARK                            x       y       z     vdW  Elec       q    Type
REMARK                         _______ _______ _______ _____ _____    ______ ____
ROOT
ATOM      2  O   UNL     1      -3.019 -12.768  13.781  0.00  0.00    -0.274 OA
ATOM      4  N   UNL     1      -5.586 -11.425  16.001  0.00  0.00    -0.286 NA
ATOM      5  N   UNL     1      -2.826 -11.920  15.882  0.00  0.00    -0.313 N 
ATOM      8  C   UNL     1      -5.084 -12.228  14.879  0.00  0.00    +0.145 C 
ATOM      9  C   UNL     1      -6.443 -10.345  14.165  0.00  0.00    +0.070 C 
ATOM     10  C   UNL     1      -4.842 -11.597  17.243  0.00  0.00    +0.075 C 
ATOM     11  C   UNL     1      -5.666 -11.550  13.629  0.00  0.00    +0.048 C 
ATOM     12  C   UNL     1      -5.777 -10.064  15.506  0.00  0.00    +0.104 C 
ATOM     13  C   UNL     1      -3.373 -11.260  17.046  0.00  0.00    +0.123 C 
ATOM     14  C   UNL     1      -3.563 -12.307  14.788  0.00  0.00    +0.230 C 
ATOM     32  H   UNL     1      -1.817 -11.998  15.818  0.00  0.00    +0.149 HD
ENDROOT
BRANCH   9   6
ATOM      6  N   UNL     1      -6.426  -9.207  13.260  0.00  0.00    -0.308 NA
ATOM     33  H   UNL     1      -6.862  -8.408  13.721  0.00  0.00    +0.123 HD
BRANCH   6  17
ATOM     17  C   UNL     1      -7.160  -9.503  12.036  0.00  0.00    +0.116 C 
BRANCH  17  19
ATOM     19  C   UNL     1      -6.264  -9.480  10.826  0.00  0.00    -0.034 A 
ATOM     20  C   UNL     1      -6.608 -10.214   9.690  0.00  0.00    +0.005 A 
ATOM     21  C   UNL     1      -5.091  -8.727  10.840  0.00  0.00    +0.005 A 
ATOM     23  C   UNL     1      -5.779 -10.193   8.569  0.00  0.00    +0.000 A 
ATOM     24  C   UNL     1      -4.261  -8.706   9.719  0.00  0.00    +0.000 A 
ATOM     25  C   UNL     1      -4.606  -9.440   8.583  0.00  0.00    +0.000 A 
ENDBRANCH  17  19
ENDBRANCH   6  17
ENDBRANCH   9   6
BRANCH  10  15
ATOM     15  C   UNL     1      -5.437 -10.802  18.406  0.00  0.00    +0.029 C 
BRANCH  15  16
ATOM     16  C   UNL     1      -6.325 -11.680  19.276  0.00  0.00    +0.097 C 
BRANCH  16  18
ATOM      3  O   UNL     1      -8.438 -10.801  20.068  0.00  0.00    -0.276 OA
ATOM      7  N   UNL     1      -8.294 -11.612  17.898  0.00  0.00    -0.311 N 
ATOM     18  C   UNL     1      -7.792 -11.308  19.155  0.00  0.00    +0.213 C 
ATOM     34  H   UNL     1      -7.699 -12.058  17.207  0.00  0.00    +0.149 HD
BRANCH   7  22
ATOM     22  C   UNL     1      -9.668 -11.354  17.533  0.00  0.00    +0.139 C 
BRANCH  22  26
ATOM      1  F   UNL     1     -10.324  -6.201  15.349  0.00  0.00    -0.205 F 
ATOM     26  C   UNL     1      -9.843  -9.977  16.949  0.00  0.00    -0.030 A 
ATOM     27  C   UNL     1      -9.531  -9.742  15.610  0.00  0.00    +0.008 A 
ATOM     28  C   UNL     1     -10.317  -8.936  17.748  0.00  0.00    +0.008 A 
ATOM     29  C   UNL     1      -9.693  -8.467  15.069  0.00  0.00    +0.038 A 
ATOM     30  C   UNL     1     -10.479  -7.660  17.208  0.00  0.00    +0.038 A 
ATOM     31  C   UNL     1     -10.167  -7.425  15.868  0.00  0.00    +0.123 A 
ENDBRANCH  22  26
ENDBRANCH   7  22
ENDBRANCH  16  18
ENDBRANCH  15  16
ENDBRANCH  10  15
TORSDOF 8
ENDMDL
MODEL 10
REMARK VINA RESULT:      -6.5     25.404     28.716
REMARK  Name = 45360651
REMARK  8 active torsions:
REMARK  status: ('A' for Active; 'I' for Inactive)
REMARK    1  A    between atoms: N_6  and  C_9
REMARK    2  A    between atoms: N_6  and  C_17
REMARK    3  A    between atoms: N_7  and  C_22
REMARK    4  A    between atoms: C_10  and  C_15
REMARK    5  A    between atoms: C_15  and  C_16
REMARK    6  A    between atoms: C_16  and  C_18
REMARK    7  A    between atoms: C_17  and  C_19
REMARK    8  A    between atoms: C_22  and  C_26
REMARK                            x       y       z     vdW  Elec       q    Type
REMARK                         _______ _______ _______ _____ _____    ______ ____
ROOT
ATOM      2  O   UNL     1      16.131   3.955  -0.653  0.00  0.00    -0.274 OA
ATOM      4  N   UNL     1      14.365   5.344   2.223  0.00  0.00    -0.286 NA
ATOM      5  N   UNL     1      16.198   6.054   0.220  0.00  0.00    -0.313 N 
ATOM      8  C   UNL     1      14.930   4.266   1.401  0.00  0.00    +0.145 C 
ATOM      9  C   UNL     1      12.502   4.239   1.464  0.00  0.00    +0.070 C 
ATOM     10  C   UNL     1      15.274   6.461   2.455  0.00  0.00    +0.075 C 
ATOM     11  C   UNL     1      13.706   3.483   0.900  0.00  0.00    +0.048 C 
ATOM     12  C   UNL     1      13.040   5.646   1.687  0.00  0.00    +0.104 C 
ATOM     13  C   UNL     1      15.735   7.067   1.139  0.00  0.00    +0.123 C 
ATOM     14  C   UNL     1      15.780   4.745   0.227  0.00  0.00    +0.230 C 
ATOM     32  H   UNL     1      16.781   6.354  -0.555  0.00  0.00    +0.149 HD
ENDROOT
BRANCH   9   6
ATOM      6  N   UNL     1      11.340   4.194   0.590  0.00  0.00    -0.308 NA
ATOM     33  H   UNL     1      11.069   3.221   0.446  0.00  0.00    +0.123 HD
BRANCH   6  17
ATOM     17  C   UNL     1      11.636   4.797  -0.703  0.00  0.00    +0.116 C 
BRANCH  17  19
ATOM     19  C   UNL     1      10.912   4.100  -1.825  0.00  0.00    -0.034 A 
ATOM     20  C   UNL     1      11.223   2.777  -2.140  0.00  0.00    +0.005 A 
ATOM     21  C   UNL     1       9.931   4.778  -2.549  0.00  0.00    +0.005 A 
ATOM     23  C   UNL     1      10.551   2.131  -3.178  0.00  0.00    +0.000 A 
ATOM     24  C   UNL     1       9.261   4.132  -3.588  0.00  0.00    +0.000 A 
ATOM     25  C   UNL     1       9.572   2.808  -3.902  0.00  0.00    +0.000 A 
ENDBRANCH  17  19
ENDBRANCH   6  17
ENDBRANCH   9   6
BRANCH  10  15
ATOM     15  C   UNL     1      14.678   7.530   3.373  0.00  0.00    +0.029 C 
BRANCH  15  16
ATOM     16  C   UNL     1      15.471   7.648   4.667  0.00  0.00    +0.097 C 
BRANCH  16  18
ATOM      3  O   UNL     1      14.534   8.887   6.524  0.00  0.00    -0.276 OA
ATOM      7  N   UNL     1      13.810   6.716   6.135  0.00  0.00    -0.311 N 
ATOM     18  C   UNL     1      14.570   7.847   5.873  0.00  0.00    +0.213 C 
ATOM     34  H   UNL     1      13.921   5.885   5.564  0.00  0.00    +0.149 HD
BRANCH   7  22
ATOM     22  C   UNL     1      12.874   6.654   7.234  0.00  0.00    +0.139 C 
BRANCH  22  26
ATOM      1  F   UNL     1       7.569   6.044   5.435  0.00  0.00    -0.205 F 
ATOM     26  C   UNL     1      11.456   6.491   6.753  0.00  0.00    -0.030 A 
ATOM     27  C   UNL     1      10.393   6.736   7.621  0.00  0.00    +0.008 A 
ATOM     28  C   UNL     1      11.207   6.094   5.439  0.00  0.00    +0.008 A 
ATOM     29  C   UNL     1       9.080   6.585   7.177  0.00  0.00    +0.038 A 
ATOM     30  C   UNL     1       9.894   5.943   4.993  0.00  0.00    +0.038 A 
ATOM     31  C   UNL     1       8.830   6.188   5.863  0.00  0.00    +0.123 A 
ENDBRANCH  22  26
ENDBRANCH   7  22
ENDBRANCH  16  18
ENDBRANCH  15  16
ENDBRANCH  10  15
TORSDOF 8
ENDMDL
