MODEL 1
REMARK VINA RESULT:      -6.6      0.000      0.000
REMARK  Name = 45361383
REMARK  13 active torsions:
REMARK  status: ('A' for Active; 'I' for Inactive)
REMARK    1  A    between atoms: O_1  and  C_11
REMARK    2  A    between atoms: O_4  and  C_28
REMARK    3  A    between atoms: O_4  and  C_34
REMARK    4  A    between atoms: O_5  and  C_35
REMARK    5  A    between atoms: O_5  and  C_36
REMARK    6  A    between atoms: N_6  and  C_15
REMARK    7  A    between atoms: C_8  and  C_18
REMARK    8  A    between atoms: C_10  and  C_20
REMARK    9  A    between atoms: C_13  and  C_19
REMARK   10  A    between atoms: C_19  and  C_21
REMARK   11  A    between atoms: C_19  and  C_22
REMARK   12  A    between atoms: C_23  and  C_29
REMARK   13  A    between atoms: C_24  and  C_28
REMARK                            x       y       z     vdW  Elec       q    Type
REMARK                         _______ _______ _______ _____ _____    ______ ____
ROOT
ATOM      8  C   UNL     1     -15.730   7.917  21.202  0.00  0.00    -0.027 C 
ATOM      9  C   UNL     1     -14.467   7.000  21.301  0.00  0.00    +0.028 C 
ATOM     10  C   UNL     1     -14.551   6.069  22.565  0.00  0.00    +0.012 C 
ATOM     11  C   UNL     1     -13.155   7.826  21.168  0.00  0.00    +0.122 C 
ATOM     12  C   UNL     1     -15.669   8.737  19.890  0.00  0.00    +0.007 C 
ATOM     13  C   UNL     1     -13.145   8.724  19.908  0.00  0.00    +0.029 C 
ATOM     14  C   UNL     1     -16.995   7.031  21.143  0.00  0.00    +0.009 C 
ATOM     15  C   UNL     1     -15.863   5.237  22.534  0.00  0.00    +0.076 C 
ATOM     16  C   UNL     1     -14.405   9.579  19.773  0.00  0.00    +0.007 C 
ATOM     17  C   UNL     1     -17.117   6.086  22.332  0.00  0.00    +0.023 C 
ATOM     18  C   UNL     1     -15.848   8.898  22.396  0.00  0.00    +0.011 C 
ATOM     20  C   UNL     1     -13.351   5.117  22.710  0.00  0.00    +0.010 C 
ENDROOT
BRANCH  15   6
ATOM      3  O   UNL     1     -16.635   2.476  22.693  0.00  0.00    -0.270 OA
ATOM      6  N   UNL     1     -16.031   4.454  23.740  0.00  0.00    -0.308 N 
ATOM     23  C   UNL     1     -16.407   3.122  23.713  0.00  0.00    +0.244 C 
ATOM     37  H   UNL     1     -15.971   4.953  24.622  0.00  0.00    +0.149 HD
BRANCH  23  29
ATOM     29  C   UNL     1     -16.561   2.467  25.037  0.00  0.00    +0.037 A 
ATOM     30  C   UNL     1     -17.150   1.206  25.127  0.00  0.00    +0.016 A 
ATOM     31  C   UNL     1     -16.117   3.114  26.191  0.00  0.00    +0.016 A 
ATOM     32  C   UNL     1     -17.297   0.592  26.371  0.00  0.00    +0.046 A 
ATOM     33  C   UNL     1     -16.264   2.499  27.434  0.00  0.00    +0.046 A 
ATOM     35  C   UNL     1     -16.854   1.239  27.525  0.00  0.00    +0.120 A 
BRANCH  35   5
ATOM      5  O   UNL     1     -16.996   0.639  28.739  0.00  0.00    -0.495 OA
ATOM     36  C   UNL     1     -15.923   0.793  29.667  0.00  0.00    +0.277 C 
ENDBRANCH  35   5
ENDBRANCH  23  29
ENDBRANCH  15   6
BRANCH  11   1
ATOM      1  O   UNL     1     -12.042   6.940  21.047  0.00  0.00    -0.391 OA
ATOM     38  H   UNL     1     -11.242   7.421  21.320  0.00  0.00    +0.210 HD
ENDBRANCH  11   1
BRANCH  13  19
ATOM     19  C   UNL     1     -11.906   9.626  19.861  0.00  0.00    +0.078 C 
ATOM     22  C   UNL     1     -11.880  10.581  21.041  0.00  0.00    +0.017 C 
BRANCH  19  21
ATOM      2  O   UNL     1     -12.322  11.566  18.546  0.00  0.00    -0.275 OA
ATOM      7  N   UNL     1     -11.462   9.715  17.455  0.00  0.00    -0.296 N 
ATOM     21  C   UNL     1     -11.922  10.401  18.568  0.00  0.00    +0.219 C 
ATOM     24  C   UNL     1     -11.499  10.285  16.107  0.00  0.00    +0.102 C 
ATOM     25  C   UNL     1     -10.979   8.337  17.435  0.00  0.00    +0.108 C 
ATOM     26  C   UNL     1     -11.326   9.069  15.193  0.00  0.00    +0.026 C 
ATOM     27  C   UNL     1     -10.460   8.126  16.020  0.00  0.00    +0.021 C 
BRANCH  24  28
ATOM     28  C   UNL     1     -10.391  11.318  15.906  0.00  0.00    +0.181 C 
BRANCH  28   4
ATOM      4  O   UNL     1     -10.992  12.575  15.655  0.00  0.00    -0.381 OA
ATOM     34  C   UNL     1     -10.315  13.286  14.623  0.00  0.00    +0.194 C 
ENDBRANCH  28   4
ENDBRANCH  24  28
ENDBRANCH  19  21
ENDBRANCH  13  19
TORSDOF 8
ENDMDL
MODEL 2
REMARK VINA RESULT:      -6.6      1.826      2.774
REMARK  Name = 45361383
REMARK  13 active torsions:
REMARK  status: ('A' for Active; 'I' for Inactive)
REMARK    1  A    between atoms: O_1  and  C_11
REMARK    2  A    between atoms: O_4  and  C_28
REMARK    3  A    between atoms: O_4  and  C_34
REMARK    4  A    between atoms: O_5  and  C_35
REMARK    5  A    between atoms: O_5  and  C_36
REMARK    6  A    between atoms: N_6  and  C_15
REMARK    7  A    between atoms: C_8  and  C_18
REMARK    8  A    between atoms: C_10  and  C_20
REMARK    9  A    between atoms: C_13  and  C_19
REMARK   10  A    between atoms: C_19  and  C_21
REMARK   11  A    between atoms: C_19  and  C_22
REMARK   12  A    between atoms: C_23  and  C_29
REMARK   13  A    between atoms: C_24  and  C_28
REMARK                            x       y       z     vdW  Elec       q    Type
REMARK                         _______ _______ _______ _____ _____    ______ ____
ROOT
ATOM      8  C   UNL     1     -17.169   5.512  21.588  0.00  0.00    -0.027 C 
ATOM      9  C   UNL     1     -15.626   5.379  21.816  0.00  0.00    +0.028 C 
ATOM     10  C   UNL     1     -15.321   4.802  23.245  0.00  0.00    +0.012 C 
ATOM     11  C   UNL     1     -14.886   6.699  21.457  0.00  0.00    +0.122 C 
ATOM     12  C   UNL     1     -17.437   5.973  20.135  0.00  0.00    +0.007 C 
ATOM     13  C   UNL     1     -15.239   7.211  20.040  0.00  0.00    +0.029 C 
ATOM     14  C   UNL     1     -17.827   4.125  21.770  0.00  0.00    +0.009 C 
ATOM     15  C   UNL     1     -16.050   3.444  23.445  0.00  0.00    +0.076 C 
ATOM     16  C   UNL     1     -16.746   7.286  19.792  0.00  0.00    +0.007 C 
ATOM     17  C   UNL     1     -17.544   3.503  23.130  0.00  0.00    +0.023 C 
ATOM     18  C   UNL     1     -17.828   6.522  22.561  0.00  0.00    +0.011 C 
ATOM     20  C   UNL     1     -13.820   4.617  23.528  0.00  0.00    +0.010 C 
ENDROOT
BRANCH  15   6
ATOM      3  O   UNL     1     -17.345   4.422  25.813  0.00  0.00    -0.270 OA
ATOM      6  N   UNL     1     -15.885   2.939  24.792  0.00  0.00    -0.308 N 
ATOM     23  C   UNL     1     -16.558   3.481  25.874  0.00  0.00    +0.244 C 
ATOM     37  H   UNL     1     -15.164   2.239  24.934  0.00  0.00    +0.149 HD
BRANCH  23  29
ATOM     29  C   UNL     1     -16.260   2.868  27.193  0.00  0.00    +0.037 A 
ATOM     30  C   UNL     1     -16.434   1.496  27.380  0.00  0.00    +0.016 A 
ATOM     31  C   UNL     1     -15.807   3.663  28.246  0.00  0.00    +0.016 A 
ATOM     32  C   UNL     1     -16.155   0.921  28.620  0.00  0.00    +0.046 A 
ATOM     33  C   UNL     1     -15.528   3.087  29.485  0.00  0.00    +0.046 A 
ATOM     35  C   UNL     1     -15.703   1.717  29.673  0.00  0.00    +0.120 A 
BRANCH  35   5
ATOM      5  O   UNL     1     -15.430   1.155  30.882  0.00  0.00    -0.495 OA
ATOM     36  C   UNL     1     -15.262  -0.261  30.917  0.00  0.00    +0.277 C 
ENDBRANCH  35   5
ENDBRANCH  23  29
ENDBRANCH  15   6
BRANCH  11   1
ATOM      1  O   UNL     1     -13.476   6.474  21.469  0.00  0.00    -0.391 OA
ATOM     38  H   UNL     1     -13.234   6.023  20.642  0.00  0.00    +0.210 HD
ENDBRANCH  11   1
BRANCH  13  19
ATOM     19  C   UNL     1     -14.605   8.577  19.754  0.00  0.00    +0.078 C 
ATOM     22  C   UNL     1     -15.667   9.638  19.528  0.00  0.00    +0.017 C 
BRANCH  19  21
ATOM      2  O   UNL     1     -14.166   7.951  17.501  0.00  0.00    -0.275 OA
ATOM      7  N   UNL     1     -12.438   8.946  18.675  0.00  0.00    -0.296 N 
ATOM     21  C   UNL     1     -13.727   8.456  18.534  0.00  0.00    +0.219 C 
ATOM     24  C   UNL     1     -11.428   8.820  17.623  0.00  0.00    +0.102 C 
ATOM     25  C   UNL     1     -11.876   9.552  19.878  0.00  0.00    +0.108 C 
ATOM     26  C   UNL     1     -10.107   9.078  18.354  0.00  0.00    +0.026 C 
ATOM     27  C   UNL     1     -10.501  10.049  19.461  0.00  0.00    +0.021 C 
BRANCH  24  28
ATOM     28  C   UNL     1     -11.667   9.822  16.495  0.00  0.00    +0.181 C 
BRANCH  28   4
ATOM      4  O   UNL     1     -10.647   9.660  15.527  0.00  0.00    -0.381 OA
ATOM     34  C   UNL     1     -10.819   8.462  14.777  0.00  0.00    +0.194 C 
ENDBRANCH  28   4
ENDBRANCH  24  28
ENDBRANCH  19  21
ENDBRANCH  13  19
TORSDOF 8
ENDMDL
MODEL 3
REMARK VINA RESULT:      -6.4     19.914     23.732
REMARK  Name = 45361383
REMARK  13 active torsions:
REMARK  status: ('A' for Active; 'I' for Inactive)
REMARK    1  A    between atoms: O_1  and  C_11
REMARK    2  A    between atoms: O_4  and  C_28
REMARK    3  A    between atoms: O_4  and  C_34
REMARK    4  A    between atoms: O_5  and  C_35
REMARK    5  A    between atoms: O_5  and  C_36
REMARK    6  A    between atoms: N_6  and  C_15
REMARK    7  A    between atoms: C_8  and  C_18
REMARK    8  A    between atoms: C_10  and  C_20
REMARK    9  A    between atoms: C_13  and  C_19
REMARK   10  A    between atoms: C_19  and  C_21
REMARK   11  A    between atoms: C_19  and  C_22
REMARK   12  A    between atoms: C_23  and  C_29
REMARK   13  A    between atoms: C_24  and  C_28
REMARK                            x       y       z     vdW  Elec       q    Type
REMARK                         _______ _______ _______ _____ _____    ______ ____
ROOT
ATOM      8  C   UNL     1      -3.674 -11.295  11.155  0.00  0.00    -0.027 C 
ATOM      9  C   UNL     1      -5.136 -10.975  11.612  0.00  0.00    +0.028 C 
ATOM     10  C   UNL     1      -5.879 -10.106  10.534  0.00  0.00    +0.012 C 
ATOM     11  C   UNL     1      -5.165 -10.410  13.061  0.00  0.00    +0.122 C 
ATOM     12  C   UNL     1      -3.009 -12.243  12.182  0.00  0.00    +0.007 C 
ATOM     13  C   UNL     1      -4.409 -11.312  14.065  0.00  0.00    +0.029 C 
ATOM     14  C   UNL     1      -3.718 -12.030   9.796  0.00  0.00    +0.009 C 
ATOM     15  C   UNL     1      -5.853 -10.820   9.154  0.00  0.00    +0.076 C 
ATOM     16  C   UNL     1      -3.001 -11.677  13.596  0.00  0.00    +0.007 C 
ATOM     17  C   UNL     1      -4.452 -11.245   8.717  0.00  0.00    +0.023 C 
ATOM     18  C   UNL     1      -2.802 -10.020  11.019  0.00  0.00    +0.011 C 
ATOM     20  C   UNL     1      -7.336  -9.777  10.906  0.00  0.00    +0.010 C 
ENDROOT
BRANCH  15   6
ATOM      3  O   UNL     1      -7.446 -11.716   6.940  0.00  0.00    -0.270 OA
ATOM      6  N   UNL     1      -6.427  -9.995   8.112  0.00  0.00    -0.308 N 
ATOM     23  C   UNL     1      -7.185 -10.524   7.081  0.00  0.00    +0.244 C 
ATOM     37  H   UNL     1      -6.156  -9.017   8.101  0.00  0.00    +0.149 HD
BRANCH  23  29
ATOM     29  C   UNL     1      -7.680  -9.548   6.077  0.00  0.00    +0.037 A 
ATOM     30  C   UNL     1      -8.341  -8.393   6.494  0.00  0.00    +0.016 A 
ATOM     31  C   UNL     1      -7.484  -9.787   4.717  0.00  0.00    +0.016 A 
ATOM     32  C   UNL     1      -8.808  -7.478   5.550  0.00  0.00    +0.046 A 
ATOM     33  C   UNL     1      -7.951  -8.871   3.774  0.00  0.00    +0.046 A 
ATOM     35  C   UNL     1      -8.613  -7.717   4.190  0.00  0.00    +0.120 A 
BRANCH  35   5
ATOM      5  O   UNL     1      -9.067  -6.824   3.269  0.00  0.00    -0.495 OA
ATOM     36  C   UNL     1     -10.481  -6.649   3.178  0.00  0.00    +0.277 C 
ENDBRANCH  35   5
ENDBRANCH  23  29
ENDBRANCH  15   6
BRANCH  11   1
ATOM      1  O   UNL     1      -6.516 -10.335  13.517  0.00  0.00    -0.391 OA
ATOM     38  H   UNL     1      -6.983  -9.679  12.972  0.00  0.00    +0.210 HD
ENDBRANCH  11   1
BRANCH  13  19
ATOM     19  C   UNL     1      -4.336 -10.676  15.458  0.00  0.00    +0.078 C 
ATOM     22  C   UNL     1      -2.904 -10.619  15.960  0.00  0.00    +0.017 C 
BRANCH  19  21
ATOM      2  O   UNL     1      -4.866 -12.643  16.688  0.00  0.00    -0.275 OA
ATOM      7  N   UNL     1      -6.303 -10.843  16.906  0.00  0.00    -0.296 N 
ATOM     21  C   UNL     1      -5.184 -11.488  16.404  0.00  0.00    +0.219 C 
ATOM     24  C   UNL     1      -7.285 -11.516  17.759  0.00  0.00    +0.102 C 
ATOM     25  C   UNL     1      -6.717  -9.477  16.598  0.00  0.00    +0.108 C 
ATOM     26  C   UNL     1      -8.510 -10.600  17.697  0.00  0.00    +0.026 C 
ATOM     27  C   UNL     1      -7.904  -9.213  17.512  0.00  0.00    +0.021 C 
BRANCH  24  28
ATOM     28  C   UNL     1      -6.763 -11.684  19.186  0.00  0.00    +0.181 C 
BRANCH  28   4
ATOM      4  O   UNL     1      -7.871 -11.844  20.052  0.00  0.00    -0.381 OA
ATOM     34  C   UNL     1      -8.331 -13.191  20.075  0.00  0.00    +0.194 C 
ENDBRANCH  28   4
ENDBRANCH  24  28
ENDBRANCH  19  21
ENDBRANCH  13  19
TORSDOF 8
ENDMDL
MODEL 4
REMARK VINA RESULT:      -6.3     16.433     18.339
REMARK  Name = 45361383
REMARK  13 active torsions:
REMARK  status: ('A' for Active; 'I' for Inactive)
REMARK    1  A    between atoms: O_1  and  C_11
REMARK    2  A    between atoms: O_4  and  C_28
REMARK    3  A    between atoms: O_4  and  C_34
REMARK    4  A    between atoms: O_5  and  C_35
REMARK    5  A    between atoms: O_5  and  C_36
REMARK    6  A    between atoms: N_6  and  C_15
REMARK    7  A    between atoms: C_8  and  C_18
REMARK    8  A    between atoms: C_10  and  C_20
REMARK    9  A    between atoms: C_13  and  C_19
REMARK   10  A    between atoms: C_19  and  C_21
REMARK   11  A    between atoms: C_19  and  C_22
REMARK   12  A    between atoms: C_23  and  C_29
REMARK   13  A    between atoms: C_24  and  C_28
REMARK                            x       y       z     vdW  Elec       q    Type
REMARK                         _______ _______ _______ _____ _____    ______ ____
ROOT
ATOM      8  C   UNL     1     -11.514  -7.468  15.877  0.00  0.00    -0.027 C 
ATOM      9  C   UNL     1     -11.299  -8.631  14.852  0.00  0.00    +0.028 C 
ATOM     10  C   UNL     1      -9.775  -8.996  14.735  0.00  0.00    +0.012 C 
ATOM     11  C   UNL     1     -12.020  -8.338  13.505  0.00  0.00    +0.122 C 
ATOM     12  C   UNL     1     -13.030  -7.210  16.053  0.00  0.00    +0.007 C 
ATOM     13  C   UNL     1     -13.512  -7.978  13.697  0.00  0.00    +0.029 C 
ATOM     14  C   UNL     1     -10.947  -7.894  17.250  0.00  0.00    +0.009 C 
ATOM     15  C   UNL     1      -9.197  -9.350  16.134  0.00  0.00    +0.076 C 
ATOM     16  C   UNL     1     -13.733  -6.884  14.741  0.00  0.00    +0.007 C 
ATOM     17  C   UNL     1      -9.477  -8.286  17.194  0.00  0.00    +0.023 C 
ATOM     18  C   UNL     1     -10.833  -6.149  15.430  0.00  0.00    +0.011 C 
ATOM     20  C   UNL     1      -9.492 -10.155  13.763  0.00  0.00    +0.010 C 
ENDROOT
BRANCH  15   6
ATOM      3  O   UNL     1      -7.769 -11.546  17.310  0.00  0.00    -0.270 OA
ATOM      6  N   UNL     1      -7.768  -9.580  16.082  0.00  0.00    -0.308 N 
ATOM     23  C   UNL     1      -7.171 -10.675  16.683  0.00  0.00    +0.244 C 
ATOM     37  H   UNL     1      -7.200  -8.841  15.680  0.00  0.00    +0.149 HD
BRANCH  23  29
ATOM     29  C   UNL     1      -5.693 -10.752  16.562  0.00  0.00    +0.037 A 
ATOM     30  C   UNL     1      -4.917 -11.070  17.677  0.00  0.00    +0.016 A 
ATOM     31  C   UNL     1      -5.081 -10.505  15.333  0.00  0.00    +0.016 A 
ATOM     32  C   UNL     1      -3.529 -11.141  17.562  0.00  0.00    +0.046 A 
ATOM     33  C   UNL     1      -3.692 -10.577  15.220  0.00  0.00    +0.046 A 
ATOM     35  C   UNL     1      -2.916 -10.894  16.334  0.00  0.00    +0.120 A 
BRANCH  35   5
ATOM      5  O   UNL     1      -1.561 -10.964  16.222  0.00  0.00    -0.495 OA
ATOM     36  C   UNL     1      -0.915  -9.911  15.507  0.00  0.00    +0.277 C 
ENDBRANCH  35   5
ENDBRANCH  23  29
ENDBRANCH  15   6
BRANCH  11   1
ATOM      1  O   UNL     1     -11.984  -9.503  12.681  0.00  0.00    -0.391 OA
ATOM     38  H   UNL     1     -11.126  -9.942  12.815  0.00  0.00    +0.210 HD
ENDBRANCH  11   1
BRANCH  13  19
ATOM     19  C   UNL     1     -14.173  -7.567  12.377  0.00  0.00    +0.078 C 
ATOM     22  C   UNL     1     -14.769  -8.768  11.664  0.00  0.00    +0.017 C 
BRANCH  19  21
ATOM      2  O   UNL     1     -12.380  -7.594  10.811  0.00  0.00    -0.275 OA
ATOM      7  N   UNL     1     -13.112  -5.524  11.542  0.00  0.00    -0.296 N 
ATOM     21  C   UNL     1     -13.135  -6.909  11.502  0.00  0.00    +0.219 C 
ATOM     24  C   UNL     1     -12.107  -4.731  10.831  0.00  0.00    +0.102 C 
ATOM     25  C   UNL     1     -13.987  -4.673  12.344  0.00  0.00    +0.108 C 
ATOM     26  C   UNL     1     -12.191  -3.355  11.496  0.00  0.00    +0.026 C 
ATOM     27  C   UNL     1     -13.654  -3.253  11.912  0.00  0.00    +0.021 C 
BRANCH  24  28
ATOM     28  C   UNL     1     -12.405  -4.665   9.333  0.00  0.00    +0.181 C 
BRANCH  28   4
ATOM      4  O   UNL     1     -11.294  -4.078   8.681  0.00  0.00    -0.381 OA
ATOM     34  C   UNL     1     -10.160  -4.938   8.693  0.00  0.00    +0.194 C 
ENDBRANCH  28   4
ENDBRANCH  24  28
ENDBRANCH  19  21
ENDBRANCH  13  19
TORSDOF 8
ENDMDL
MODEL 5
REMARK VINA RESULT:      -6.2     17.539     22.156
REMARK  Name = 45361383
REMARK  13 active torsions:
REMARK  status: ('A' for Active; 'I' for Inactive)
REMARK    1  A    between atoms: O_1  and  C_11
REMARK    2  A    between atoms: O_4  and  C_28
REMARK    3  A    between atoms: O_4  and  C_34
REMARK    4  A    between atoms: O_5  and  C_35
REMARK    5  A    between atoms: O_5  and  C_36
REMARK    6  A    between atoms: N_6  and  C_15
REMARK    7  A    between atoms: C_8  and  C_18
REMARK    8  A    between atoms: C_10  and  C_20
REMARK    9  A    between atoms: C_13  and  C_19
REMARK   10  A    between atoms: C_19  and  C_21
REMARK   11  A    between atoms: C_19  and  C_22
REMARK   12  A    between atoms: C_23  and  C_29
REMARK   13  A    between atoms: C_24  and  C_28
REMARK                            x       y       z     vdW  Elec       q    Type
REMARK                         _______ _______ _______ _____ _____    ______ ____
ROOT
ATOM      8  C   UNL     1     -10.927  -9.917  18.150  0.00  0.00    -0.027 C 
ATOM      9  C   UNL     1      -9.979 -10.938  18.861  0.00  0.00    +0.028 C 
ATOM     10  C   UNL     1      -8.726 -11.252  17.967  0.00  0.00    +0.012 C 
ATOM     11  C   UNL     1     -10.765 -12.181  19.369  0.00  0.00    +0.122 C 
ATOM     12  C   UNL     1     -12.089  -9.544  19.102  0.00  0.00    +0.007 C 
ATOM     13  C   UNL     1     -11.988 -11.797  20.235  0.00  0.00    +0.029 C 
ATOM     14  C   UNL     1     -10.138  -8.624  17.843  0.00  0.00    +0.009 C 
ATOM     15  C   UNL     1      -7.982  -9.937  17.601  0.00  0.00    +0.076 C 
ATOM     16  C   UNL     1     -12.886 -10.754  19.570  0.00  0.00    +0.007 C 
ATOM     17  C   UNL     1      -8.894  -8.870  16.999  0.00  0.00    +0.023 C 
ATOM     18  C   UNL     1     -11.523 -10.477  16.833  0.00  0.00    +0.011 C 
ATOM     20  C   UNL     1      -7.733 -12.230  18.619  0.00  0.00    +0.010 C 
ENDROOT
BRANCH  15   6
ATOM      3  O   UNL     1      -5.198 -10.156  18.267  0.00  0.00    -0.270 OA
ATOM      6  N   UNL     1      -6.889 -10.176  16.682  0.00  0.00    -0.308 N 
ATOM     23  C   UNL     1      -5.573 -10.267  17.103  0.00  0.00    +0.244 C 
ATOM     37  H   UNL     1      -7.112 -10.164  15.692  0.00  0.00    +0.149 HD
BRANCH  23  29
ATOM     29  C   UNL     1      -4.567 -10.489  16.033  0.00  0.00    +0.037 A 
ATOM     30  C   UNL     1      -3.225 -10.677  16.366  0.00  0.00    +0.016 A 
ATOM     31  C   UNL     1      -4.963 -10.507  14.696  0.00  0.00    +0.016 A 
ATOM     32  C   UNL     1      -2.281 -10.884  15.361  0.00  0.00    +0.046 A 
ATOM     33  C   UNL     1      -4.017 -10.714  13.691  0.00  0.00    +0.046 A 
ATOM     35  C   UNL     1      -2.676 -10.902  14.023  0.00  0.00    +0.120 A 
BRANCH  35   5
ATOM      5  O   UNL     1      -1.755 -11.104  13.043  0.00  0.00    -0.495 OA
ATOM     36  C   UNL     1      -1.925 -10.370  11.831  0.00  0.00    +0.277 C 
ENDBRANCH  35   5
ENDBRANCH  23  29
ENDBRANCH  15   6
BRANCH  11   1
ATOM      1  O   UNL     1      -9.916 -12.980  20.193  0.00  0.00    -0.391 OA
ATOM     38  H   UNL     1     -10.458 -13.675  20.602  0.00  0.00    +0.210 HD
ENDBRANCH  11   1
BRANCH  13  19
ATOM     19  C   UNL     1     -12.823 -13.024  20.616  0.00  0.00    +0.078 C 
ATOM     22  C   UNL     1     -14.145 -13.040  19.870  0.00  0.00    +0.017 C 
BRANCH  19  21
ATOM      2  O   UNL     1     -13.753 -12.106  22.605  0.00  0.00    -0.275 OA
ATOM      7  N   UNL     1     -12.483 -14.027  22.824  0.00  0.00    -0.296 N 
ATOM     21  C   UNL     1     -13.069 -12.999  22.103  0.00  0.00    +0.219 C 
ATOM     24  C   UNL     1     -12.540 -14.099  24.285  0.00  0.00    +0.102 C 
ATOM     25  C   UNL     1     -11.666 -15.105  22.272  0.00  0.00    +0.108 C 
ATOM     26  C   UNL     1     -11.433 -15.094  24.644  0.00  0.00    +0.026 C 
ATOM     27  C   UNL     1     -11.403 -16.036  23.446  0.00  0.00    +0.021 C 
BRANCH  24  28
ATOM     28  C   UNL     1     -13.913 -14.566  24.768  0.00  0.00    +0.181 C 
BRANCH  28   4
ATOM      4  O   UNL     1     -14.262 -13.815  25.916  0.00  0.00    -0.381 OA
ATOM     34  C   UNL     1     -14.295 -14.625  27.086  0.00  0.00    +0.194 C 
ENDBRANCH  28   4
ENDBRANCH  24  28
ENDBRANCH  19  21
ENDBRANCH  13  19
TORSDOF 8
ENDMDL
MODEL 6
REMARK VINA RESULT:      -6.2      2.964     12.065
REMARK  Name = 45361383
REMARK  13 active torsions:
REMARK  status: ('A' for Active; 'I' for Inactive)
REMARK    1  A    between atoms: O_1  and  C_11
REMARK    2  A    between atoms: O_4  and  C_28
REMARK    3  A    between atoms: O_4  and  C_34
REMARK    4  A    between atoms: O_5  and  C_35
REMARK    5  A    between atoms: O_5  and  C_36
REMARK    6  A    between atoms: N_6  and  C_15
REMARK    7  A    between atoms: C_8  and  C_18
REMARK    8  A    between atoms: C_10  and  C_20
REMARK    9  A    between atoms: C_13  and  C_19
REMARK   10  A    between atoms: C_19  and  C_21
REMARK   11  A    between atoms: C_19  and  C_22
REMARK   12  A    between atoms: C_23  and  C_29
REMARK   13  A    between atoms: C_24  and  C_28
REMARK                            x       y       z     vdW  Elec       q    Type
REMARK                         _______ _______ _______ _____ _____    ______ ____
ROOT
ATOM      8  C   UNL     1     -11.544   8.490  18.964  0.00  0.00    -0.027 C 
ATOM      9  C   UNL     1     -12.832   8.060  18.187  0.00  0.00    +0.028 C 
ATOM     10  C   UNL     1     -13.040   8.956  16.912  0.00  0.00    +0.012 C 
ATOM     11  C   UNL     1     -14.059   7.959  19.138  0.00  0.00    +0.122 C 
ATOM     12  C   UNL     1     -11.307   7.519  20.146  0.00  0.00    +0.007 C 
ATOM     13  C   UNL     1     -13.780   7.069  20.373  0.00  0.00    +0.029 C 
ATOM     14  C   UNL     1     -10.326   8.385  18.018  0.00  0.00    +0.009 C 
ATOM     15  C   UNL     1     -11.779   8.902  16.005  0.00  0.00    +0.076 C 
ATOM     16  C   UNL     1     -12.491   7.447  21.102  0.00  0.00    +0.007 C 
ATOM     17  C   UNL     1     -10.481   9.213  16.750  0.00  0.00    +0.023 C 
ATOM     18  C   UNL     1     -11.638   9.934  19.518  0.00  0.00    +0.011 C 
ATOM     20  C   UNL     1     -14.277   8.569  16.082  0.00  0.00    +0.010 C 
ENDROOT
BRANCH  15   6
ATOM      3  O   UNL     1     -11.567   8.215  13.226  0.00  0.00    -0.270 OA
ATOM      6  N   UNL     1     -11.889   9.806  14.880  0.00  0.00    -0.308 N 
ATOM     23  C   UNL     1     -11.772   9.376  13.569  0.00  0.00    +0.244 C 
ATOM     37  H   UNL     1     -11.944  10.798  15.092  0.00  0.00    +0.149 HD
BRANCH  23  29
ATOM     29  C   UNL     1     -11.883  10.431  12.531  0.00  0.00    +0.037 A 
ATOM     30  C   UNL     1     -11.966  11.773  12.905  0.00  0.00    +0.016 A 
ATOM     31  C   UNL     1     -11.904  10.082  11.180  0.00  0.00    +0.016 A 
ATOM     32  C   UNL     1     -12.072  12.764  11.929  0.00  0.00    +0.046 A 
ATOM     33  C   UNL     1     -12.010  11.074  10.205  0.00  0.00    +0.046 A 
ATOM     35  C   UNL     1     -12.094  12.414  10.579  0.00  0.00    +0.120 A 
BRANCH  35   5
ATOM      5  O   UNL     1     -12.197  13.381   9.627  0.00  0.00    -0.495 OA
ATOM     36  C   UNL     1     -12.623  14.673  10.057  0.00  0.00    +0.277 C 
ENDBRANCH  35   5
ENDBRANCH  23  29
ENDBRANCH  15   6
BRANCH  11   1
ATOM      1  O   UNL     1     -15.154   7.362  18.444  0.00  0.00    -0.391 OA
ATOM     38  H   UNL     1     -15.564   8.042  17.883  0.00  0.00    +0.210 HD
ENDBRANCH  11   1
BRANCH  13  19
ATOM     19  C   UNL     1     -14.951   7.087  21.363  0.00  0.00    +0.078 C 
ATOM     22  C   UNL     1     -14.510   7.595  22.724  0.00  0.00    +0.017 C 
BRANCH  19  21
ATOM      2  O   UNL     1     -14.736   4.728  21.595  0.00  0.00    -0.275 OA
ATOM      7  N   UNL     1     -16.882   5.584  21.469  0.00  0.00    -0.296 N 
ATOM     21  C   UNL     1     -15.500   5.688  21.486  0.00  0.00    +0.219 C 
ATOM     24  C   UNL     1     -17.577   4.296  21.481  0.00  0.00    +0.102 C 
ATOM     25  C   UNL     1     -17.824   6.693  21.343  0.00  0.00    +0.108 C 
ATOM     26  C   UNL     1     -18.994   4.642  21.017  0.00  0.00    +0.026 C 
ATOM     27  C   UNL     1     -19.196   6.063  21.530  0.00  0.00    +0.021 C 
BRANCH  24  28
ATOM     28  C   UNL     1     -17.564   3.667  22.874  0.00  0.00    +0.181 C 
BRANCH  28   4
ATOM      4  O   UNL     1     -16.950   2.395  22.786  0.00  0.00    -0.381 OA
ATOM     34  C   UNL     1     -17.904   1.364  22.555  0.00  0.00    +0.194 C 
ENDBRANCH  28   4
ENDBRANCH  24  28
ENDBRANCH  19  21
ENDBRANCH  13  19
TORSDOF 8
ENDMDL
MODEL 7
REMARK VINA RESULT:      -6.0      1.279      2.008
REMARK  Name = 45361383
REMARK  13 active torsions:
REMARK  status: ('A' for Active; 'I' for Inactive)
REMARK    1  A    between atoms: O_1  and  C_11
REMARK    2  A    between atoms: O_4  and  C_28
REMARK    3  A    between atoms: O_4  and  C_34
REMARK    4  A    between atoms: O_5  and  C_35
REMARK    5  A    between atoms: O_5  and  C_36
REMARK    6  A    between atoms: N_6  and  C_15
REMARK    7  A    between atoms: C_8  and  C_18
REMARK    8  A    between atoms: C_10  and  C_20
REMARK    9  A    between atoms: C_13  and  C_19
REMARK   10  A    between atoms: C_19  and  C_21
REMARK   11  A    between atoms: C_19  and  C_22
REMARK   12  A    between atoms: C_23  and  C_29
REMARK   13  A    between atoms: C_24  and  C_28
REMARK                            x       y       z     vdW  Elec       q    Type
REMARK                         _______ _______ _______ _____ _____    ______ ____
ROOT
ATOM      8  C   UNL     1     -15.301   8.031  21.651  0.00  0.00    -0.027 C 
ATOM      9  C   UNL     1     -14.248   6.880  21.534  0.00  0.00    +0.028 C 
ATOM     10  C   UNL     1     -14.339   5.913  22.769  0.00  0.00    +0.012 C 
ATOM     11  C   UNL     1     -12.829   7.441  21.230  0.00  0.00    +0.122 C 
ATOM     12  C   UNL     1     -15.262   8.898  20.370  0.00  0.00    +0.007 C 
ATOM     13  C   UNL     1     -12.815   8.391  20.009  0.00  0.00    +0.029 C 
ATOM     14  C   UNL     1     -16.714   7.414  21.757  0.00  0.00    +0.009 C 
ATOM     15  C   UNL     1     -15.783   5.356  22.910  0.00  0.00    +0.076 C 
ATOM     16  C   UNL     1     -13.883   9.482  20.090  0.00  0.00    +0.007 C 
ATOM     17  C   UNL     1     -16.856   6.444  22.923  0.00  0.00    +0.023 C 
ATOM     18  C   UNL     1     -15.050   8.945  22.878  0.00  0.00    +0.011 C 
ATOM     20  C   UNL     1     -13.348   4.737  22.705  0.00  0.00    +0.010 C 
ENDROOT
BRANCH  15   6
ATOM      3  O   UNL     1     -16.515   2.582  23.030  0.00  0.00    -0.270 OA
ATOM      6  N   UNL     1     -15.934   4.551  24.105  0.00  0.00    -0.308 N 
ATOM     23  C   UNL     1     -16.291   3.215  24.059  0.00  0.00    +0.244 C 
ATOM     37  H   UNL     1     -15.877   5.038  24.994  0.00  0.00    +0.149 HD
BRANCH  23  29
ATOM     29  C   UNL     1     -16.430   2.538  25.373  0.00  0.00    +0.037 A 
ATOM     30  C   UNL     1     -16.070   3.206  26.543  0.00  0.00    +0.016 A 
ATOM     31  C   UNL     1     -16.918   1.232  25.437  0.00  0.00    +0.016 A 
ATOM     32  C   UNL     1     -16.199   2.568  27.777  0.00  0.00    +0.046 A 
ATOM     33  C   UNL     1     -17.046   0.596  26.672  0.00  0.00    +0.046 A 
ATOM     35  C   UNL     1     -16.686   1.263  27.841  0.00  0.00    +0.120 A 
BRANCH  35   5
ATOM      5  O   UNL     1     -16.812   0.641  29.046  0.00  0.00    -0.495 OA
ATOM     36  C   UNL     1     -15.749   0.817  29.980  0.00  0.00    +0.277 C 
ENDBRANCH  35   5
ENDBRANCH  23  29
ENDBRANCH  15   6
BRANCH  11   1
ATOM      1  O   UNL     1     -11.946   6.364  20.919  0.00  0.00    -0.391 OA
ATOM     38  H   UNL     1     -12.201   5.597  21.460  0.00  0.00    +0.210 HD
ENDBRANCH  11   1
BRANCH  13  19
ATOM     19  C   UNL     1     -11.440   9.035  19.804  0.00  0.00    +0.078 C 
ATOM     22  C   UNL     1     -11.515  10.545  19.942  0.00  0.00    +0.017 C 
BRANCH  19  21
ATOM      2  O   UNL     1     -10.453   7.551  18.226  0.00  0.00    -0.275 OA
ATOM      7  N   UNL     1     -11.054   9.652  17.466  0.00  0.00    -0.296 N 
ATOM     21  C   UNL     1     -10.933   8.667  18.433  0.00  0.00    +0.219 C 
ATOM     24  C   UNL     1     -10.525   9.496  16.110  0.00  0.00    +0.102 C 
ATOM     25  C   UNL     1     -11.615  10.986  17.665  0.00  0.00    +0.108 C 
ATOM     26  C   UNL     1     -10.486  10.927  15.567  0.00  0.00    +0.026 C 
ATOM     27  C   UNL     1     -11.652  11.606  16.276  0.00  0.00    +0.021 C 
BRANCH  24  28
ATOM     28  C   UNL     1     -11.414   8.584  15.265  0.00  0.00    +0.181 C 
BRANCH  28   4
ATOM      4  O   UNL     1     -10.983   8.660  13.919  0.00  0.00    -0.381 OA
ATOM     34  C   UNL     1     -10.451   7.421  13.465  0.00  0.00    +0.194 C 
ENDBRANCH  28   4
ENDBRANCH  24  28
ENDBRANCH  19  21
ENDBRANCH  13  19
TORSDOF 8
ENDMDL
MODEL 8
REMARK VINA RESULT:      -6.0     24.227     30.762
REMARK  Name = 45361383
REMARK  13 active torsions:
REMARK  status: ('A' for Active; 'I' for Inactive)
REMARK    1  A    between atoms: O_1  and  C_11
REMARK    2  A    between atoms: O_4  and  C_28
REMARK    3  A    between atoms: O_4  and  C_34
REMARK    4  A    between atoms: O_5  and  C_35
REMARK    5  A    between atoms: O_5  and  C_36
REMARK    6  A    between atoms: N_6  and  C_15
REMARK    7  A    between atoms: C_8  and  C_18
REMARK    8  A    between atoms: C_10  and  C_20
REMARK    9  A    between atoms: C_13  and  C_19
REMARK   10  A    between atoms: C_19  and  C_21
REMARK   11  A    between atoms: C_19  and  C_22
REMARK   12  A    between atoms: C_23  and  C_29
REMARK   13  A    between atoms: C_24  and  C_28
REMARK                            x       y       z     vdW  Elec       q    Type
REMARK                         _______ _______ _______ _____ _____    ______ ____
ROOT
ATOM      8  C   UNL     1       9.492   7.072   4.983  0.00  0.00    -0.027 C 
ATOM      9  C   UNL     1       9.331   7.630   3.530  0.00  0.00    +0.028 C 
ATOM     10  C   UNL     1       7.918   8.293   3.341  0.00  0.00    +0.012 C 
ATOM     11  C   UNL     1       9.713   6.561   2.468  0.00  0.00    +0.122 C 
ATOM     12  C   UNL     1      10.929   6.529   5.170  0.00  0.00    +0.007 C 
ATOM     13  C   UNL     1      11.110   5.946   2.720  0.00  0.00    +0.029 C 
ATOM     14  C   UNL     1       9.290   8.225   5.993  0.00  0.00    +0.009 C 
ATOM     15  C   UNL     1       7.696   9.400   4.409  0.00  0.00    +0.076 C 
ATOM     16  C   UNL     1      11.295   5.453   4.155  0.00  0.00    +0.007 C 
ATOM     17  C   UNL     1       7.947   8.925   5.840  0.00  0.00    +0.023 C 
ATOM     18  C   UNL     1       8.486   5.935   5.298  0.00  0.00    +0.011 C 
ATOM     20  C   UNL     1       7.701   8.891   1.940  0.00  0.00    +0.010 C 
ENDROOT
BRANCH  15   6
ATOM      3  O   UNL     1       6.983  12.180   4.496  0.00  0.00    -0.270 OA
ATOM      6  N   UNL     1       6.360   9.954   4.339  0.00  0.00    -0.308 N 
ATOM     23  C   UNL     1       6.118  11.316   4.389  0.00  0.00    +0.244 C 
ATOM     37  H   UNL     1       5.589   9.293   4.365  0.00  0.00    +0.149 HD
BRANCH  23  29
ATOM     29  C   UNL     1       4.690  11.720   4.331  0.00  0.00    +0.037 A 
ATOM     30  C   UNL     1       3.970  11.571   3.145  0.00  0.00    +0.016 A 
ATOM     31  C   UNL     1       4.069  12.251   5.462  0.00  0.00    +0.016 A 
ATOM     32  C   UNL     1       2.630  11.953   3.091  0.00  0.00    +0.046 A 
ATOM     33  C   UNL     1       2.729  12.633   5.406  0.00  0.00    +0.046 A 
ATOM     35  C   UNL     1       2.009  12.485   4.221  0.00  0.00    +0.120 A 
BRANCH  35   5
ATOM      5  O   UNL     1       0.701  12.857   4.169  0.00  0.00    -0.495 OA
ATOM     36  C   UNL     1      -0.097  12.585   5.320  0.00  0.00    +0.277 C 
ENDBRANCH  35   5
ENDBRANCH  23  29
ENDBRANCH  15   6
BRANCH  11   1
ATOM      1  O   UNL     1       9.761   7.167   1.176  0.00  0.00    -0.391 OA
ATOM     38  H   UNL     1       9.035   6.800   0.643  0.00  0.00    +0.210 HD
ENDBRANCH  11   1
BRANCH  13  19
ATOM     19  C   UNL     1      11.415   4.804   1.744  0.00  0.00    +0.078 C 
ATOM     22  C   UNL     1      11.478   3.469   2.464  0.00  0.00    +0.017 C 
BRANCH  19  21
ATOM      2  O   UNL     1      13.581   5.783   1.622  0.00  0.00    -0.275 OA
ATOM      7  N   UNL     1      12.892   4.519  -0.189  0.00  0.00    -0.296 N 
ATOM     21  C   UNL     1      12.731   5.088   1.064  0.00  0.00    +0.219 C 
ATOM     24  C   UNL     1      14.066   4.772  -1.026  0.00  0.00    +0.102 C 
ATOM     25  C   UNL     1      11.913   3.689  -0.887  0.00  0.00    +0.108 C 
ATOM     26  C   UNL     1      13.621   4.328  -2.422  0.00  0.00    +0.026 C 
ATOM     27  C   UNL     1      12.632   3.203  -2.136  0.00  0.00    +0.021 C 
BRANCH  24  28
ATOM     28  C   UNL     1      15.282   3.989  -0.533  0.00  0.00    +0.181 C 
BRANCH  28   4
ATOM      4  O   UNL     1      16.392   4.866  -0.489  0.00  0.00    -0.381 OA
ATOM     34  C   UNL     1      17.239   4.702  -1.622  0.00  0.00    +0.194 C 
ENDBRANCH  28   4
ENDBRANCH  24  28
ENDBRANCH  19  21
ENDBRANCH  13  19
TORSDOF 8
ENDMDL
MODEL 9
REMARK VINA RESULT:      -5.9     31.227     36.738
REMARK  Name = 45361383
REMARK  13 active torsions:
REMARK  status: ('A' for Active; 'I' for Inactive)
REMARK    1  A    between atoms: O_1  and  C_11
REMARK    2  A    between atoms: O_4  and  C_28
REMARK    3  A    between atoms: O_4  and  C_34
REMARK    4  A    between atoms: O_5  and  C_35
REMARK    5  A    between atoms: O_5  and  C_36
REMARK    6  A    between atoms: N_6  and  C_15
REMARK    7  A    between atoms: C_8  and  C_18
REMARK    8  A    between atoms: C_10  and  C_20
REMARK    9  A    between atoms: C_13  and  C_19
REMARK   10  A    between atoms: C_19  and  C_21
REMARK   11  A    between atoms: C_19  and  C_22
REMARK   12  A    between atoms: C_23  and  C_29
REMARK   13  A    between atoms: C_24  and  C_28
REMARK                            x       y       z     vdW  Elec       q    Type
REMARK                         _______ _______ _______ _____ _____    ______ ____
ROOT
ATOM      8  C   UNL     1      13.507   4.885  -1.848  0.00  0.00    -0.027 C 
ATOM      9  C   UNL     1      14.505   4.231  -0.836  0.00  0.00    +0.028 C 
ATOM     10  C   UNL     1      13.987   4.388   0.639  0.00  0.00    +0.012 C 
ATOM     11  C   UNL     1      15.962   4.714  -1.087  0.00  0.00    +0.122 C 
ATOM     12  C   UNL     1      13.987   4.614  -3.295  0.00  0.00    +0.007 C 
ATOM     13  C   UNL     1      16.401   4.536  -2.560  0.00  0.00    +0.029 C 
ATOM     14  C   UNL     1      12.118   4.227  -1.684  0.00  0.00    +0.009 C 
ATOM     15  C   UNL     1      12.559   3.791   0.775  0.00  0.00    +0.076 C 
ATOM     16  C   UNL     1      15.400   5.121  -3.556  0.00  0.00    +0.007 C 
ATOM     17  C   UNL     1      11.574   4.325  -0.265  0.00  0.00    +0.023 C 
ATOM     18  C   UNL     1      13.374   6.416  -1.647  0.00  0.00    +0.011 C 
ATOM     20  C   UNL     1      14.908   3.741   1.687  0.00  0.00    +0.010 C 
ENDROOT
BRANCH  15   6
ATOM      3  O   UNL     1      11.876   6.330   1.928  0.00  0.00    -0.270 OA
ATOM      6  N   UNL     1      12.003   4.022   2.092  0.00  0.00    -0.308 N 
ATOM     23  C   UNL     1      11.706   5.290   2.559  0.00  0.00    +0.244 C 
ATOM     37  H   UNL     1      11.944   3.219   2.711  0.00  0.00    +0.149 HD
BRANCH  23  29
ATOM     29  C   UNL     1      11.167   5.360   3.941  0.00  0.00    +0.037 A 
ATOM     30  C   UNL     1      11.593   6.368   4.806  0.00  0.00    +0.016 A 
ATOM     31  C   UNL     1      10.235   4.417   4.375  0.00  0.00    +0.016 A 
ATOM     32  C   UNL     1      11.088   6.432   6.105  0.00  0.00    +0.046 A 
ATOM     33  C   UNL     1       9.730   4.482   5.674  0.00  0.00    +0.046 A 
ATOM     35  C   UNL     1      10.157   5.488   6.539  0.00  0.00    +0.120 A 
BRANCH  35   5
ATOM      5  O   UNL     1       9.663   5.551   7.806  0.00  0.00    -0.495 OA
ATOM     36  C   UNL     1       9.673   4.343   8.566  0.00  0.00    +0.277 C 
ENDBRANCH  35   5
ENDBRANCH  23  29
ENDBRANCH  15   6
BRANCH  11   1
ATOM      1  O   UNL     1      16.865   3.941  -0.296  0.00  0.00    -0.391 OA
ATOM     38  H   UNL     1      17.749   4.338  -0.372  0.00  0.00    +0.210 HD
ENDBRANCH  11   1
BRANCH  13  19
ATOM     19  C   UNL     1      17.788   5.137  -2.817  0.00  0.00    +0.078 C 
ATOM     22  C   UNL     1      17.682   6.564  -3.324  0.00  0.00    +0.017 C 
BRANCH  19  21
ATOM      2  O   UNL     1      18.132   4.261  -5.003  0.00  0.00    -0.275 OA
ATOM      7  N   UNL     1      19.578   3.550  -3.342  0.00  0.00    -0.296 N 
ATOM     21  C   UNL     1      18.505   4.280  -3.829  0.00  0.00    +0.219 C 
ATOM     24  C   UNL     1      20.322   2.596  -4.166  0.00  0.00    +0.102 C 
ATOM     25  C   UNL     1      20.055   3.543  -1.962  0.00  0.00    +0.108 C 
ATOM     26  C   UNL     1      21.076   1.742  -3.143  0.00  0.00    +0.026 C 
ATOM     27  C   UNL     1      21.328   2.710  -1.993  0.00  0.00    +0.021 C 
BRANCH  24  28
ATOM     28  C   UNL     1      21.268   3.309  -5.131  0.00  0.00    +0.181 C 
BRANCH  28   4
ATOM      4  O   UNL     1      21.486   2.469  -6.248  0.00  0.00    -0.381 OA
ATOM     34  C   UNL     1      20.263   2.099  -6.877  0.00  0.00    +0.194 C 
ENDBRANCH  28   4
ENDBRANCH  24  28
ENDBRANCH  19  21
ENDBRANCH  13  19
TORSDOF 8
ENDMDL
MODEL 10
REMARK VINA RESULT:      -5.9     18.307     22.927
REMARK  Name = 45361383
REMARK  13 active torsions:
REMARK  status: ('A' for Active; 'I' for Inactive)
REMARK    1  A    between atoms: O_1  and  C_11
REMARK    2  A    between atoms: O_4  and  C_28
REMARK    3  A    between atoms: O_4  and  C_34
REMARK    4  A    between atoms: O_5  and  C_35
REMARK    5  A    between atoms: O_5  and  C_36
REMARK    6  A    between atoms: N_6  and  C_15
REMARK    7  A    between atoms: C_8  and  C_18
REMARK    8  A    between atoms: C_10  and  C_20
REMARK    9  A    between atoms: C_13  and  C_19
REMARK   10  A    between atoms: C_19  and  C_21
REMARK   11  A    between atoms: C_19  and  C_22
REMARK   12  A    between atoms: C_23  and  C_29
REMARK   13  A    between atoms: C_24  and  C_28
REMARK                            x       y       z     vdW  Elec       q    Type
REMARK                         _______ _______ _______ _____ _____    ______ ____
ROOT
ATOM      8  C   UNL     1     -12.108 -11.549  20.162  0.00  0.00    -0.027 C 
ATOM      9  C   UNL     1     -10.959 -12.413  20.779  0.00  0.00    +0.028 C 
ATOM     10  C   UNL     1      -9.707 -12.437  19.830  0.00  0.00    +0.012 C 
ATOM     11  C   UNL     1     -11.480 -13.808  21.229  0.00  0.00    +0.122 C 
ATOM     12  C   UNL     1     -13.279 -11.454  21.169  0.00  0.00    +0.007 C 
ATOM     13  C   UNL     1     -12.717 -13.709  22.153  0.00  0.00    +0.029 C 
ATOM     14  C   UNL     1     -11.584 -10.116  19.914  0.00  0.00    +0.009 C 
ATOM     15  C   UNL     1      -9.234 -10.987  19.527  0.00  0.00    +0.076 C 
ATOM     16  C   UNL     1     -13.819 -12.817  21.583  0.00  0.00    +0.007 C 
ATOM     17  C   UNL     1     -10.352 -10.077  19.020  0.00  0.00    +0.023 C 
ATOM     18  C   UNL     1     -12.643 -12.134  18.830  0.00  0.00    +0.011 C 
ATOM     20  C   UNL     1      -8.525 -13.247  20.389  0.00  0.00    +0.010 C 
ENDROOT
BRANCH  15   6
ATOM      3  O   UNL     1      -6.496 -10.287  20.034  0.00  0.00    -0.270 OA
ATOM      6  N   UNL     1      -8.154 -10.965  18.563  0.00  0.00    -0.308 N 
ATOM     23  C   UNL     1      -6.860 -10.612  18.907  0.00  0.00    +0.244 C 
ATOM     37  H   UNL     1      -8.405 -11.112  17.590  0.00  0.00    +0.149 HD
BRANCH  23  29
ATOM     29  C   UNL     1      -5.874 -10.614  17.797  0.00  0.00    +0.037 A 
ATOM     30  C   UNL     1      -6.219 -10.079  16.556  0.00  0.00    +0.016 A 
ATOM     31  C   UNL     1      -4.602 -11.152  17.996  0.00  0.00    +0.016 A 
ATOM     32  C   UNL     1      -5.292 -10.083  15.513  0.00  0.00    +0.046 A 
ATOM     33  C   UNL     1      -3.675 -11.155  16.952  0.00  0.00    +0.046 A 
ATOM     35  C   UNL     1      -4.021 -10.621  15.711  0.00  0.00    +0.120 A 
BRANCH  35   5
ATOM      5  O   UNL     1      -3.116 -10.624  14.694  0.00  0.00    -0.495 OA
ATOM     36  C   UNL     1      -1.943 -11.418  14.872  0.00  0.00    +0.277 C 
ENDBRANCH  35   5
ENDBRANCH  23  29
ENDBRANCH  15   6
BRANCH  11   1
ATOM      1  O   UNL     1     -10.466 -14.480  21.976  0.00  0.00    -0.391 OA
ATOM     38  H   UNL     1     -10.899 -15.111  22.576  0.00  0.00    +0.210 HD
ENDBRANCH  11   1
BRANCH  13  19
ATOM     19  C   UNL     1     -13.295 -15.091  22.480  0.00  0.00    +0.078 C 
ATOM     22  C   UNL     1     -14.530 -15.380  21.645  0.00  0.00    +0.017 C 
BRANCH  19  21
ATOM      2  O   UNL     1     -14.661 -14.584  24.362  0.00  0.00    -0.275 OA
ATOM      7  N   UNL     1     -12.747 -15.824  24.751  0.00  0.00    -0.296 N 
ATOM     21  C   UNL     1     -13.641 -15.135  23.947  0.00  0.00    +0.219 C 
ATOM     24  C   UNL     1     -12.879 -15.882  26.208  0.00  0.00    +0.102 C 
ATOM     25  C   UNL     1     -11.528 -16.491  24.304  0.00  0.00    +0.108 C 
ATOM     26  C   UNL     1     -11.496 -16.337  26.682  0.00  0.00    +0.026 C 
ATOM     27  C   UNL     1     -11.001 -17.212  25.536  0.00  0.00    +0.021 C 
BRANCH  24  28
ATOM     28  C   UNL     1     -13.981 -16.853  26.631  0.00  0.00    +0.181 C 
BRANCH  28   4
ATOM      4  O   UNL     1     -14.519 -16.411  27.864  0.00  0.00    -0.381 OA
ATOM     34  C   UNL     1     -14.709 -15.001  27.880  0.00  0.00    +0.194 C 
ENDBRANCH  28   4
ENDBRANCH  24  28
ENDBRANCH  19  21
ENDBRANCH  13  19
TORSDOF 8
ENDMDL
