REMARK  Name = 11912132
REMARK  7 active torsions:
REMARK  status: ('A' for Active; 'I' for Inactive)
REMARK    1  A    between atoms: N_8  and  C_18
REMARK    2  A    between atoms: C_11  and  C_14
REMARK    3  A    between atoms: C_14  and  C_18
REMARK    4  A    between atoms: C_18  and  C_30
REMARK    5  A    between atoms: C_19  and  C_27
REMARK    6  A    between atoms: C_20  and  C_24
REMARK    7  A    between atoms: C_31  and  C_32
REMARK                            x       y       z     vdW  Elec       q    Type
REMARK                         _______ _______ _______ _____ _____    ______ ____
ROOT
ATOM      2  O   UNL     1       2.300   2.120   0.866  0.00  0.00    -0.275 OA
ATOM      5  O   UNL     1      -3.540  -1.708   1.002  0.00  0.00    -0.269 OA
ATOM      6  N   UNL     1       0.054   1.800   0.360  0.00  0.00    -0.298 N 
ATOM      7  N   UNL     1      -2.428   0.282   0.587  0.00  0.00    -0.283 N 
ATOM     19  C   UNL     1      -1.148  -0.280   1.024  0.00  0.00    +0.179 C 
ATOM     21  C   UNL     1      -0.127   0.789   1.405  0.00  0.00    +0.139 C 
ATOM     22  C   UNL     1      -1.119   2.130  -0.455  0.00  0.00    +0.127 C 
ATOM     23  C   UNL     1      -2.431   1.698   0.190  0.00  0.00    +0.128 C 
ATOM     24  C   UNL     1       1.307   2.390   0.187  0.00  0.00    +0.219 C 
ATOM     31  C   UNL     1      -3.586  -0.524   0.665  0.00  0.00    +0.254 C 
ENDROOT
BRANCH  24  20
ATOM      9  N   UNL     1       3.436   5.430  -0.224  0.00  0.00    -0.316 NA
ATOM     20  C   UNL     1       1.411   3.420  -0.903  0.00  0.00    +0.078 C 
ATOM     25  C   UNL     1       1.046   4.810  -0.376  0.00  0.00    +0.028 C 
ATOM     26  C   UNL     1       2.810   3.419  -1.522  0.00  0.00    +0.028 C 
ATOM     28  C   UNL     1       2.157   5.413   0.485  0.00  0.00    +0.081 C 
ATOM     29  C   UNL     1       3.846   4.081  -0.612  0.00  0.00    +0.081 C 
ATOM     37  H   UNL     1       4.150   5.839   0.378  0.00  0.00    +0.122 HD
ENDBRANCH  24  20
BRANCH  31  32
ATOM      1  S   UNL     1      -5.776  -0.555  -0.977  0.00  0.00    -0.092 S 
ATOM     32  C   UNL     1      -4.861   0.095   0.317  0.00  0.00    +0.074 A 
ATOM     33  C   UNL     1      -5.482   1.179   0.896  0.00  0.00    +0.021 A 
ATOM     34  C   UNL     1      -6.726   1.481   0.269  0.00  0.00    +0.008 A 
ATOM     35  C   UNL     1      -7.008   0.616  -0.765  0.00  0.00    +0.046 A 
ENDBRANCH  31  32
BRANCH  19  27
ATOM      3  O   UNL     1      -0.847  -0.875  -1.272  0.00  0.00    -0.274 OA
ATOM      8  N   UNL     1       0.098  -2.223   0.375  0.00  0.00    -0.302 N 
ATOM     27  C   UNL     1      -0.622  -1.136  -0.093  0.00  0.00    +0.236 C 
ATOM     36  H   UNL     1       0.166  -2.377   1.377  0.00  0.00    +0.150 HD
BRANCH   8  18
ATOM     18  C   UNL     1       0.691  -3.212  -0.496  0.00  0.00    +0.159 C 
BRANCH  18  30
ATOM      4  O   UNL     1      -1.206  -4.653  -0.016  0.00  0.00    -0.274 OA
ATOM     10  N   UNL     1      -0.231  -4.781  -2.092  0.00  0.00    -0.328 N 
ATOM     30  C   UNL     1      -0.356  -4.270  -0.817  0.00  0.00    +0.231 C 
ATOM     38  H   UNL     1       0.489  -4.470  -2.737  0.00  0.00    +0.145 HD
ATOM     39  H   UNL     1      -0.862  -5.500  -2.428  0.00  0.00    +0.145 HD
ENDBRANCH  18  30
BRANCH  18  14
ATOM     14  C   UNL     1       1.975  -3.806   0.092  0.00  0.00    +0.035 C 
BRANCH  14  11
ATOM     11  C   UNL     1       3.035  -2.769   0.457  0.00  0.00    -0.009 C 
ATOM     12  C   UNL     1       3.431  -1.942  -0.773  0.00  0.00    +0.003 C 
ATOM     13  C   UNL     1       4.264  -3.446   1.079  0.00  0.00    +0.003 C 
ATOM     15  C   UNL     1       4.529  -0.933  -0.445  0.00  0.00    +0.000 C 
ATOM     16  C   UNL     1       5.361  -2.434   1.404  0.00  0.00    +0.000 C 
ATOM     17  C   UNL     1       5.745  -1.608   0.180  0.00  0.00    +0.000 C 
ENDBRANCH  14  11
ENDBRANCH  18  14
ENDBRANCH   8  18
ENDBRANCH  19  27
TORSDOF 7
