MODEL 1
REMARK VINA RESULT:      -5.8      0.000      0.000
REMARK  Name = 38030222
REMARK  11 active torsions:
REMARK  status: ('A' for Active; 'I' for Inactive)
REMARK    1  A    between atoms: O_1  and  C_13
REMARK    2  A    between atoms: N_3  and  C_18
REMARK    3  A    between atoms: N_3  and  C_19
REMARK    4  A    between atoms: C_5  and  C_9
REMARK    5  A    between atoms: C_7  and  C_13
REMARK    6  A    between atoms: C_8  and  C_12
REMARK    7  A    between atoms: C_9  and  C_14
REMARK    8  A    between atoms: C_9  and  C_15
REMARK    9  A    between atoms: C_10  and  C_16
REMARK   10  A    between atoms: C_12  and  C_17
REMARK   11  A    between atoms: C_18  and  C_20
REMARK                            x       y       z     vdW  Elec       q    Type
REMARK                         _______ _______ _______ _____ _____    ______ ____
ROOT
ATOM      5  C   UNL     1     -14.689   2.235  30.600  0.00  0.00    +0.001 C 
ATOM      6  C   UNL     1     -15.920   3.121  30.361  0.00  0.00    +0.012 C 
ATOM      7  C   UNL     1     -15.089   0.739  30.594  0.00  0.00    +0.040 C 
ATOM      8  C   UNL     1     -16.614   2.806  29.022  0.00  0.00    +0.023 C 
ATOM     10  C   UNL     1     -16.803   1.315  28.822  0.00  0.00    -0.073 C 
ATOM     11  C   UNL     1     -16.122   0.407  29.544  0.00  0.00    -0.022 C 
ATOM     16  C   UNL     1     -17.826   0.893  27.805  0.00  0.00    +0.039 C 
ENDROOT
BRANCH   5   9
ATOM      9  C   UNL     1     -14.007   2.637  31.912  0.00  0.00    -0.013 C 
ATOM     14  C   UNL     1     -13.894   4.156  32.009  0.00  0.00    +0.007 C 
ATOM     15  C   UNL     1     -14.775   2.074  33.104  0.00  0.00    +0.007 C 
ENDBRANCH   5   9
BRANCH   8  12
ATOM     12  C   UNL     1     -15.850   3.425  27.845  0.00  0.00    +0.103 C 
BRANCH  12  17
ATOM      2  O   UNL     1     -17.351   5.242  27.410  0.00  0.00    -0.276 OA
ATOM      3  N   UNL     1     -16.830   3.860  25.620  0.00  0.00    -0.300 N 
ATOM     17  C   UNL     1     -16.747   4.266  26.956  0.00  0.00    +0.216 C 
ATOM     19  C   UNL     1     -16.107   2.703  25.108  0.00  0.00    +0.132 C 
BRANCH   3  18
ATOM     18  C   UNL     1     -17.652   4.565  24.638  0.00  0.00    +0.144 C 
BRANCH  18  20
ATOM      4  N   UNL     1     -16.436   4.852  21.069  0.00  0.00    -0.263 NA
ATOM     20  C   UNL     1     -16.850   5.001  23.445  0.00  0.00    -0.012 A 
ATOM     21  C   UNL     1     -15.811   5.916  23.577  0.00  0.00    +0.008 A 
ATOM     22  C   UNL     1     -17.120   4.502  22.181  0.00  0.00    +0.115 A 
ATOM     23  C   UNL     1     -15.085   6.301  22.454  0.00  0.00    +0.020 A 
ATOM     24  C   UNL     1     -15.434   5.744  21.235  0.00  0.00    +0.111 A 
ENDBRANCH  18  20
ENDBRANCH   3  18
ENDBRANCH  12  17
ENDBRANCH   8  12
BRANCH   7  13
ATOM     13  C   UNL     1     -13.862  -0.161  30.407  0.00  0.00    +0.163 C 
BRANCH  13   1
ATOM      1  O   UNL     1     -14.290  -1.381  29.833  0.00  0.00    -0.394 OA
ATOM     25  H   UNL     1     -14.140  -2.078  30.493  0.00  0.00    +0.209 HD
ENDBRANCH  13   1
ENDBRANCH   7  13
TORSDOF 7
ENDMDL
MODEL 2
REMARK VINA RESULT:      -5.8     28.775     30.756
REMARK  Name = 38030222
REMARK  11 active torsions:
REMARK  status: ('A' for Active; 'I' for Inactive)
REMARK    1  A    between atoms: O_1  and  C_13
REMARK    2  A    between atoms: N_3  and  C_18
REMARK    3  A    between atoms: N_3  and  C_19
REMARK    4  A    between atoms: C_5  and  C_9
REMARK    5  A    between atoms: C_7  and  C_13
REMARK    6  A    between atoms: C_8  and  C_12
REMARK    7  A    between atoms: C_9  and  C_14
REMARK    8  A    between atoms: C_9  and  C_15
REMARK    9  A    between atoms: C_10  and  C_16
REMARK   10  A    between atoms: C_12  and  C_17
REMARK   11  A    between atoms: C_18  and  C_20
REMARK                            x       y       z     vdW  Elec       q    Type
REMARK                         _______ _______ _______ _____ _____    ______ ____
ROOT
ATOM      5  C   UNL     1      13.453  11.757  20.987  0.00  0.00    +0.001 C 
ATOM      6  C   UNL     1      12.005  11.256  20.890  0.00  0.00    +0.012 C 
ATOM      7  C   UNL     1      13.592  12.792  22.131  0.00  0.00    +0.040 C 
ATOM      8  C   UNL     1      11.524  10.604  22.200  0.00  0.00    +0.023 C 
ATOM     10  C   UNL     1      11.868  11.449  23.409  0.00  0.00    -0.073 C 
ATOM     11  C   UNL     1      12.786  12.431  23.356  0.00  0.00    -0.022 C 
ATOM     16  C   UNL     1      11.101  11.169  24.671  0.00  0.00    +0.039 C 
ENDROOT
BRANCH   5   9
ATOM      9  C   UNL     1      13.893  12.336  19.639  0.00  0.00    -0.013 C 
ATOM     14  C   UNL     1      13.714  11.302  18.531  0.00  0.00    +0.007 C 
ATOM     15  C   UNL     1      13.110  13.607  19.325  0.00  0.00    +0.007 C 
ENDBRANCH   5   9
BRANCH   8  12
ATOM     12  C   UNL     1      12.083   9.183  22.346  0.00  0.00    +0.103 C 
BRANCH  12  17
ATOM      2  O   UNL     1      10.554   8.050  20.889  0.00  0.00    -0.276 OA
ATOM      3  N   UNL     1      12.814   7.814  20.425  0.00  0.00    -0.300 N 
ATOM     17  C   UNL     1      11.731   8.302  21.162  0.00  0.00    +0.216 C 
ATOM     19  C   UNL     1      14.196   8.125  20.768  0.00  0.00    +0.132 C 
BRANCH   3  18
ATOM     18  C   UNL     1      12.642   6.952  19.256  0.00  0.00    +0.144 C 
BRANCH  18  20
ATOM      4  N   UNL     1      13.870   8.474  16.020  0.00  0.00    -0.263 NA
ATOM     20  C   UNL     1      12.656   7.735  17.975  0.00  0.00    -0.012 A 
ATOM     21  C   UNL     1      11.531   8.432  17.549  0.00  0.00    +0.008 A 
ATOM     22  C   UNL     1      13.791   7.788  17.182  0.00  0.00    +0.115 A 
ATOM     23  C   UNL     1      11.573   9.149  16.358  0.00  0.00    +0.020 A 
ATOM     24  C   UNL     1      12.757   9.139  15.638  0.00  0.00    +0.111 A 
ENDBRANCH  18  20
ENDBRANCH   3  18
ENDBRANCH  12  17
ENDBRANCH   8  12
BRANCH   7  13
ATOM     13  C   UNL     1      15.061  12.987  22.525  0.00  0.00    +0.163 C 
BRANCH  13   1
ATOM      1  O   UNL     1      15.688  11.720  22.539  0.00  0.00    -0.394 OA
ATOM     25  H   UNL     1      16.140  11.613  21.685  0.00  0.00    +0.209 HD
ENDBRANCH  13   1
ENDBRANCH   7  13
TORSDOF 7
ENDMDL
MODEL 3
REMARK VINA RESULT:      -5.8     32.585     35.767
REMARK  Name = 38030222
REMARK  11 active torsions:
REMARK  status: ('A' for Active; 'I' for Inactive)
REMARK    1  A    between atoms: O_1  and  C_13
REMARK    2  A    between atoms: N_3  and  C_18
REMARK    3  A    between atoms: N_3  and  C_19
REMARK    4  A    between atoms: C_5  and  C_9
REMARK    5  A    between atoms: C_7  and  C_13
REMARK    6  A    between atoms: C_8  and  C_12
REMARK    7  A    between atoms: C_9  and  C_14
REMARK    8  A    between atoms: C_9  and  C_15
REMARK    9  A    between atoms: C_10  and  C_16
REMARK   10  A    between atoms: C_12  and  C_17
REMARK   11  A    between atoms: C_18  and  C_20
REMARK                            x       y       z     vdW  Elec       q    Type
REMARK                         _______ _______ _______ _____ _____    ______ ____
ROOT
ATOM      5  C   UNL     1       8.994   8.256   5.903  0.00  0.00    +0.001 C 
ATOM      6  C   UNL     1       8.637   6.888   5.302  0.00  0.00    +0.012 C 
ATOM      7  C   UNL     1       8.717   8.266   7.427  0.00  0.00    +0.040 C 
ATOM      8  C   UNL     1       9.434   5.740   5.951  0.00  0.00    +0.023 C 
ATOM     10  C   UNL     1       9.431   5.837   7.464  0.00  0.00    -0.073 C 
ATOM     11  C   UNL     1       9.095   6.971   8.105  0.00  0.00    -0.022 C 
ATOM     16  C   UNL     1       9.779   4.587   8.222  0.00  0.00    +0.039 C 
ENDROOT
BRANCH   5   9
ATOM      9  C   UNL     1       8.219   9.359   5.176  0.00  0.00    -0.013 C 
ATOM     14  C   UNL     1       9.149  10.513   4.815  0.00  0.00    +0.007 C 
ATOM     15  C   UNL     1       7.541   8.801   3.929  0.00  0.00    +0.007 C 
ENDBRANCH   5   9
BRANCH   8  12
ATOM     12  C   UNL     1      10.867   5.687   5.407  0.00  0.00    +0.103 C 
BRANCH  12  17
ATOM      2  O   UNL     1      10.541   3.957   3.781  0.00  0.00    -0.276 OA
ATOM      3  N   UNL     1      11.445   5.954   3.021  0.00  0.00    -0.300 N 
ATOM     17  C   UNL     1      10.929   5.107   4.007  0.00  0.00    +0.216 C 
ATOM     19  C   UNL     1      11.897   7.308   3.313  0.00  0.00    +0.132 C 
BRANCH   3  18
ATOM     18  C   UNL     1      11.571   5.544   1.623  0.00  0.00    +0.144 C 
BRANCH  18  20
ATOM      4  N   UNL     1      14.537   3.203   1.470  0.00  0.00    -0.263 NA
ATOM     20  C   UNL     1      12.941   5.012   1.316  0.00  0.00    -0.012 A 
ATOM     21  C   UNL     1      13.870   5.783   0.626  0.00  0.00    +0.008 A 
ATOM     22  C   UNL     1      13.320   3.740   1.713  0.00  0.00    +0.115 A 
ATOM     23  C   UNL     1      15.133   5.265   0.357  0.00  0.00    +0.020 A 
ATOM     24  C   UNL     1      15.414   3.981   0.798  0.00  0.00    +0.111 A 
ENDBRANCH  18  20
ENDBRANCH   3  18
ENDBRANCH  12  17
ENDBRANCH   8  12
BRANCH   7  13
ATOM     13  C   UNL     1       9.440   9.431   8.112  0.00  0.00    +0.163 C 
BRANCH  13   1
ATOM      1  O   UNL     1      10.816   9.347   7.797  0.00  0.00    -0.394 OA
ATOM     25  H   UNL     1      11.068   8.410   7.856  0.00  0.00    +0.209 HD
ENDBRANCH  13   1
ENDBRANCH   7  13
TORSDOF 7
ENDMDL
MODEL 4
REMARK VINA RESULT:      -5.6     20.614     22.183
REMARK  Name = 38030222
REMARK  11 active torsions:
REMARK  status: ('A' for Active; 'I' for Inactive)
REMARK    1  A    between atoms: O_1  and  C_13
REMARK    2  A    between atoms: N_3  and  C_18
REMARK    3  A    between atoms: N_3  and  C_19
REMARK    4  A    between atoms: C_5  and  C_9
REMARK    5  A    between atoms: C_7  and  C_13
REMARK    6  A    between atoms: C_8  and  C_12
REMARK    7  A    between atoms: C_9  and  C_14
REMARK    8  A    between atoms: C_9  and  C_15
REMARK    9  A    between atoms: C_10  and  C_16
REMARK   10  A    between atoms: C_12  and  C_17
REMARK   11  A    between atoms: C_18  and  C_20
REMARK                            x       y       z     vdW  Elec       q    Type
REMARK                         _______ _______ _______ _____ _____    ______ ____
ROOT
ATOM      5  C   UNL     1      -4.155 -11.378  16.272  0.00  0.00    +0.001 C 
ATOM      6  C   UNL     1      -4.709 -10.223  15.426  0.00  0.00    +0.012 C 
ATOM      7  C   UNL     1      -4.375 -11.097  17.780  0.00  0.00    +0.040 C 
ATOM      8  C   UNL     1      -6.213  -9.992  15.665  0.00  0.00    +0.023 C 
ATOM     10  C   UNL     1      -6.551  -9.972  17.143  0.00  0.00    -0.073 C 
ATOM     11  C   UNL     1      -5.711 -10.458  18.074  0.00  0.00    -0.022 C 
ATOM     16  C   UNL     1      -7.858  -9.338  17.529  0.00  0.00    +0.039 C 
ENDROOT
BRANCH   5   9
ATOM      9  C   UNL     1      -2.675 -11.598  15.945  0.00  0.00    -0.013 C 
ATOM     14  C   UNL     1      -2.528 -12.304  14.600  0.00  0.00    +0.007 C 
ATOM     15  C   UNL     1      -1.927 -10.269  15.943  0.00  0.00    +0.007 C 
ENDBRANCH   5   9
BRANCH   8  12
ATOM     12  C   UNL     1      -7.057 -11.037  14.924  0.00  0.00    +0.103 C 
BRANCH  12  17
ATOM      2  O   UNL     1      -7.411  -9.848  12.874  0.00  0.00    -0.276 OA
ATOM      3  N   UNL     1      -6.412 -11.936  12.715  0.00  0.00    -0.300 N 
ATOM     17  C   UNL     1      -6.985 -10.870  13.418  0.00  0.00    +0.216 C 
ATOM     19  C   UNL     1      -5.917 -13.134  13.381  0.00  0.00    +0.132 C 
BRANCH   3  18
ATOM     18  C   UNL     1      -6.271 -11.929  11.260  0.00  0.00    +0.144 C 
BRANCH  18  20
ATOM      4  N   UNL     1      -4.530  -9.189   9.320  0.00  0.00    -0.263 NA
ATOM     20  C   UNL     1      -5.206 -10.972  10.805  0.00  0.00    -0.012 A 
ATOM     21  C   UNL     1      -3.949 -10.963  11.400  0.00  0.00    +0.008 A 
ATOM     22  C   UNL     1      -5.444 -10.074   9.778  0.00  0.00    +0.115 A 
ATOM     23  C   UNL     1      -2.983 -10.067  10.957  0.00  0.00    +0.020 A 
ATOM     24  C   UNL     1      -3.320  -9.209   9.922  0.00  0.00    +0.111 A 
ENDBRANCH  18  20
ENDBRANCH   3  18
ENDBRANCH  12  17
ENDBRANCH   8  12
BRANCH   7  13
ATOM     13  C   UNL     1      -4.229 -12.379  18.608  0.00  0.00    +0.163 C 
BRANCH  13   1
ATOM      1  O   UNL     1      -3.145 -12.208  19.501  0.00  0.00    -0.394 OA
ATOM     25  H   UNL     1      -3.267 -11.351  19.942  0.00  0.00    +0.209 HD
ENDBRANCH  13   1
ENDBRANCH   7  13
TORSDOF 7
ENDMDL
MODEL 5
REMARK VINA RESULT:      -5.5     30.952     32.825
REMARK  Name = 38030222
REMARK  11 active torsions:
REMARK  status: ('A' for Active; 'I' for Inactive)
REMARK    1  A    between atoms: O_1  and  C_13
REMARK    2  A    between atoms: N_3  and  C_18
REMARK    3  A    between atoms: N_3  and  C_19
REMARK    4  A    between atoms: C_5  and  C_9
REMARK    5  A    between atoms: C_7  and  C_13
REMARK    6  A    between atoms: C_8  and  C_12
REMARK    7  A    between atoms: C_9  and  C_14
REMARK    8  A    between atoms: C_9  and  C_15
REMARK    9  A    between atoms: C_10  and  C_16
REMARK   10  A    between atoms: C_12  and  C_17
REMARK   11  A    between atoms: C_18  and  C_20
REMARK                            x       y       z     vdW  Elec       q    Type
REMARK                         _______ _______ _______ _____ _____    ______ ____
ROOT
ATOM      5  C   UNL     1      14.132   7.604  20.161  0.00  0.00    +0.001 C 
ATOM      6  C   UNL     1      14.837   8.962  20.028  0.00  0.00    +0.012 C 
ATOM      7  C   UNL     1      13.180   7.608  21.383  0.00  0.00    +0.040 C 
ATOM      8  C   UNL     1      13.839  10.124  19.866  0.00  0.00    +0.023 C 
ATOM     10  C   UNL     1      12.712  10.044  20.877  0.00  0.00    -0.073 C 
ATOM     11  C   UNL     1      12.442   8.914  21.554  0.00  0.00    -0.022 C 
ATOM     16  C   UNL     1      11.933  11.305  21.123  0.00  0.00    +0.039 C 
ENDROOT
BRANCH   5   9
ATOM      9  C   UNL     1      15.174   6.485  20.255  0.00  0.00    -0.013 C 
ATOM     14  C   UNL     1      16.017   6.436  18.984  0.00  0.00    +0.007 C 
ATOM     15  C   UNL     1      16.057   6.682  21.483  0.00  0.00    +0.007 C 
ENDBRANCH   5   9
BRANCH   8  12
ATOM     12  C   UNL     1      13.290  10.186  18.436  0.00  0.00    +0.103 C 
BRANCH  12  17
ATOM      2  O   UNL     1      13.745  12.525  18.182  0.00  0.00    -0.276 OA
ATOM      3  N   UNL     1      14.308  11.149  16.401  0.00  0.00    -0.300 N 
ATOM     17  C   UNL     1      13.795  11.400  17.678  0.00  0.00    +0.216 C 
ATOM     19  C   UNL     1      14.356   9.810  15.828  0.00  0.00    +0.132 C 
BRANCH   3  18
ATOM     18  C   UNL     1      14.833  12.211  15.545  0.00  0.00    +0.144 C 
BRANCH  18  20
ATOM      4  N   UNL     1      18.344  12.945  16.743  0.00  0.00    -0.263 NA
ATOM     20  C   UNL     1      16.333  12.272  15.582  0.00  0.00    -0.012 A 
ATOM     21  C   UNL     1      17.097  11.747  14.546  0.00  0.00    +0.008 A 
ATOM     22  C   UNL     1      16.998  12.856  16.648  0.00  0.00    +0.115 A 
ATOM     23  C   UNL     1      18.485  11.819  14.608  0.00  0.00    +0.020 A 
ATOM     24  C   UNL     1      19.054  12.423  15.717  0.00  0.00    +0.111 A 
ENDBRANCH  18  20
ENDBRANCH   3  18
ENDBRANCH  12  17
ENDBRANCH   8  12
BRANCH   7  13
ATOM     13  C   UNL     1      12.170   6.457  21.301  0.00  0.00    +0.163 C 
BRANCH  13   1
ATOM      1  O   UNL     1      11.889   6.211  19.937  0.00  0.00    -0.394 OA
ATOM     25  H   UNL     1      12.274   6.943  19.427  0.00  0.00    +0.209 HD
ENDBRANCH  13   1
ENDBRANCH   7  13
TORSDOF 7
ENDMDL
MODEL 6
REMARK VINA RESULT:      -5.5     21.803     23.663
REMARK  Name = 38030222
REMARK  11 active torsions:
REMARK  status: ('A' for Active; 'I' for Inactive)
REMARK    1  A    between atoms: O_1  and  C_13
REMARK    2  A    between atoms: N_3  and  C_18
REMARK    3  A    between atoms: N_3  and  C_19
REMARK    4  A    between atoms: C_5  and  C_9
REMARK    5  A    between atoms: C_7  and  C_13
REMARK    6  A    between atoms: C_8  and  C_12
REMARK    7  A    between atoms: C_9  and  C_14
REMARK    8  A    between atoms: C_9  and  C_15
REMARK    9  A    between atoms: C_10  and  C_16
REMARK   10  A    between atoms: C_12  and  C_17
REMARK   11  A    between atoms: C_18  and  C_20
REMARK                            x       y       z     vdW  Elec       q    Type
REMARK                         _______ _______ _______ _____ _____    ______ ____
ROOT
ATOM      5  C   UNL     1      -4.150 -11.392  12.560  0.00  0.00    +0.001 C 
ATOM      6  C   UNL     1      -3.768 -11.421  11.073  0.00  0.00    +0.012 C 
ATOM      7  C   UNL     1      -2.881 -11.295  13.443  0.00  0.00    +0.040 C 
ATOM      8  C   UNL     1      -2.973 -10.171  10.650  0.00  0.00    +0.023 C 
ATOM     10  C   UNL     1      -1.861  -9.853  11.629  0.00  0.00    -0.073 C 
ATOM     11  C   UNL     1      -1.829 -10.376  12.868  0.00  0.00    -0.022 C 
ATOM     16  C   UNL     1      -0.761  -8.956  11.134  0.00  0.00    +0.039 C 
ENDROOT
BRANCH   5   9
ATOM      9  C   UNL     1      -4.989 -12.627  12.904  0.00  0.00    -0.013 C 
ATOM     14  C   UNL     1      -6.216 -12.705  12.000  0.00  0.00    +0.007 C 
ATOM     15  C   UNL     1      -4.147 -13.893  12.784  0.00  0.00    +0.007 C 
ENDBRANCH   5   9
BRANCH   8  12
ATOM     12  C   UNL     1      -3.902  -8.964  10.464  0.00  0.00    +0.103 C 
BRANCH  12  17
ATOM      2  O   UNL     1      -4.708  -9.451   8.260  0.00  0.00    -0.276 OA
ATOM      3  N   UNL     1      -6.301  -9.205   9.928  0.00  0.00    -0.300 N 
ATOM     17  C   UNL     1      -4.990  -9.229   9.440  0.00  0.00    +0.216 C 
ATOM     19  C   UNL     1      -6.609  -8.940  11.328  0.00  0.00    +0.132 C 
BRANCH   3  18
ATOM     18  C   UNL     1      -7.460  -9.440   9.069  0.00  0.00    +0.144 C 
BRANCH  18  20
ATOM      4  N   UNL     1     -10.420  -7.097   9.287  0.00  0.00    -0.263 NA
ATOM     20  C   UNL     1      -8.306  -8.208   8.918  0.00  0.00    -0.012 A 
ATOM     21  C   UNL     1      -7.807  -7.069   8.295  0.00  0.00    +0.008 A 
ATOM     22  C   UNL     1      -9.607  -8.171   9.392  0.00  0.00    +0.115 A 
ATOM     23  C   UNL     1      -8.614  -5.943   8.169  0.00  0.00    +0.020 A 
ATOM     24  C   UNL     1      -9.902  -6.008   8.676  0.00  0.00    +0.111 A 
ENDBRANCH  18  20
ENDBRANCH   3  18
ENDBRANCH  12  17
ENDBRANCH   8  12
BRANCH   7  13
ATOM     13  C   UNL     1      -3.230 -10.845  14.866  0.00  0.00    +0.163 C 
BRANCH  13   1
ATOM      1  O   UNL     1      -2.251  -9.917  15.290  0.00  0.00    -0.394 OA
ATOM     25  H   UNL     1      -2.018 -10.143  16.207  0.00  0.00    +0.209 HD
ENDBRANCH  13   1
ENDBRANCH   7  13
TORSDOF 7
ENDMDL
MODEL 7
REMARK VINA RESULT:      -5.5     29.656     31.706
REMARK  Name = 38030222
REMARK  11 active torsions:
REMARK  status: ('A' for Active; 'I' for Inactive)
REMARK    1  A    between atoms: O_1  and  C_13
REMARK    2  A    between atoms: N_3  and  C_18
REMARK    3  A    between atoms: N_3  and  C_19
REMARK    4  A    between atoms: C_5  and  C_9
REMARK    5  A    between atoms: C_7  and  C_13
REMARK    6  A    between atoms: C_8  and  C_12
REMARK    7  A    between atoms: C_9  and  C_14
REMARK    8  A    between atoms: C_9  and  C_15
REMARK    9  A    between atoms: C_10  and  C_16
REMARK   10  A    between atoms: C_12  and  C_17
REMARK   11  A    between atoms: C_18  and  C_20
REMARK                            x       y       z     vdW  Elec       q    Type
REMARK                         _______ _______ _______ _____ _____    ______ ____
ROOT
ATOM      5  C   UNL     1      13.842   9.368  18.931  0.00  0.00    +0.001 C 
ATOM      6  C   UNL     1      15.004   9.903  19.780  0.00  0.00    +0.012 C 
ATOM      7  C   UNL     1      14.270   8.087  18.172  0.00  0.00    +0.040 C 
ATOM      8  C   UNL     1      15.500   8.868  20.808  0.00  0.00    +0.023 C 
ATOM     10  C   UNL     1      15.691   7.500  20.184  0.00  0.00    -0.073 C 
ATOM     11  C   UNL     1      15.145   7.175  18.998  0.00  0.00    -0.022 C 
ATOM     16  C   UNL     1      16.562   6.531  20.932  0.00  0.00    +0.039 C 
ENDROOT
BRANCH   5   9
ATOM      9  C   UNL     1      13.352  10.460  17.975  0.00  0.00    -0.013 C 
ATOM     14  C   UNL     1      13.417  11.826  18.650  0.00  0.00    +0.007 C 
ATOM     15  C   UNL     1      14.176  10.450  16.691  0.00  0.00    +0.007 C 
ENDBRANCH   5   9
BRANCH   8  12
ATOM     12  C   UNL     1      14.557   8.793  22.015  0.00  0.00    +0.103 C 
BRANCH  12  17
ATOM      2  O   UNL     1      15.252  10.832  23.065  0.00  0.00    -0.276 OA
ATOM      3  N   UNL     1      12.978  10.569  22.690  0.00  0.00    -0.300 N 
ATOM     17  C   UNL     1      14.313  10.155  22.639  0.00  0.00    +0.216 C 
ATOM     19  C   UNL     1      11.885   9.750  22.180  0.00  0.00    +0.132 C 
BRANCH   3  18
ATOM     18  C   UNL     1      12.578  11.854  23.260  0.00  0.00    +0.144 C 
BRANCH  18  20
ATOM      4  N   UNL     1      13.586  14.695  20.978  0.00  0.00    -0.263 NA
ATOM     20  C   UNL     1      12.494  12.930  22.216  0.00  0.00    -0.012 A 
ATOM     21  C   UNL     1      11.308  13.174  21.533  0.00  0.00    +0.008 A 
ATOM     22  C   UNL     1      13.595  13.711  21.905  0.00  0.00    +0.115 A 
ATOM     23  C   UNL     1      11.260  14.178  20.571  0.00  0.00    +0.020 A 
ATOM     24  C   UNL     1      12.416  14.904  20.334  0.00  0.00    +0.111 A 
ENDBRANCH  18  20
ENDBRANCH   3  18
ENDBRANCH  12  17
ENDBRANCH   8  12
BRANCH   7  13
ATOM     13  C   UNL     1      13.050   7.308  17.668  0.00  0.00    +0.163 C 
BRANCH  13   1
ATOM      1  O   UNL     1      12.299   6.887  18.790  0.00  0.00    -0.394 OA
ATOM     25  H   UNL     1      12.842   7.053  19.579  0.00  0.00    +0.209 HD
ENDBRANCH  13   1
ENDBRANCH   7  13
TORSDOF 7
ENDMDL
MODEL 8
REMARK VINA RESULT:      -5.4      6.506     12.981
REMARK  Name = 38030222
REMARK  11 active torsions:
REMARK  status: ('A' for Active; 'I' for Inactive)
REMARK    1  A    between atoms: O_1  and  C_13
REMARK    2  A    between atoms: N_3  and  C_18
REMARK    3  A    between atoms: N_3  and  C_19
REMARK    4  A    between atoms: C_5  and  C_9
REMARK    5  A    between atoms: C_7  and  C_13
REMARK    6  A    between atoms: C_8  and  C_12
REMARK    7  A    between atoms: C_9  and  C_14
REMARK    8  A    between atoms: C_9  and  C_15
REMARK    9  A    between atoms: C_10  and  C_16
REMARK   10  A    between atoms: C_12  and  C_17
REMARK   11  A    between atoms: C_18  and  C_20
REMARK                            x       y       z     vdW  Elec       q    Type
REMARK                         _______ _______ _______ _____ _____    ______ ____
ROOT
ATOM      5  C   UNL     1     -12.639   8.181  15.034  0.00  0.00    +0.001 C 
ATOM      6  C   UNL     1     -13.296   9.065  16.104  0.00  0.00    +0.012 C 
ATOM      7  C   UNL     1     -11.214   8.695  14.708  0.00  0.00    +0.040 C 
ATOM      8  C   UNL     1     -12.480   9.105  17.410  0.00  0.00    +0.023 C 
ATOM     10  C   UNL     1     -11.007   9.343  17.147  0.00  0.00    -0.073 C 
ATOM     11  C   UNL     1     -10.462   9.168  15.929  0.00  0.00    -0.022 C 
ATOM     16  C   UNL     1     -10.183   9.832  18.305  0.00  0.00    +0.039 C 
ENDROOT
BRANCH   5   9
ATOM      9  C   UNL     1     -13.525   8.130  13.786  0.00  0.00    -0.013 C 
ATOM     14  C   UNL     1     -14.845   7.433  14.099  0.00  0.00    +0.007 C 
ATOM     15  C   UNL     1     -13.771   9.538  13.251  0.00  0.00    +0.007 C 
ENDBRANCH   5   9
BRANCH   8  12
ATOM     12  C   UNL     1     -12.691   7.827  18.232  0.00  0.00    +0.103 C 
BRANCH  12  17
ATOM      2  O   UNL     1     -14.695   8.652  19.254  0.00  0.00    -0.276 OA
ATOM      3  N   UNL     1     -13.210   7.515  20.626  0.00  0.00    -0.300 N 
ATOM     17  C   UNL     1     -13.632   8.044  19.402  0.00  0.00    +0.216 C 
ATOM     19  C   UNL     1     -11.948   6.802  20.776  0.00  0.00    +0.132 C 
BRANCH   3  18
ATOM     18  C   UNL     1     -14.003   7.641  21.848  0.00  0.00    +0.144 C 
BRANCH  18  20
ATOM      4  N   UNL     1     -16.354   4.688  21.619  0.00  0.00    -0.263 NA
ATOM     20  C   UNL     1     -14.706   6.360  22.195  0.00  0.00    -0.012 A 
ATOM     21  C   UNL     1     -14.399   5.667  23.360  0.00  0.00    +0.008 A 
ATOM     22  C   UNL     1     -15.683   5.834  21.365  0.00  0.00    +0.115 A 
ATOM     23  C   UNL     1     -15.067   4.483  23.655  0.00  0.00    +0.020 A 
ATOM     24  C   UNL     1     -16.028   4.041  22.760  0.00  0.00    +0.111 A 
ENDBRANCH  18  20
ENDBRANCH   3  18
ENDBRANCH  12  17
ENDBRANCH   8  12
BRANCH   7  13
ATOM     13  C   UNL     1     -10.391   7.624  13.984  0.00  0.00    +0.163 C 
BRANCH  13   1
ATOM      1  O   UNL     1     -10.034   6.629  14.924  0.00  0.00    -0.394 OA
ATOM     25  H   UNL     1      -9.195   6.904  15.329  0.00  0.00    +0.209 HD
ENDBRANCH  13   1
ENDBRANCH   7  13
TORSDOF 7
ENDMDL
MODEL 9
REMARK VINA RESULT:      -5.4     33.814     38.234
REMARK  Name = 38030222
REMARK  11 active torsions:
REMARK  status: ('A' for Active; 'I' for Inactive)
REMARK    1  A    between atoms: O_1  and  C_13
REMARK    2  A    between atoms: N_3  and  C_18
REMARK    3  A    between atoms: N_3  and  C_19
REMARK    4  A    between atoms: C_5  and  C_9
REMARK    5  A    between atoms: C_7  and  C_13
REMARK    6  A    between atoms: C_8  and  C_12
REMARK    7  A    between atoms: C_9  and  C_14
REMARK    8  A    between atoms: C_9  and  C_15
REMARK    9  A    between atoms: C_10  and  C_16
REMARK   10  A    between atoms: C_12  and  C_17
REMARK   11  A    between atoms: C_18  and  C_20
REMARK                            x       y       z     vdW  Elec       q    Type
REMARK                         _______ _______ _______ _____ _____    ______ ____
ROOT
ATOM      5  C   UNL     1       9.398   4.455  -2.978  0.00  0.00    +0.001 C 
ATOM      6  C   UNL     1      10.316   5.496  -2.321  0.00  0.00    +0.012 C 
ATOM      7  C   UNL     1      10.229   3.263  -3.516  0.00  0.00    +0.040 C 
ATOM      8  C   UNL     1      11.130   4.902  -1.155  0.00  0.00    +0.023 C 
ATOM     10  C   UNL     1      11.766   3.578  -1.528  0.00  0.00    -0.073 C 
ATOM     11  C   UNL     1      11.359   2.867  -2.595  0.00  0.00    -0.022 C 
ATOM     16  C   UNL     1      12.911   3.113  -0.673  0.00  0.00    +0.039 C 
ENDROOT
BRANCH   5   9
ATOM      9  C   UNL     1       8.572   5.117  -4.085  0.00  0.00    -0.013 C 
ATOM     14  C   UNL     1       7.672   6.202  -3.500  0.00  0.00    +0.007 C 
ATOM     15  C   UNL     1       9.489   5.696  -5.159  0.00  0.00    +0.007 C 
ENDBRANCH   5   9
BRANCH   8  12
ATOM     12  C   UNL     1      10.266   4.760   0.105  0.00  0.00    +0.103 C 
BRANCH  12  17
ATOM      2  O   UNL     1      10.505   6.993   0.943  0.00  0.00    -0.276 OA
ATOM      3  N   UNL     1      11.084   5.266   2.380  0.00  0.00    -0.300 N 
ATOM     17  C   UNL     1      10.624   5.785   1.165  0.00  0.00    +0.216 C 
ATOM     19  C   UNL     1      11.216   3.834   2.618  0.00  0.00    +0.132 C 
BRANCH   3  18
ATOM     18  C   UNL     1      11.469   6.121   3.501  0.00  0.00    +0.144 C 
BRANCH  18  20
ATOM      4  N   UNL     1       8.195   7.248   5.020  0.00  0.00    -0.263 NA
ATOM     20  C   UNL     1      10.350   6.292   4.488  0.00  0.00    -0.012 A 
ATOM     21  C   UNL     1      10.401   5.691   5.740  0.00  0.00    +0.008 A 
ATOM     22  C   UNL     1       9.235   7.054   4.179  0.00  0.00    +0.115 A 
ATOM     23  C   UNL     1       9.350   5.868   6.633  0.00  0.00    +0.020 A 
ATOM     24  C   UNL     1       8.280   6.649   6.228  0.00  0.00    +0.111 A 
ENDBRANCH  18  20
ENDBRANCH   3  18
ENDBRANCH  12  17
ENDBRANCH   8  12
BRANCH   7  13
ATOM     13  C   UNL     1       9.339   2.045  -3.786  0.00  0.00    +0.163 C 
BRANCH  13   1
ATOM      1  O   UNL     1       9.567   1.094  -2.765  0.00  0.00    -0.394 OA
ATOM     25  H   UNL     1      10.479   1.219  -2.454  0.00  0.00    +0.209 HD
ENDBRANCH  13   1
ENDBRANCH   7  13
TORSDOF 7
ENDMDL
MODEL 10
REMARK VINA RESULT:      -5.4     20.448     22.147
REMARK  Name = 38030222
REMARK  11 active torsions:
REMARK  status: ('A' for Active; 'I' for Inactive)
REMARK    1  A    between atoms: O_1  and  C_13
REMARK    2  A    between atoms: N_3  and  C_18
REMARK    3  A    between atoms: N_3  and  C_19
REMARK    4  A    between atoms: C_5  and  C_9
REMARK    5  A    between atoms: C_7  and  C_13
REMARK    6  A    between atoms: C_8  and  C_12
REMARK    7  A    between atoms: C_9  and  C_14
REMARK    8  A    between atoms: C_9  and  C_15
REMARK    9  A    between atoms: C_10  and  C_16
REMARK   10  A    between atoms: C_12  and  C_17
REMARK   11  A    between atoms: C_18  and  C_20
REMARK                            x       y       z     vdW  Elec       q    Type
REMARK                         _______ _______ _______ _____ _____    ______ ____
ROOT
ATOM      5  C   UNL     1      -7.381 -11.879  17.069  0.00  0.00    +0.001 C 
ATOM      6  C   UNL     1      -6.137 -12.545  16.464  0.00  0.00    +0.012 C 
ATOM      7  C   UNL     1      -7.488 -12.203  18.580  0.00  0.00    +0.040 C 
ATOM      8  C   UNL     1      -4.838 -12.089  17.155  0.00  0.00    +0.023 C 
ATOM     10  C   UNL     1      -4.959 -12.126  18.665  0.00  0.00    -0.073 C 
ATOM     11  C   UNL     1      -6.152 -12.191  19.283  0.00  0.00    -0.022 C 
ATOM     16  C   UNL     1      -3.676 -12.133  19.447  0.00  0.00    +0.039 C 
ENDROOT
BRANCH   5   9
ATOM      9  C   UNL     1      -8.631 -12.322  16.302  0.00  0.00    -0.013 C 
ATOM     14  C   UNL     1      -8.638 -11.718  14.901  0.00  0.00    +0.007 C 
ATOM     15  C   UNL     1      -8.702 -13.844  16.235  0.00  0.00    +0.007 C 
ENDBRANCH   5   9
BRANCH   8  12
ATOM     12  C   UNL     1      -4.416 -10.695  16.672  0.00  0.00    +0.103 C 
BRANCH  12  17
ATOM      2  O   UNL     1      -2.079 -10.924  16.192  0.00  0.00    -0.276 OA
ATOM      3  N   UNL     1      -3.493 -10.583  14.384  0.00  0.00    -0.300 N 
ATOM     17  C   UNL     1      -3.216 -10.747  15.745  0.00  0.00    +0.216 C 
ATOM     19  C   UNL     1      -4.845 -10.373  13.881  0.00  0.00    +0.132 C 
BRANCH   3  18
ATOM     18  C   UNL     1      -2.446 -10.606  13.364  0.00  0.00    +0.144 C 
BRANCH  18  20
ATOM      4  N   UNL     1      -3.657 -12.582  10.375  0.00  0.00    -0.263 NA
ATOM     20  C   UNL     1      -2.997 -10.921  12.002  0.00  0.00    -0.012 A 
ATOM     21  C   UNL     1      -3.349  -9.905  11.120  0.00  0.00    +0.008 A 
ATOM     22  C   UNL     1      -3.168 -12.231  11.586  0.00  0.00    +0.115 A 
ATOM     23  C   UNL     1      -3.856 -10.227   9.866  0.00  0.00    +0.020 A 
ATOM     24  C   UNL     1      -3.988 -11.568   9.544  0.00  0.00    +0.111 A 
ENDBRANCH  18  20
ENDBRANCH   3  18
ENDBRANCH  12  17
ENDBRANCH   8  12
BRANCH   7  13
ATOM     13  C   UNL     1      -8.446 -11.237  19.287  0.00  0.00    +0.163 C 
BRANCH  13   1
ATOM      1  O   UNL     1      -7.679 -10.348  20.074  0.00  0.00    -0.394 OA
ATOM     25  H   UNL     1      -8.291  -9.901  20.683  0.00  0.00    +0.209 HD
ENDBRANCH  13   1
ENDBRANCH   7  13
TORSDOF 7
ENDMDL
