MODEL 1
REMARK VINA RESULT:      -7.6      0.000      0.000
REMARK  Name = 11941473
REMARK  8 active torsions:
REMARK  status: ('A' for Active; 'I' for Inactive)
REMARK    1  A    between atoms: O_5  and  C_27
REMARK    2  A    between atoms: O_5  and  C_33
REMARK    3  A    between atoms: O_6  and  C_29
REMARK    4  A    between atoms: N_9  and  C_11
REMARK    5  A    between atoms: C_19  and  C_22
REMARK    6  A    between atoms: C_22  and  C_25
REMARK    7  A    between atoms: C_23  and  C_26
REMARK    8  A    between atoms: C_25  and  C_29
REMARK                            x       y       z     vdW  Elec       q    Type
REMARK                         _______ _______ _______ _____ _____    ______ ____
ROOT
ATOM      2  O   UNL     1      16.774   5.557  17.978  0.00  0.00    -0.273 OA
ATOM      3  O   UNL     1      17.840   9.650  21.120  0.00  0.00    -0.270 OA
ATOM      8  N   UNL     1      16.552   7.984  20.195  0.00  0.00    -0.284 N 
ATOM     10  N   UNL     1      18.438   5.833  19.509  0.00  0.00    -0.283 N 
ATOM     11  C   UNL     1      14.713   6.635  19.568  0.00  0.00    +0.104 C 
ATOM     12  C   UNL     1      16.163   6.592  20.068  0.00  0.00    +0.183 C 
ATOM     13  C   UNL     1      14.631   7.971  18.828  0.00  0.00    +0.043 C 
ATOM     14  C   UNL     1      15.547   8.877  19.636  0.00  0.00    +0.111 C 
ATOM     15  C   UNL     1      17.137   5.985  19.075  0.00  0.00    +0.240 C 
ATOM     16  C   UNL     1      17.638   8.456  20.900  0.00  0.00    +0.249 C 
ATOM     17  C   UNL     1      18.630   7.467  21.400  0.00  0.00    +0.059 A 
ATOM     18  C   UNL     1      19.034   6.324  20.691  0.00  0.00    +0.046 A 
ATOM     20  C   UNL     1      19.306   7.824  22.581  0.00  0.00    +0.023 A 
ATOM     21  C   UNL     1      20.149   5.600  21.150  0.00  0.00    +0.024 A 
ATOM     23  C   UNL     1      20.380   7.067  23.045  0.00  0.00    -0.014 A 
ATOM     24  C   UNL     1      20.810   5.962  22.323  0.00  0.00    +0.010 A 
ATOM     35  H   UNL     1      19.018   5.220  18.941  0.00  0.00    +0.155 HD
ENDROOT
BRANCH  23  26
ATOM      1 CL   UNL     1      20.479   6.972  28.197  0.00  0.00    -0.084 Cl
ATOM     26  C   UNL     1      21.061   7.446  24.265  0.00  0.00    +0.025 A 
ATOM     27  C   UNL     1      22.254   8.171  24.226  0.00  0.00    +0.128 A 
ATOM     28  C   UNL     1      20.513   7.076  25.495  0.00  0.00    +0.032 A 
ATOM     30  C   UNL     1      22.895   8.526  25.413  0.00  0.00    +0.047 A 
ATOM     31  C   UNL     1      21.155   7.431  26.681  0.00  0.00    +0.042 A 
ATOM     32  C   UNL     1      22.346   8.155  26.640  0.00  0.00    +0.023 A 
BRANCH  27   5
ATOM      5  O   UNL     1      22.812   8.546  23.041  0.00  0.00    -0.495 OA
ATOM     33  C   UNL     1      22.726   9.926  22.692  0.00  0.00    +0.277 C 
ENDBRANCH  27   5
ENDBRANCH  23  26
BRANCH  11   9
ATOM      4  O   UNL     1      11.823   6.683  19.431  0.00  0.00    -0.276 OA
ATOM      9  N   UNL     1      13.783   6.592  20.674  0.00  0.00    -0.310 N 
ATOM     19  C   UNL     1      12.407   6.619  20.509  0.00  0.00    +0.214 C 
ATOM     34  H   UNL     1      14.161   6.485  21.612  0.00  0.00    +0.149 HD
BRANCH  19  22
ATOM     22  C   UNL     1      11.684   6.562  21.843  0.00  0.00    +0.107 C 
BRANCH  22  25
ATOM     25  C   UNL     1      10.535   7.561  21.927  0.00  0.00    +0.129 C 
BRANCH  25  29
ATOM      7  O   UNL     1      11.220   9.811  21.304  0.00  0.00    -0.251 OA
ATOM     29  C   UNL     1      11.025   8.969  22.169  0.00  0.00    +0.305 C 
BRANCH  29   6
ATOM      6  O   UNL     1      11.228   9.203  23.492  0.00  0.00    -0.481 OA
ATOM     36  H   UNL     1      11.621  10.088  23.650  0.00  0.00    +0.295 HD
ENDBRANCH  29   6
ENDBRANCH  25  29
ENDBRANCH  22  25
ENDBRANCH  19  22
ENDBRANCH  11   9
TORSDOF 7
ENDMDL
MODEL 2
REMARK VINA RESULT:      -7.2     28.900     31.652
REMARK  Name = 11941473
REMARK  8 active torsions:
REMARK  status: ('A' for Active; 'I' for Inactive)
REMARK    1  A    between atoms: O_5  and  C_27
REMARK    2  A    between atoms: O_5  and  C_33
REMARK    3  A    between atoms: O_6  and  C_29
REMARK    4  A    between atoms: N_9  and  C_11
REMARK    5  A    between atoms: C_19  and  C_22
REMARK    6  A    between atoms: C_22  and  C_25
REMARK    7  A    between atoms: C_23  and  C_26
REMARK    8  A    between atoms: C_25  and  C_29
REMARK                            x       y       z     vdW  Elec       q    Type
REMARK                         _______ _______ _______ _____ _____    ______ ____
ROOT
ATOM      2  O   UNL     1      -1.759 -10.910  14.405  0.00  0.00    -0.273 OA
ATOM      3  O   UNL     1      -5.726 -12.853  11.533  0.00  0.00    -0.270 OA
ATOM      8  N   UNL     1      -4.723 -11.921  13.381  0.00  0.00    -0.284 N 
ATOM     10  N   UNL     1      -2.489 -10.321  12.330  0.00  0.00    -0.283 N 
ATOM     11  C   UNL     1      -4.313 -11.138  15.575  0.00  0.00    +0.104 C 
ATOM     12  C   UNL     1      -4.146 -10.793  14.089  0.00  0.00    +0.183 C 
ATOM     13  C   UNL     1      -4.341 -12.668  15.585  0.00  0.00    +0.043 C 
ATOM     14  C   UNL     1      -5.052 -13.014  14.285  0.00  0.00    +0.111 C 
ATOM     15  C   UNL     1      -2.700 -10.722  13.633  0.00  0.00    +0.240 C 
ATOM     16  C   UNL     1      -5.092 -11.935  12.053  0.00  0.00    +0.249 C 
ATOM     17  C   UNL     1      -4.677 -10.790  11.200  0.00  0.00    +0.059 A 
ATOM     18  C   UNL     1      -3.439 -10.134  11.302  0.00  0.00    +0.046 A 
ATOM     20  C   UNL     1      -5.536 -10.484  10.128  0.00  0.00    +0.023 A 
ATOM     21  C   UNL     1      -3.063  -9.234  10.289  0.00  0.00    +0.024 A 
ATOM     23  C   UNL     1      -5.165  -9.554   9.159  0.00  0.00    -0.014 A 
ATOM     24  C   UNL     1      -3.923  -8.937   9.232  0.00  0.00    +0.010 A 
ATOM     35  H   UNL     1      -1.535 -10.048  12.107  0.00  0.00    +0.155 HD
ENDROOT
BRANCH  23  26
ATOM      1 CL   UNL     1      -9.215  -6.856   7.464  0.00  0.00    -0.084 Cl
ATOM     26  C   UNL     1      -6.063  -9.248   8.066  0.00  0.00    +0.025 A 
ATOM     27  C   UNL     1      -5.920  -9.870   6.824  0.00  0.00    +0.128 A 
ATOM     28  C   UNL     1      -7.084  -8.316   8.263  0.00  0.00    +0.032 A 
ATOM     30  C   UNL     1      -6.795  -9.561   5.783  0.00  0.00    +0.047 A 
ATOM     31  C   UNL     1      -7.959  -8.007   7.221  0.00  0.00    +0.042 A 
ATOM     32  C   UNL     1      -7.814  -8.629   5.981  0.00  0.00    +0.023 A 
BRANCH  27   5
ATOM      5  O   UNL     1      -4.933 -10.784   6.603  0.00  0.00    -0.495 OA
ATOM     33  C   UNL     1      -5.065 -11.613   5.451  0.00  0.00    +0.277 C 
ENDBRANCH  27   5
ENDBRANCH  23  26
BRANCH  11   9
ATOM      4  O   UNL     1      -4.969 -10.644  18.349  0.00  0.00    -0.276 OA
ATOM      9  N   UNL     1      -5.542 -10.588  16.099  0.00  0.00    -0.310 N 
ATOM     19  C   UNL     1      -5.766 -10.386  17.452  0.00  0.00    +0.214 C 
ATOM     34  H   UNL     1      -6.254 -10.291  15.435  0.00  0.00    +0.149 HD
BRANCH  19  22
ATOM     22  C   UNL     1      -7.143  -9.799  17.708  0.00  0.00    +0.107 C 
BRANCH  22  25
ATOM     25  C   UNL     1      -8.183 -10.867  18.027  0.00  0.00    +0.129 C 
BRANCH  25  29
ATOM      7  O   UNL     1      -7.543 -12.022  20.070  0.00  0.00    -0.251 OA
ATOM     29  C   UNL     1      -8.233 -11.187  19.502  0.00  0.00    +0.305 C 
BRANCH  29   6
ATOM      6  O   UNL     1      -9.151 -10.420  20.146  0.00  0.00    -0.481 OA
ATOM     36  H   UNL     1      -9.974 -10.319  19.622  0.00  0.00    +0.295 HD
ENDBRANCH  29   6
ENDBRANCH  25  29
ENDBRANCH  22  25
ENDBRANCH  19  22
ENDBRANCH  11   9
TORSDOF 7
ENDMDL
MODEL 3
REMARK VINA RESULT:      -7.1     28.519     31.235
REMARK  Name = 11941473
REMARK  8 active torsions:
REMARK  status: ('A' for Active; 'I' for Inactive)
REMARK    1  A    between atoms: O_5  and  C_27
REMARK    2  A    between atoms: O_5  and  C_33
REMARK    3  A    between atoms: O_6  and  C_29
REMARK    4  A    between atoms: N_9  and  C_11
REMARK    5  A    between atoms: C_19  and  C_22
REMARK    6  A    between atoms: C_22  and  C_25
REMARK    7  A    between atoms: C_23  and  C_26
REMARK    8  A    between atoms: C_25  and  C_29
REMARK                            x       y       z     vdW  Elec       q    Type
REMARK                         _______ _______ _______ _____ _____    ______ ____
ROOT
ATOM      2  O   UNL     1      -1.831 -10.670  15.709  0.00  0.00    -0.273 OA
ATOM      3  O   UNL     1      -5.061 -13.285  12.470  0.00  0.00    -0.270 OA
ATOM      8  N   UNL     1      -4.480 -12.059  14.327  0.00  0.00    -0.284 N 
ATOM     10  N   UNL     1      -2.208 -10.393  13.479  0.00  0.00    -0.283 N 
ATOM     11  C   UNL     1      -4.533 -10.994  16.438  0.00  0.00    +0.104 C 
ATOM     12  C   UNL     1      -4.122 -10.809  14.972  0.00  0.00    +0.183 C 
ATOM     13  C   UNL     1      -4.457 -12.509  16.641  0.00  0.00    +0.043 C 
ATOM     14  C   UNL     1      -4.892 -13.066  15.294  0.00  0.00    +0.111 C 
ATOM     15  C   UNL     1      -2.626 -10.659  14.767  0.00  0.00    +0.240 C 
ATOM     16  C   UNL     1      -4.598 -12.259  12.968  0.00  0.00    +0.249 C 
ATOM     17  C   UNL     1      -4.115 -11.187  12.059  0.00  0.00    +0.059 A 
ATOM     18  C   UNL     1      -2.965 -10.413  12.287  0.00  0.00    +0.046 A 
ATOM     20  C   UNL     1      -4.782 -11.087  10.824  0.00  0.00    +0.023 A 
ATOM     21  C   UNL     1      -2.474  -9.605  11.247  0.00  0.00    +0.024 A 
ATOM     23  C   UNL     1      -4.306 -10.244   9.821  0.00  0.00    -0.014 A 
ATOM     24  C   UNL     1      -3.144  -9.512  10.028  0.00  0.00    +0.010 A 
ATOM     35  H   UNL     1      -1.251 -10.061  13.392  0.00  0.00    +0.155 HD
ENDROOT
BRANCH  23  26
ATOM      1 CL   UNL     1      -4.752 -11.854   4.947  0.00  0.00    -0.084 Cl
ATOM     26  C   UNL     1      -5.008 -10.149   8.559  0.00  0.00    +0.025 A 
ATOM     27  C   UNL     1      -6.086  -9.277   8.401  0.00  0.00    +0.128 A 
ATOM     28  C   UNL     1      -4.595 -10.945   7.489  0.00  0.00    +0.032 A 
ATOM     30  C   UNL     1      -6.750  -9.202   7.177  0.00  0.00    +0.047 A 
ATOM     31  C   UNL     1      -5.259 -10.870   6.264  0.00  0.00    +0.042 A 
ATOM     32  C   UNL     1      -6.337  -9.998   6.108  0.00  0.00    +0.023 A 
BRANCH  27   5
ATOM      5  O   UNL     1      -6.511  -8.488   9.428  0.00  0.00    -0.495 OA
ATOM     33  C   UNL     1      -7.780  -8.797  10.000  0.00  0.00    +0.277 C 
ENDBRANCH  27   5
ENDBRANCH  23  26
BRANCH  11   9
ATOM      4  O   UNL     1      -5.813 -10.512  18.989  0.00  0.00    -0.276 OA
ATOM      9  N   UNL     1      -5.873 -10.503  16.666  0.00  0.00    -0.310 N 
ATOM     19  C   UNL     1      -6.402 -10.301  17.932  0.00  0.00    +0.214 C 
ATOM     34  H   UNL     1      -6.432 -10.246  15.856  0.00  0.00    +0.149 HD
BRANCH  19  22
ATOM     22  C   UNL     1      -7.827  -9.782  17.865  0.00  0.00    +0.107 C 
BRANCH  22  25
ATOM     25  C   UNL     1      -8.164  -9.172  16.509  0.00  0.00    +0.129 C 
BRANCH  25  29
ATOM      7  O   UNL     1     -10.087  -7.939  15.671  0.00  0.00    -0.251 OA
ATOM     29  C   UNL     1      -9.332  -8.217  16.592  0.00  0.00    +0.305 C 
BRANCH  29   6
ATOM      6  O   UNL     1      -9.456  -7.692  17.838  0.00  0.00    -0.481 OA
ATOM     36  H   UNL     1     -10.371  -7.389  18.018  0.00  0.00    +0.295 HD
ENDBRANCH  29   6
ENDBRANCH  25  29
ENDBRANCH  22  25
ENDBRANCH  19  22
ENDBRANCH  11   9
TORSDOF 7
ENDMDL
MODEL 4
REMARK VINA RESULT:      -7.1     29.151     31.364
REMARK  Name = 11941473
REMARK  8 active torsions:
REMARK  status: ('A' for Active; 'I' for Inactive)
REMARK    1  A    between atoms: O_5  and  C_27
REMARK    2  A    between atoms: O_5  and  C_33
REMARK    3  A    between atoms: O_6  and  C_29
REMARK    4  A    between atoms: N_9  and  C_11
REMARK    5  A    between atoms: C_19  and  C_22
REMARK    6  A    between atoms: C_22  and  C_25
REMARK    7  A    between atoms: C_23  and  C_26
REMARK    8  A    between atoms: C_25  and  C_29
REMARK                            x       y       z     vdW  Elec       q    Type
REMARK                         _______ _______ _______ _____ _____    ______ ____
ROOT
ATOM      2  O   UNL     1      -5.961 -11.365  20.753  0.00  0.00    -0.273 OA
ATOM      3  O   UNL     1      -7.046 -13.777  16.196  0.00  0.00    -0.270 OA
ATOM      8  N   UNL     1      -7.456 -12.435  18.019  0.00  0.00    -0.284 N 
ATOM     10  N   UNL     1      -4.837 -11.327  18.772  0.00  0.00    -0.283 N 
ATOM     11  C   UNL     1      -8.539 -11.106  19.646  0.00  0.00    +0.104 C 
ATOM     12  C   UNL     1      -7.295 -11.194  18.752  0.00  0.00    +0.183 C 
ATOM     13  C   UNL     1      -8.940 -12.568  19.845  0.00  0.00    +0.043 C 
ATOM     14  C   UNL     1      -8.580 -13.215  18.516  0.00  0.00    +0.111 C 
ATOM     15  C   UNL     1      -5.995 -11.340  19.521  0.00  0.00    +0.240 C 
ATOM     16  C   UNL     1      -6.766 -12.792  16.879  0.00  0.00    +0.249 C 
ATOM     17  C   UNL     1      -5.609 -11.954  16.471  0.00  0.00    +0.059 A 
ATOM     18  C   UNL     1      -4.697 -11.372  17.368  0.00  0.00    +0.046 A 
ATOM     20  C   UNL     1      -5.348 -11.903  15.089  0.00  0.00    +0.023 A 
ATOM     21  C   UNL     1      -3.512 -10.811  16.861  0.00  0.00    +0.024 A 
ATOM     23  C   UNL     1      -4.189 -11.300  14.603  0.00  0.00    -0.014 A 
ATOM     24  C   UNL     1      -3.265 -10.764  15.489  0.00  0.00    +0.010 A 
ATOM     35  H   UNL     1      -3.978 -11.185  19.299  0.00  0.00    +0.155 HD
ENDROOT
BRANCH  23  26
ATOM      1 CL   UNL     1      -4.545  -8.651  10.197  0.00  0.00    -0.084 Cl
ATOM     26  C   UNL     1      -3.939 -11.252  13.178  0.00  0.00    +0.025 A 
ATOM     27  C   UNL     1      -3.329 -12.322  12.520  0.00  0.00    +0.128 A 
ATOM     28  C   UNL     1      -4.316 -10.117  12.457  0.00  0.00    +0.032 A 
ATOM     30  C   UNL     1      -3.096 -12.257  11.147  0.00  0.00    +0.047 A 
ATOM     31  C   UNL     1      -4.083 -10.052  11.083  0.00  0.00    +0.042 A 
ATOM     32  C   UNL     1      -3.472 -11.122  10.429  0.00  0.00    +0.023 A 
BRANCH  27   5
ATOM      5  O   UNL     1      -2.951 -13.442  13.198  0.00  0.00    -0.495 OA
ATOM     33  C   UNL     1      -1.575 -13.550  13.555  0.00  0.00    +0.277 C 
ENDBRANCH  27   5
ENDBRANCH  23  26
BRANCH  11   9
ATOM      4  O   UNL     1     -11.261 -10.749  20.564  0.00  0.00    -0.276 OA
ATOM      9  N   UNL     1      -9.592 -10.358  18.996  0.00  0.00    -0.310 N 
ATOM     19  C   UNL     1     -10.872 -10.243  19.515  0.00  0.00    +0.214 C 
ATOM     34  H   UNL     1      -9.363  -9.854  18.143  0.00  0.00    +0.149 HD
BRANCH  19  22
ATOM     22  C   UNL     1     -11.764  -9.402  18.619  0.00  0.00    +0.107 C 
BRANCH  22  25
ATOM     25  C   UNL     1     -11.140  -9.141  17.252  0.00  0.00    +0.129 C 
BRANCH  25  29
ATOM      7  O   UNL     1     -11.197  -6.816  16.540  0.00  0.00    -0.251 OA
ATOM     29  C   UNL     1     -10.628  -7.726  17.126  0.00  0.00    +0.305 C 
BRANCH  29   6
ATOM      6  O   UNL     1      -9.434  -7.572  17.755  0.00  0.00    -0.481 OA
ATOM     36  H   UNL     1      -9.270  -8.286  18.408  0.00  0.00    +0.295 HD
ENDBRANCH  29   6
ENDBRANCH  25  29
ENDBRANCH  22  25
ENDBRANCH  19  22
ENDBRANCH  11   9
TORSDOF 7
ENDMDL
MODEL 5
REMARK VINA RESULT:      -6.9     28.051     31.274
REMARK  Name = 11941473
REMARK  8 active torsions:
REMARK  status: ('A' for Active; 'I' for Inactive)
REMARK    1  A    between atoms: O_5  and  C_27
REMARK    2  A    between atoms: O_5  and  C_33
REMARK    3  A    between atoms: O_6  and  C_29
REMARK    4  A    between atoms: N_9  and  C_11
REMARK    5  A    between atoms: C_19  and  C_22
REMARK    6  A    between atoms: C_22  and  C_25
REMARK    7  A    between atoms: C_23  and  C_26
REMARK    8  A    between atoms: C_25  and  C_29
REMARK                            x       y       z     vdW  Elec       q    Type
REMARK                         _______ _______ _______ _____ _____    ______ ____
ROOT
ATOM      2  O   UNL     1      -0.497 -11.026  15.259  0.00  0.00    -0.273 OA
ATOM      3  O   UNL     1      -5.581  -9.922  14.424  0.00  0.00    -0.270 OA
ATOM      8  N   UNL     1      -3.577 -10.999  14.087  0.00  0.00    -0.284 N 
ATOM     10  N   UNL     1      -2.250 -11.010  16.714  0.00  0.00    -0.283 N 
ATOM     11  C   UNL     1      -1.854 -12.326  13.159  0.00  0.00    +0.104 C 
ATOM     12  C   UNL     1      -2.570 -11.971  14.469  0.00  0.00    +0.183 C 
ATOM     13  C   UNL     1      -2.042 -11.075  12.299  0.00  0.00    +0.043 C 
ATOM     14  C   UNL     1      -3.421 -10.576  12.703  0.00  0.00    +0.111 C 
ATOM     15  C   UNL     1      -1.685 -11.267  15.481  0.00  0.00    +0.240 C 
ATOM     16  C   UNL     1      -4.664 -10.625  14.848  0.00  0.00    +0.249 C 
ATOM     17  C   UNL     1      -4.716 -11.076  16.263  0.00  0.00    +0.059 A 
ATOM     18  C   UNL     1      -3.598 -11.154  17.110  0.00  0.00    +0.046 A 
ATOM     20  C   UNL     1      -6.003 -11.264  16.798  0.00  0.00    +0.023 A 
ATOM     21  C   UNL     1      -3.803 -11.356  18.487  0.00  0.00    +0.024 A 
ATOM     23  C   UNL     1      -6.183 -11.510  18.158  0.00  0.00    -0.014 A 
ATOM     24  C   UNL     1      -5.084 -11.544  19.005  0.00  0.00    +0.010 A 
ATOM     35  H   UNL     1      -1.595 -10.762  17.450  0.00  0.00    +0.155 HD
ENDROOT
BRANCH  23  26
ATOM      1 CL   UNL     1      -9.499 -14.627  20.576  0.00  0.00    -0.084 Cl
ATOM     26  C   UNL     1      -7.515 -11.707  18.690  0.00  0.00    +0.025 A 
ATOM     27  C   UNL     1      -8.479 -10.701  18.601  0.00  0.00    +0.128 A 
ATOM     28  C   UNL     1      -7.833 -12.922  19.301  0.00  0.00    +0.032 A 
ATOM     30  C   UNL     1      -9.756 -10.910  19.120  0.00  0.00    +0.047 A 
ATOM     31  C   UNL     1      -9.110 -13.130  19.821  0.00  0.00    +0.042 A 
ATOM     32  C   UNL     1     -10.072 -12.124  19.731  0.00  0.00    +0.023 A 
BRANCH  27   5
ATOM      5  O   UNL     1      -8.198  -9.506  18.009  0.00  0.00    -0.495 OA
ATOM     33  C   UNL     1      -9.056  -9.090  16.949  0.00  0.00    +0.277 C 
ENDBRANCH  27   5
ENDBRANCH  23  26
BRANCH  11   9
ATOM      4  O   UNL     1      -0.989 -15.080  13.374  0.00  0.00    -0.276 OA
ATOM      9  N   UNL     1      -2.456 -13.484  12.538  0.00  0.00    -0.310 N 
ATOM     19  C   UNL     1      -1.969 -14.772  12.701  0.00  0.00    +0.214 C 
ATOM     34  H   UNL     1      -3.308 -13.348  11.998  0.00  0.00    +0.149 HD
BRANCH  19  22
ATOM     22  C   UNL     1      -2.799 -15.784  11.932  0.00  0.00    +0.107 C 
BRANCH  22  25
ATOM     25  C   UNL     1      -2.019 -17.054  11.609  0.00  0.00    +0.129 C 
BRANCH  25  29
ATOM      7  O   UNL     1      -1.431 -17.221   9.254  0.00  0.00    -0.251 OA
ATOM     29  C   UNL     1      -1.139 -16.884  10.393  0.00  0.00    +0.305 C 
BRANCH  29   6
ATOM      6  O   UNL     1       0.043 -16.297  10.714  0.00  0.00    -0.481 OA
ATOM     36  H   UNL     1       0.649 -16.920  11.168  0.00  0.00    +0.295 HD
ENDBRANCH  29   6
ENDBRANCH  25  29
ENDBRANCH  22  25
ENDBRANCH  19  22
ENDBRANCH  11   9
TORSDOF 7
ENDMDL
MODEL 6
REMARK VINA RESULT:      -6.8     15.603     18.421
REMARK  Name = 11941473
REMARK  8 active torsions:
REMARK  status: ('A' for Active; 'I' for Inactive)
REMARK    1  A    between atoms: O_5  and  C_27
REMARK    2  A    between atoms: O_5  and  C_33
REMARK    3  A    between atoms: O_6  and  C_29
REMARK    4  A    between atoms: N_9  and  C_11
REMARK    5  A    between atoms: C_19  and  C_22
REMARK    6  A    between atoms: C_22  and  C_25
REMARK    7  A    between atoms: C_23  and  C_26
REMARK    8  A    between atoms: C_25  and  C_29
REMARK                            x       y       z     vdW  Elec       q    Type
REMARK                         _______ _______ _______ _____ _____    ______ ____
ROOT
ATOM      2  O   UNL     1      11.445   9.399   3.237  0.00  0.00    -0.273 OA
ATOM      3  O   UNL     1      14.461   7.345   7.038  0.00  0.00    -0.270 OA
ATOM      8  N   UNL     1      13.026   7.315   5.241  0.00  0.00    -0.284 N 
ATOM     10  N   UNL     1      13.645   9.751   3.711  0.00  0.00    -0.283 N 
ATOM     11  C   UNL     1      11.502   6.602   3.579  0.00  0.00    +0.104 C 
ATOM     12  C   UNL     1      12.751   7.459   3.823  0.00  0.00    +0.183 C 
ATOM     13  C   UNL     1      10.800   6.599   4.938  0.00  0.00    +0.043 C 
ATOM     14  C   UNL     1      11.954   6.610   5.929  0.00  0.00    +0.111 C 
ATOM     15  C   UNL     1      12.531   8.944   3.599  0.00  0.00    +0.240 C 
ATOM     16  C   UNL     1      14.212   7.634   5.868  0.00  0.00    +0.249 C 
ATOM     17  C   UNL     1      15.231   8.388   5.093  0.00  0.00    +0.059 A 
ATOM     18  C   UNL     1      14.934   9.412   4.178  0.00  0.00    +0.046 A 
ATOM     20  C   UNL     1      16.571   8.149   5.451  0.00  0.00    +0.023 A 
ATOM     21  C   UNL     1      15.981  10.214   3.693  0.00  0.00    +0.024 A 
ATOM     23  C   UNL     1      17.601   8.925   4.922  0.00  0.00    -0.014 A 
ATOM     24  C   UNL     1      17.306   9.966   4.053  0.00  0.00    +0.010 A 
ATOM     35  H   UNL     1      13.543  10.689   3.332  0.00  0.00    +0.155 HD
ENDROOT
BRANCH  23  26
ATOM      1 CL   UNL     1      21.926   6.260   4.055  0.00  0.00    -0.084 Cl
ATOM     26  C   UNL     1      18.974   8.661   5.298  0.00  0.00    +0.025 A 
ATOM     27  C   UNL     1      19.574   9.348   6.354  0.00  0.00    +0.128 A 
ATOM     28  C   UNL     1      19.703   7.704   4.587  0.00  0.00    +0.032 A 
ATOM     30  C   UNL     1      20.898   9.080   6.700  0.00  0.00    +0.047 A 
ATOM     31  C   UNL     1      21.028   7.437   4.933  0.00  0.00    +0.042 A 
ATOM     32  C   UNL     1      21.625   8.125   5.989  0.00  0.00    +0.023 A 
BRANCH  27   5
ATOM      5  O   UNL     1      18.887  10.286   7.065  0.00  0.00    -0.495 OA
ATOM     33  C   UNL     1      19.647  11.125   7.933  0.00  0.00    +0.277 C 
ENDBRANCH  27   5
ENDBRANCH  23  26
BRANCH  11   9
ATOM      4  O   UNL     1      11.845   5.620   0.878  0.00  0.00    -0.276 OA
ATOM      9  N   UNL     1      11.865   5.263   3.173  0.00  0.00    -0.310 N 
ATOM     19  C   UNL     1      12.007   4.884   1.847  0.00  0.00    +0.214 C 
ATOM     34  H   UNL     1      12.074   4.584   3.901  0.00  0.00    +0.149 HD
BRANCH  19  22
ATOM     22  C   UNL     1      12.392   3.421   1.722  0.00  0.00    +0.107 C 
BRANCH  22  25
ATOM     25  C   UNL     1      13.577   3.206   0.788  0.00  0.00    +0.129 C 
BRANCH  25  29
ATOM      7  O   UNL     1      15.294   4.925   0.908  0.00  0.00    -0.251 OA
ATOM     29  C   UNL     1      14.833   3.864   1.306  0.00  0.00    +0.305 C 
BRANCH  29   6
ATOM      6  O   UNL     1      15.409   3.129   2.292  0.00  0.00    -0.481 OA
ATOM     36  H   UNL     1      15.855   2.329   1.940  0.00  0.00    +0.295 HD
ENDBRANCH  29   6
ENDBRANCH  25  29
ENDBRANCH  22  25
ENDBRANCH  19  22
ENDBRANCH  11   9
TORSDOF 7
ENDMDL
MODEL 7
REMARK VINA RESULT:      -6.8     31.112     33.348
REMARK  Name = 11941473
REMARK  8 active torsions:
REMARK  status: ('A' for Active; 'I' for Inactive)
REMARK    1  A    between atoms: O_5  and  C_27
REMARK    2  A    between atoms: O_5  and  C_33
REMARK    3  A    between atoms: O_6  and  C_29
REMARK    4  A    between atoms: N_9  and  C_11
REMARK    5  A    between atoms: C_19  and  C_22
REMARK    6  A    between atoms: C_22  and  C_25
REMARK    7  A    between atoms: C_23  and  C_26
REMARK    8  A    between atoms: C_25  and  C_29
REMARK                            x       y       z     vdW  Elec       q    Type
REMARK                         _______ _______ _______ _____ _____    ______ ____
ROOT
ATOM      2  O   UNL     1     -14.014  -4.304  13.023  0.00  0.00    -0.273 OA
ATOM      3  O   UNL     1     -12.440  -9.332  13.102  0.00  0.00    -0.270 OA
ATOM      8  N   UNL     1     -12.635  -7.199  12.264  0.00  0.00    -0.284 N 
ATOM     10  N   UNL     1     -12.873  -5.456  14.623  0.00  0.00    -0.283 N 
ATOM     11  C   UNL     1     -12.572  -5.322  10.826  0.00  0.00    +0.104 C 
ATOM     12  C   UNL     1     -12.278  -5.792  12.257  0.00  0.00    +0.183 C 
ATOM     13  C   UNL     1     -13.667  -6.280  10.354  0.00  0.00    +0.043 C 
ATOM     14  C   UNL     1     -13.302  -7.592  11.032  0.00  0.00    +0.111 C 
ATOM     15  C   UNL     1     -13.158  -5.143  13.310  0.00  0.00    +0.240 C 
ATOM     16  C   UNL     1     -12.256  -8.121  13.217  0.00  0.00    +0.249 C 
ATOM     17  C   UNL     1     -11.614  -7.618  14.460  0.00  0.00    +0.059 A 
ATOM     18  C   UNL     1     -11.986  -6.436  15.121  0.00  0.00    +0.046 A 
ATOM     20  C   UNL     1     -10.698  -8.494  15.072  0.00  0.00    +0.023 A 
ATOM     21  C   UNL     1     -11.480  -6.191  16.410  0.00  0.00    +0.024 A 
ATOM     23  C   UNL     1     -10.171  -8.210  16.330  0.00  0.00    -0.014 A 
ATOM     24  C   UNL     1     -10.571  -7.065  17.005  0.00  0.00    +0.010 A 
ATOM     35  H   UNL     1     -13.298  -4.847  15.318  0.00  0.00    +0.155 HD
ENDROOT
BRANCH  23  26
ATOM      1 CL   UNL     1      -5.315  -9.910  16.623  0.00  0.00    -0.084 Cl
ATOM     26  C   UNL     1      -9.226  -9.120  16.942  0.00  0.00    +0.025 A 
ATOM     27  C   UNL     1      -9.632 -10.023  17.925  0.00  0.00    +0.128 A 
ATOM     28  C   UNL     1      -7.889  -9.087  16.539  0.00  0.00    +0.032 A 
ATOM     30  C   UNL     1      -8.706 -10.891  18.503  0.00  0.00    +0.047 A 
ATOM     31  C   UNL     1      -6.963  -9.955  17.118  0.00  0.00    +0.042 A 
ATOM     32  C   UNL     1      -7.371 -10.856  18.100  0.00  0.00    +0.023 A 
BRANCH  27   5
ATOM      5  O   UNL     1     -10.930 -10.078  18.338  0.00  0.00    -0.495 OA
ATOM     33  C   UNL     1     -11.160 -10.160  19.743  0.00  0.00    +0.277 C 
ENDBRANCH  27   5
ENDBRANCH  23  26
BRANCH  11   9
ATOM      4  O   UNL     1     -11.202  -3.174   9.454  0.00  0.00    -0.276 OA
ATOM      9  N   UNL     1     -11.393  -5.425   9.996  0.00  0.00    -0.310 N 
ATOM     19  C   UNL     1     -10.804  -4.333   9.377  0.00  0.00    +0.214 C 
ATOM     34  H   UNL     1     -10.949  -6.336   9.907  0.00  0.00    +0.149 HD
BRANCH  19  22
ATOM     22  C   UNL     1      -9.584  -4.739   8.570  0.00  0.00    +0.107 C 
BRANCH  22  25
ATOM     25  C   UNL     1      -9.476  -6.250   8.394  0.00  0.00    +0.129 C 
BRANCH  25  29
ATOM      7  O   UNL     1      -8.466  -6.997   6.311  0.00  0.00    -0.251 OA
ATOM     29  C   UNL     1      -8.343  -6.634   7.472  0.00  0.00    +0.305 C 
BRANCH  29   6
ATOM      6  O   UNL     1      -7.140  -6.524   8.093  0.00  0.00    -0.481 OA
ATOM     36  H   UNL     1      -6.430  -6.987   7.599  0.00  0.00    +0.295 HD
ENDBRANCH  29   6
ENDBRANCH  25  29
ENDBRANCH  22  25
ENDBRANCH  19  22
ENDBRANCH  11   9
TORSDOF 7
ENDMDL
MODEL 8
REMARK VINA RESULT:      -6.7     16.001     18.531
REMARK  Name = 11941473
REMARK  8 active torsions:
REMARK  status: ('A' for Active; 'I' for Inactive)
REMARK    1  A    between atoms: O_5  and  C_27
REMARK    2  A    between atoms: O_5  and  C_33
REMARK    3  A    between atoms: O_6  and  C_29
REMARK    4  A    between atoms: N_9  and  C_11
REMARK    5  A    between atoms: C_19  and  C_22
REMARK    6  A    between atoms: C_22  and  C_25
REMARK    7  A    between atoms: C_23  and  C_26
REMARK    8  A    between atoms: C_25  and  C_29
REMARK                            x       y       z     vdW  Elec       q    Type
REMARK                         _______ _______ _______ _____ _____    ______ ____
ROOT
ATOM      2  O   UNL     1       9.759   9.304   5.049  0.00  0.00    -0.273 OA
ATOM      3  O   UNL     1      13.581   6.469   7.311  0.00  0.00    -0.270 OA
ATOM      8  N   UNL     1      11.776   6.855   5.939  0.00  0.00    -0.284 N 
ATOM     10  N   UNL     1      12.005   9.674   5.128  0.00  0.00    -0.283 N 
ATOM     11  C   UNL     1       9.923   6.544   4.504  0.00  0.00    +0.104 C 
ATOM     12  C   UNL     1      11.185   7.387   4.725  0.00  0.00    +0.183 C 
ATOM     13  C   UNL     1       9.547   6.086   5.914  0.00  0.00    +0.043 C 
ATOM     14  C   UNL     1      10.896   5.896   6.592  0.00  0.00    +0.111 C 
ATOM     15  C   UNL     1      10.904   8.850   5.016  0.00  0.00    +0.240 C 
ATOM     16  C   UNL     1      13.070   7.068   6.365  0.00  0.00    +0.249 C 
ATOM     17  C   UNL     1      13.879   8.095   5.658  0.00  0.00    +0.059 A 
ATOM     18  C   UNL     1      13.370   9.315   5.184  0.00  0.00    +0.046 A 
ATOM     20  C   UNL     1      15.267   7.868   5.632  0.00  0.00    +0.023 A 
ATOM     21  C   UNL     1      14.271  10.305   4.755  0.00  0.00    +0.024 A 
ATOM     23  C   UNL     1      16.142   8.844   5.158  0.00  0.00    -0.014 A 
ATOM     24  C   UNL     1      15.646  10.068   4.731  0.00  0.00    +0.010 A 
ATOM     35  H   UNL     1      11.810  10.671   5.084  0.00  0.00    +0.155 HD
ENDROOT
BRANCH  23  26
ATOM      1 CL   UNL     1      20.602   8.756   7.738  0.00  0.00    -0.084 Cl
ATOM     26  C   UNL     1      17.567   8.591   5.134  0.00  0.00    +0.025 A 
ATOM     27  C   UNL     1      18.201   8.168   3.964  0.00  0.00    +0.128 A 
ATOM     28  C   UNL     1      18.312   8.773   6.301  0.00  0.00    +0.032 A 
ATOM     30  C   UNL     1      19.575   7.928   3.962  0.00  0.00    +0.047 A 
ATOM     31  C   UNL     1      19.686   8.534   6.298  0.00  0.00    +0.042 A 
ATOM     32  C   UNL     1      20.317   8.111   5.129  0.00  0.00    +0.023 A 
BRANCH  27   5
ATOM      5  O   UNL     1      17.500   7.982   2.811  0.00  0.00    -0.495 OA
ATOM     33  C   UNL     1      17.932   8.714   1.665  0.00  0.00    +0.277 C 
ENDBRANCH  27   5
ENDBRANCH  23  26
BRANCH  11   9
ATOM      4  O   UNL     1      10.023   6.530   1.611  0.00  0.00    -0.276 OA
ATOM      9  N   UNL     1      10.198   5.416   3.643  0.00  0.00    -0.310 N 
ATOM     19  C   UNL     1      10.226   5.507   2.260  0.00  0.00    +0.214 C 
ATOM     34  H   UNL     1      10.432   4.528   4.079  0.00  0.00    +0.149 HD
BRANCH  19  22
ATOM     22  C   UNL     1      10.539   4.167   1.618  0.00  0.00    +0.107 C 
BRANCH  22  25
ATOM     25  C   UNL     1      11.688   3.442   2.311  0.00  0.00    +0.129 C 
BRANCH  25  29
ATOM      7  O   UNL     1      14.036   3.075   1.790  0.00  0.00    -0.251 OA
ATOM     29  C   UNL     1      12.896   3.308   1.413  0.00  0.00    +0.305 C 
BRANCH  29   6
ATOM      6  O   UNL     1      12.565   3.478   0.107  0.00  0.00    -0.481 OA
ATOM     36  H   UNL     1      11.790   4.070   0.000  0.00  0.00    +0.295 HD
ENDBRANCH  29   6
ENDBRANCH  25  29
ENDBRANCH  22  25
ENDBRANCH  19  22
ENDBRANCH  11   9
TORSDOF 7
ENDMDL
MODEL 9
REMARK VINA RESULT:      -6.7     28.373     31.569
REMARK  Name = 11941473
REMARK  8 active torsions:
REMARK  status: ('A' for Active; 'I' for Inactive)
REMARK    1  A    between atoms: O_5  and  C_27
REMARK    2  A    between atoms: O_5  and  C_33
REMARK    3  A    between atoms: O_6  and  C_29
REMARK    4  A    between atoms: N_9  and  C_11
REMARK    5  A    between atoms: C_19  and  C_22
REMARK    6  A    between atoms: C_22  and  C_25
REMARK    7  A    between atoms: C_23  and  C_26
REMARK    8  A    between atoms: C_25  and  C_29
REMARK                            x       y       z     vdW  Elec       q    Type
REMARK                         _______ _______ _______ _____ _____    ______ ____
ROOT
ATOM      2  O   UNL     1      -3.158 -14.287  14.575  0.00  0.00    -0.273 OA
ATOM      3  O   UNL     1      -4.581 -10.011  17.306  0.00  0.00    -0.270 OA
ATOM      8  N   UNL     1      -3.599 -11.182  15.587  0.00  0.00    -0.284 N 
ATOM     10  N   UNL     1      -5.218 -13.620  15.283  0.00  0.00    -0.283 N 
ATOM     11  C   UNL     1      -2.302 -11.751  13.693  0.00  0.00    +0.104 C 
ATOM     12  C   UNL     1      -3.674 -11.942  14.353  0.00  0.00    +0.183 C 
ATOM     13  C   UNL     1      -1.371 -11.483  14.877  0.00  0.00    +0.043 C 
ATOM     14  C   UNL     1      -2.248 -10.703  15.844  0.00  0.00    +0.111 C 
ATOM     15  C   UNL     1      -3.961 -13.373  14.772  0.00  0.00    +0.240 C 
ATOM     16  C   UNL     1      -4.673 -10.791  16.359  0.00  0.00    +0.249 C 
ATOM     17  C   UNL     1      -6.007 -11.365  16.042  0.00  0.00    +0.059 A 
ATOM     18  C   UNL     1      -6.222 -12.692  15.636  0.00  0.00    +0.046 A 
ATOM     20  C   UNL     1      -7.111 -10.545  16.341  0.00  0.00    +0.023 A 
ATOM     21  C   UNL     1      -7.538 -13.186  15.603  0.00  0.00    +0.024 A 
ATOM     23  C   UNL     1      -8.411 -11.039  16.256  0.00  0.00    -0.014 A 
ATOM     24  C   UNL     1      -8.625 -12.364  15.899  0.00  0.00    +0.010 A 
ATOM     35  H   UNL     1      -5.482 -14.601  15.336  0.00  0.00    +0.155 HD
ENDROOT
BRANCH  23  26
ATOM      1 CL   UNL     1     -12.136  -7.938  14.508  0.00  0.00    -0.084 Cl
ATOM     26  C   UNL     1      -9.535 -10.181  16.563  0.00  0.00    +0.025 A 
ATOM     27  C   UNL     1      -9.947  -9.981  17.882  0.00  0.00    +0.128 A 
ATOM     28  C   UNL     1     -10.213  -9.547  15.520  0.00  0.00    +0.032 A 
ATOM     30  C   UNL     1     -11.033  -9.150  18.157  0.00  0.00    +0.047 A 
ATOM     31  C   UNL     1     -11.300  -8.716  15.795  0.00  0.00    +0.042 A 
ATOM     32  C   UNL     1     -11.710  -8.518  17.114  0.00  0.00    +0.023 A 
BRANCH  27   5
ATOM      5  O   UNL     1      -9.304 -10.586  18.920  0.00  0.00    -0.495 OA
ATOM     33  C   UNL     1     -10.117 -11.113  19.967  0.00  0.00    +0.277 C 
ENDBRANCH  27   5
ENDBRANCH  23  26
BRANCH  11   9
ATOM      4  O   UNL     1      -3.132 -11.770  10.921  0.00  0.00    -0.276 OA
ATOM      9  N   UNL     1      -2.320 -10.633  12.777  0.00  0.00    -0.310 N 
ATOM     19  C   UNL     1      -2.738 -10.739  11.459  0.00  0.00    +0.214 C 
ATOM     34  H   UNL     1      -2.061  -9.717  13.136  0.00  0.00    +0.149 HD
BRANCH  19  22
ATOM     22  C   UNL     1      -2.648  -9.407  10.736  0.00  0.00    +0.107 C 
BRANCH  22  25
ATOM     25  C   UNL     1      -3.644  -9.298   9.587  0.00  0.00    +0.129 C 
BRANCH  25  29
ATOM      7  O   UNL     1      -5.275  -8.363  11.131  0.00  0.00    -0.251 OA
ATOM     29  C   UNL     1      -4.885  -8.535   9.984  0.00  0.00    +0.305 C 
BRANCH  29   6
ATOM      6  O   UNL     1      -5.536  -8.045   8.897  0.00  0.00    -0.481 OA
ATOM     36  H   UNL     1      -4.921  -7.863   8.155  0.00  0.00    +0.295 HD
ENDBRANCH  29   6
ENDBRANCH  25  29
ENDBRANCH  22  25
ENDBRANCH  19  22
ENDBRANCH  11   9
TORSDOF 7
ENDMDL
MODEL 10
REMARK VINA RESULT:      -6.7      1.793      2.386
REMARK  Name = 11941473
REMARK  8 active torsions:
REMARK  status: ('A' for Active; 'I' for Inactive)
REMARK    1  A    between atoms: O_5  and  C_27
REMARK    2  A    between atoms: O_5  and  C_33
REMARK    3  A    between atoms: O_6  and  C_29
REMARK    4  A    between atoms: N_9  and  C_11
REMARK    5  A    between atoms: C_19  and  C_22
REMARK    6  A    between atoms: C_22  and  C_25
REMARK    7  A    between atoms: C_23  and  C_26
REMARK    8  A    between atoms: C_25  and  C_29
REMARK                            x       y       z     vdW  Elec       q    Type
REMARK                         _______ _______ _______ _____ _____    ______ ____
ROOT
ATOM      2  O   UNL     1      14.260   7.247  18.070  0.00  0.00    -0.273 OA
ATOM      3  O   UNL     1      17.314  10.851  20.402  0.00  0.00    -0.270 OA
ATOM      8  N   UNL     1      15.372   9.698  19.970  0.00  0.00    -0.284 N 
ATOM     10  N   UNL     1      16.231   6.996  19.184  0.00  0.00    -0.283 N 
ATOM     11  C   UNL     1      13.100   9.046  19.901  0.00  0.00    +0.104 C 
ATOM     12  C   UNL     1      14.529   8.524  20.097  0.00  0.00    +0.183 C 
ATOM     13  C   UNL     1      13.291  10.293  19.035  0.00  0.00    +0.043 C 
ATOM     14  C   UNL     1      14.616  10.859  19.522  0.00  0.00    +0.111 C 
ATOM     15  C   UNL     1      14.989   7.572  19.008  0.00  0.00    +0.240 C 
ATOM     16  C   UNL     1      16.686   9.794  20.377  0.00  0.00    +0.249 C 
ATOM     17  C   UNL     1      17.385   8.546  20.781  0.00  0.00    +0.059 A 
ATOM     18  C   UNL     1      17.213   7.302  20.151  0.00  0.00    +0.046 A 
ATOM     20  C   UNL     1      18.397   8.698  21.747  0.00  0.00    +0.023 A 
ATOM     21  C   UNL     1      18.103   6.258  20.458  0.00  0.00    +0.024 A 
ATOM     23  C   UNL     1      19.239   7.637  22.072  0.00  0.00    -0.014 A 
ATOM     24  C   UNL     1      19.101   6.419  21.419  0.00  0.00    +0.010 A 
ATOM     35  H   UNL     1      16.427   6.194  18.590  0.00  0.00    +0.155 HD
ENDROOT
BRANCH  23  26
ATOM      1 CL   UNL     1      20.829   6.771  26.897  0.00  0.00    -0.084 Cl
ATOM     26  C   UNL     1      20.271   7.810  23.072  0.00  0.00    +0.025 A 
ATOM     27  C   UNL     1      21.449   8.499  22.776  0.00  0.00    +0.128 A 
ATOM     28  C   UNL     1      20.081   7.276  24.348  0.00  0.00    +0.032 A 
ATOM     30  C   UNL     1      22.432   8.655  23.753  0.00  0.00    +0.047 A 
ATOM     31  C   UNL     1      21.065   7.432  25.325  0.00  0.00    +0.042 A 
ATOM     32  C   UNL     1      22.240   8.121  25.027  0.00  0.00    +0.023 A 
BRANCH  27   5
ATOM      5  O   UNL     1      21.662   9.031  21.540  0.00  0.00    -0.495 OA
ATOM     33  C   UNL     1      23.018   9.244  21.151  0.00  0.00    +0.277 C 
ENDBRANCH  27   5
ENDBRANCH  23  26
BRANCH  11   9
ATOM      4  O   UNL     1      10.478   8.268  20.847  0.00  0.00    -0.276 OA
ATOM      9  N   UNL     1      12.493   9.379  21.170  0.00  0.00    -0.310 N 
ATOM     19  C   UNL     1      11.224   8.958  21.538  0.00  0.00    +0.214 C 
ATOM     34  H   UNL     1      13.046   9.905  21.842  0.00  0.00    +0.149 HD
BRANCH  19  22
ATOM     22  C   UNL     1      10.848   9.458  22.921  0.00  0.00    +0.107 C 
BRANCH  22  25
ATOM     25  C   UNL     1      11.282  10.900  23.158  0.00  0.00    +0.129 C 
BRANCH  25  29
ATOM      7  O   UNL     1      10.302  12.369  24.832  0.00  0.00    -0.251 OA
ATOM     29  C   UNL     1      10.949  11.369  24.556  0.00  0.00    +0.305 C 
BRANCH  29   6
ATOM      6  O   UNL     1      11.460  10.531  25.495  0.00  0.00    -0.481 OA
ATOM     36  H   UNL     1      10.783  10.263  26.152  0.00  0.00    +0.295 HD
ENDBRANCH  29   6
ENDBRANCH  25  29
ENDBRANCH  22  25
ENDBRANCH  19  22
ENDBRANCH  11   9
TORSDOF 7
ENDMDL
