MODEL 1
REMARK VINA RESULT:      -7.1      0.000      0.000
REMARK  Name = 45783459
REMARK  11 active torsions:
REMARK  status: ('A' for Active; 'I' for Inactive)
REMARK    1  A    between atoms: O_2  and  C_25
REMARK    2  A    between atoms: O_2  and  C_30
REMARK    3  A    between atoms: O_4  and  C_31
REMARK    4  A    between atoms: O_4  and  C_32
REMARK    5  A    between atoms: N_5  and  C_14
REMARK    6  A    between atoms: N_8  and  C_22
REMARK    7  A    between atoms: C_10  and  C_15
REMARK    8  A    between atoms: C_14  and  C_16
REMARK    9  A    between atoms: C_19  and  C_23
REMARK   10  A    between atoms: C_26  and  C_29
REMARK   11  A    between atoms: C_30  and  C_31
REMARK                            x       y       z     vdW  Elec       q    Type
REMARK                         _______ _______ _______ _____ _____    ______ ____
ROOT
ATOM      5  N   UNL     1      13.600   8.367  19.355  0.00  0.00    -0.287 NA
ATOM     10  C   UNL     1      14.180   7.328  18.481  0.00  0.00    +0.146 C 
ATOM     11  C   UNL     1      14.189   7.957  17.076  0.00  0.00    +0.030 C 
ATOM     12  C   UNL     1      13.539   9.323  17.248  0.00  0.00    +0.017 C 
ATOM     13  C   UNL     1      12.714   9.169  18.510  0.00  0.00    +0.085 C 
ENDROOT
BRANCH  10  15
ATOM      1  O   UNL     1      16.120   5.859  18.250  0.00  0.00    -0.336 OA
ATOM      6  N   UNL     1      16.303   7.361  19.901  0.00  0.00    -0.189 NA
ATOM      7  N   UNL     1      17.371   5.638  18.841  0.00  0.00    -0.054 NA
ATOM     15  C   UNL     1      15.559   6.890  18.933  0.00  0.00    +0.245 A 
ATOM     19  C   UNL     1      17.405   6.562  19.806  0.00  0.00    +0.221 A 
BRANCH  19  23
ATOM      9  N   UNL     1      18.416   7.702  21.607  0.00  0.00    -0.252 NA
ATOM     23  C   UNL     1      18.524   6.714  20.690  0.00  0.00    +0.115 A 
ATOM     24  C   UNL     1      19.626   5.881  20.574  0.00  0.00    +0.077 A 
ATOM     25  C   UNL     1      20.682   6.072  21.456  0.00  0.00    +0.124 A 
ATOM     27  C   UNL     1      19.463   7.858  22.448  0.00  0.00    +0.115 A 
ATOM     28  C   UNL     1      20.608   7.077  22.414  0.00  0.00    +0.065 A 
BRANCH  25   2
ATOM      2  O   UNL     1      21.786   5.279  21.383  0.00  0.00    -0.490 OA
BRANCH   2  30
ATOM     30  C   UNL     1      21.572   3.892  21.125  0.00  0.00    +0.257 C 
BRANCH  30  31
ATOM     31  C   UNL     1      22.686   3.091  21.771  0.00  0.00    +0.200 C 
BRANCH  31   4
ATOM      4  O   UNL     1      23.516   2.545  20.754  0.00  0.00    -0.380 OA
ATOM     32  C   UNL     1      24.323   1.488  21.253  0.00  0.00    +0.194 C 
ENDBRANCH  31   4
ENDBRANCH  30  31
ENDBRANCH   2  30
ENDBRANCH  25   2
ENDBRANCH  19  23
ENDBRANCH  10  15
BRANCH   5  14
ATOM     14  C   UNL     1      12.906   7.821  20.514  0.00  0.00    +0.120 C 
BRANCH  14  16
ATOM     16  C   UNL     1      12.395   8.906  21.424  0.00  0.00    -0.033 A 
ATOM     17  C   UNL     1      13.233   9.959  21.793  0.00  0.00    +0.007 A 
ATOM     18  C   UNL     1      11.085   8.858  21.899  0.00  0.00    +0.007 A 
ATOM     20  C   UNL     1      12.760  10.964  22.636  0.00  0.00    +0.023 A 
ATOM     21  C   UNL     1      10.611   9.863  22.743  0.00  0.00    +0.023 A 
ATOM     22  C   UNL     1      11.450  10.915  23.112  0.00  0.00    +0.033 A 
BRANCH  22   8
ATOM      3  O   UNL     1      12.467  11.867  25.783  0.00  0.00    -0.276 OA
ATOM      8  N   UNL     1      10.976  11.920  23.957  0.00  0.00    -0.286 N 
ATOM     26  C   UNL     1      11.490  12.323  25.196  0.00  0.00    +0.214 C 
ATOM     29  C   UNL     1      10.687  13.449  25.796  0.00  0.00    +0.109 C 
ATOM     33  H   UNL     1      10.153  12.417  23.621  0.00  0.00    +0.155 HD
ENDBRANCH  22   8
ENDBRANCH  14  16
ENDBRANCH   5  14
TORSDOF 9
ENDMDL
MODEL 2
REMARK VINA RESULT:      -6.9     27.117     30.450
REMARK  Name = 45783459
REMARK  11 active torsions:
REMARK  status: ('A' for Active; 'I' for Inactive)
REMARK    1  A    between atoms: O_2  and  C_25
REMARK    2  A    between atoms: O_2  and  C_30
REMARK    3  A    between atoms: O_4  and  C_31
REMARK    4  A    between atoms: O_4  and  C_32
REMARK    5  A    between atoms: N_5  and  C_14
REMARK    6  A    between atoms: N_8  and  C_22
REMARK    7  A    between atoms: C_10  and  C_15
REMARK    8  A    between atoms: C_14  and  C_16
REMARK    9  A    between atoms: C_19  and  C_23
REMARK   10  A    between atoms: C_26  and  C_29
REMARK   11  A    between atoms: C_30  and  C_31
REMARK                            x       y       z     vdW  Elec       q    Type
REMARK                         _______ _______ _______ _____ _____    ______ ____
ROOT
ATOM      5  N   UNL     1      -3.115 -10.541  14.240  0.00  0.00    -0.287 NA
ATOM     10  C   UNL     1      -2.987 -11.256  15.525  0.00  0.00    +0.146 C 
ATOM     11  C   UNL     1      -1.693 -10.707  16.152  0.00  0.00    +0.030 C 
ATOM     12  C   UNL     1      -1.132  -9.738  15.120  0.00  0.00    +0.017 C 
ATOM     13  C   UNL     1      -1.756 -10.201  13.819  0.00  0.00    +0.085 C 
ENDROOT
BRANCH  10  15
ATOM      1  O   UNL     1      -4.070 -11.491  17.704  0.00  0.00    -0.336 OA
ATOM      6  N   UNL     1      -5.364 -10.547  16.138  0.00  0.00    -0.189 NA
ATOM      7  N   UNL     1      -5.295 -11.215  18.324  0.00  0.00    -0.054 NA
ATOM     15  C   UNL     1      -4.195 -11.066  16.420  0.00  0.00    +0.245 A 
ATOM     19  C   UNL     1      -6.005 -10.660  17.337  0.00  0.00    +0.221 A 
BRANCH  19  23
ATOM      9  N   UNL     1      -8.101 -10.923  18.386  0.00  0.00    -0.252 NA
ATOM     23  C   UNL     1      -7.353 -10.207  17.516  0.00  0.00    +0.115 A 
ATOM     24  C   UNL     1      -7.819  -9.103  16.820  0.00  0.00    +0.077 A 
ATOM     25  C   UNL     1      -9.134  -8.707  17.031  0.00  0.00    +0.124 A 
ATOM     27  C   UNL     1      -9.374 -10.508  18.566  0.00  0.00    +0.115 A 
ATOM     28  C   UNL     1      -9.934  -9.418  17.919  0.00  0.00    +0.065 A 
BRANCH  25   2
ATOM      2  O   UNL     1      -9.638  -7.628  16.372  0.00  0.00    -0.490 OA
BRANCH   2  30
ATOM     30  C   UNL     1     -11.052  -7.443  16.415  0.00  0.00    +0.257 C 
BRANCH  30  31
ATOM     31  C   UNL     1     -11.363  -5.969  16.246  0.00  0.00    +0.200 C 
BRANCH  31   4
ATOM      4  O   UNL     1     -12.285  -5.808  15.176  0.00  0.00    -0.380 OA
ATOM     32  C   UNL     1     -12.334  -6.965  14.353  0.00  0.00    +0.194 C 
ENDBRANCH  31   4
ENDBRANCH  30  31
ENDBRANCH   2  30
ENDBRANCH  25   2
ENDBRANCH  19  23
ENDBRANCH  10  15
BRANCH   5  14
ATOM     14  C   UNL     1      -3.827 -11.306  13.224  0.00  0.00    +0.120 C 
BRANCH  14  16
ATOM     16  C   UNL     1      -4.461 -10.413  12.191  0.00  0.00    -0.033 A 
ATOM     17  C   UNL     1      -3.938 -10.362  10.898  0.00  0.00    +0.007 A 
ATOM     18  C   UNL     1      -5.570  -9.637  12.526  0.00  0.00    +0.007 A 
ATOM     20  C   UNL     1      -4.525  -9.535   9.941  0.00  0.00    +0.023 A 
ATOM     21  C   UNL     1      -6.157  -8.809  11.569  0.00  0.00    +0.023 A 
ATOM     22  C   UNL     1      -5.634  -8.758  10.277  0.00  0.00    +0.033 A 
BRANCH  22   8
ATOM      3  O   UNL     1      -8.404  -8.792   9.095  0.00  0.00    -0.276 OA
ATOM      8  N   UNL     1      -6.221  -7.929   9.320  0.00  0.00    -0.286 N 
ATOM     26  C   UNL     1      -7.521  -7.991   8.802  0.00  0.00    +0.214 C 
ATOM     29  C   UNL     1      -7.769  -6.910   7.780  0.00  0.00    +0.109 C 
ATOM     33  H   UNL     1      -5.621  -7.190   8.958  0.00  0.00    +0.155 HD
ENDBRANCH  22   8
ENDBRANCH  14  16
ENDBRANCH   5  14
TORSDOF 9
ENDMDL
MODEL 3
REMARK VINA RESULT:      -6.8     27.330     31.451
REMARK  Name = 45783459
REMARK  11 active torsions:
REMARK  status: ('A' for Active; 'I' for Inactive)
REMARK    1  A    between atoms: O_2  and  C_25
REMARK    2  A    between atoms: O_2  and  C_30
REMARK    3  A    between atoms: O_4  and  C_31
REMARK    4  A    between atoms: O_4  and  C_32
REMARK    5  A    between atoms: N_5  and  C_14
REMARK    6  A    between atoms: N_8  and  C_22
REMARK    7  A    between atoms: C_10  and  C_15
REMARK    8  A    between atoms: C_14  and  C_16
REMARK    9  A    between atoms: C_19  and  C_23
REMARK   10  A    between atoms: C_26  and  C_29
REMARK   11  A    between atoms: C_30  and  C_31
REMARK                            x       y       z     vdW  Elec       q    Type
REMARK                         _______ _______ _______ _____ _____    ______ ____
ROOT
ATOM      5  N   UNL     1     -14.524   6.217  21.111  0.00  0.00    -0.287 NA
ATOM     10  C   UNL     1     -15.527   6.365  22.185  0.00  0.00    +0.146 C 
ATOM     11  C   UNL     1     -16.779   6.916  21.479  0.00  0.00    +0.030 C 
ATOM     12  C   UNL     1     -16.366   7.105  20.026  0.00  0.00    +0.017 C 
ATOM     13  C   UNL     1     -14.856   7.218  20.096  0.00  0.00    +0.085 C 
ENDROOT
BRANCH  10  15
ATOM      1  O   UNL     1     -16.024   3.972  22.140  0.00  0.00    -0.336 OA
ATOM      6  N   UNL     1     -15.838   4.828  24.201  0.00  0.00    -0.189 NA
ATOM      7  N   UNL     1     -16.242   2.909  23.025  0.00  0.00    -0.054 NA
ATOM     15  C   UNL     1     -15.793   5.064  22.915  0.00  0.00    +0.245 A 
ATOM     19  C   UNL     1     -16.116   3.492  24.221  0.00  0.00    +0.221 A 
BRANCH  19  23
ATOM      9  N   UNL     1     -16.587   1.464  25.329  0.00  0.00    -0.252 NA
ATOM     23  C   UNL     1     -16.259   2.770  25.451  0.00  0.00    +0.115 A 
ATOM     24  C   UNL     1     -16.067   3.412  26.665  0.00  0.00    +0.077 A 
ATOM     25  C   UNL     1     -16.219   2.665  27.827  0.00  0.00    +0.124 A 
ATOM     27  C   UNL     1     -16.726   0.770  26.480  0.00  0.00    +0.115 A 
ATOM     28  C   UNL     1     -16.555   1.317  27.742  0.00  0.00    +0.065 A 
BRANCH  25   2
ATOM      2  O   UNL     1     -16.040   3.248  29.043  0.00  0.00    -0.490 OA
BRANCH   2  30
ATOM     30  C   UNL     1     -14.819   2.966  29.725  0.00  0.00    +0.257 C 
BRANCH  30  31
ATOM     31  C   UNL     1     -15.135   2.310  31.055  0.00  0.00    +0.200 C 
BRANCH  31   4
ATOM      4  O   UNL     1     -14.807   0.928  30.981  0.00  0.00    -0.380 OA
ATOM     32  C   UNL     1     -13.705   0.701  30.115  0.00  0.00    +0.194 C 
ENDBRANCH  31   4
ENDBRANCH  30  31
ENDBRANCH   2  30
ENDBRANCH  25   2
ENDBRANCH  19  23
ENDBRANCH  10  15
BRANCH   5  14
ATOM     14  C   UNL     1     -13.152   6.350  21.583  0.00  0.00    +0.120 C 
BRANCH  14  16
ATOM     16  C   UNL     1     -12.415   7.447  20.862  0.00  0.00    -0.033 A 
ATOM     17  C   UNL     1     -12.504   8.764  21.315  0.00  0.00    +0.007 A 
ATOM     18  C   UNL     1     -11.643   7.147  19.740  0.00  0.00    +0.007 A 
ATOM     20  C   UNL     1     -11.822   9.779  20.647  0.00  0.00    +0.023 A 
ATOM     21  C   UNL     1     -10.960   8.163  19.070  0.00  0.00    +0.023 A 
ATOM     22  C   UNL     1     -11.050   9.479  19.524  0.00  0.00    +0.033 A 
BRANCH  22   8
ATOM      3  O   UNL     1     -12.001  11.423  17.429  0.00  0.00    -0.276 OA
ATOM      8  N   UNL     1     -10.367  10.495  18.854  0.00  0.00    -0.286 N 
ATOM     26  C   UNL     1     -10.861  11.374  17.881  0.00  0.00    +0.214 C 
ATOM     29  C   UNL     1      -9.799  12.331  17.401  0.00  0.00    +0.109 C 
ATOM     33  H   UNL     1      -9.388  10.602  19.110  0.00  0.00    +0.155 HD
ENDBRANCH  22   8
ENDBRANCH  14  16
ENDBRANCH   5  14
TORSDOF 9
ENDMDL
MODEL 4
REMARK VINA RESULT:      -6.8     27.333     30.342
REMARK  Name = 45783459
REMARK  11 active torsions:
REMARK  status: ('A' for Active; 'I' for Inactive)
REMARK    1  A    between atoms: O_2  and  C_25
REMARK    2  A    between atoms: O_2  and  C_30
REMARK    3  A    between atoms: O_4  and  C_31
REMARK    4  A    between atoms: O_4  and  C_32
REMARK    5  A    between atoms: N_5  and  C_14
REMARK    6  A    between atoms: N_8  and  C_22
REMARK    7  A    between atoms: C_10  and  C_15
REMARK    8  A    between atoms: C_14  and  C_16
REMARK    9  A    between atoms: C_19  and  C_23
REMARK   10  A    between atoms: C_26  and  C_29
REMARK   11  A    between atoms: C_30  and  C_31
REMARK                            x       y       z     vdW  Elec       q    Type
REMARK                         _______ _______ _______ _____ _____    ______ ____
ROOT
ATOM      5  N   UNL     1     -11.890   9.694  20.474  0.00  0.00    -0.287 NA
ATOM     10  C   UNL     1     -12.479   8.593  19.686  0.00  0.00    +0.146 C 
ATOM     11  C   UNL     1     -11.391   8.217  18.664  0.00  0.00    +0.030 C 
ATOM     12  C   UNL     1     -10.255   9.201  18.913  0.00  0.00    +0.017 C 
ATOM     13  C   UNL     1     -10.938  10.370  19.592  0.00  0.00    +0.085 C 
ENDROOT
BRANCH  10  15
ATOM      1  O   UNL     1     -11.903   6.633  21.027  0.00  0.00    -0.336 OA
ATOM      6  N   UNL     1     -14.101   7.043  20.907  0.00  0.00    -0.189 NA
ATOM      7  N   UNL     1     -12.528   5.633  21.782  0.00  0.00    -0.054 NA
ATOM     15  C   UNL     1     -12.900   7.421  20.548  0.00  0.00    +0.245 A 
ATOM     19  C   UNL     1     -13.822   5.942  21.663  0.00  0.00    +0.221 A 
BRANCH  19  23
ATOM      9  N   UNL     1     -15.969   4.973  21.541  0.00  0.00    -0.252 NA
ATOM     23  C   UNL     1     -14.860   5.174  22.287  0.00  0.00    +0.115 A 
ATOM     24  C   UNL     1     -14.694   4.689  23.575  0.00  0.00    +0.077 A 
ATOM     25  C   UNL     1     -15.732   3.951  24.131  0.00  0.00    +0.124 A 
ATOM     27  C   UNL     1     -16.957   4.251  22.114  0.00  0.00    +0.115 A 
ATOM     28  C   UNL     1     -16.889   3.723  23.394  0.00  0.00    +0.065 A 
BRANCH  25   2
ATOM      2  O   UNL     1     -15.616   3.453  25.393  0.00  0.00    -0.490 OA
BRANCH   2  30
ATOM     30  C   UNL     1     -16.450   2.346  25.732  0.00  0.00    +0.257 C 
BRANCH  30  31
ATOM     31  C   UNL     1     -16.491   2.201  27.241  0.00  0.00    +0.200 C 
BRANCH  31   4
ATOM      4  O   UNL     1     -15.745   3.259  27.829  0.00  0.00    -0.380 OA
ATOM     32  C   UNL     1     -15.243   2.895  29.106  0.00  0.00    +0.194 C 
ENDBRANCH  31   4
ENDBRANCH  30  31
ENDBRANCH   2  30
ENDBRANCH  25   2
ENDBRANCH  19  23
ENDBRANCH  10  15
BRANCH   5  14
ATOM     14  C   UNL     1     -12.886  10.612  21.012  0.00  0.00    +0.120 C 
BRANCH  14  16
ATOM     16  C   UNL     1     -12.854  10.656  22.517  0.00  0.00    -0.033 A 
ATOM     17  C   UNL     1     -13.823   9.978  23.256  0.00  0.00    +0.007 A 
ATOM     18  C   UNL     1     -11.855  11.376  23.172  0.00  0.00    +0.007 A 
ATOM     20  C   UNL     1     -13.793  10.018  24.649  0.00  0.00    +0.023 A 
ATOM     21  C   UNL     1     -11.825  11.418  24.566  0.00  0.00    +0.023 A 
ATOM     22  C   UNL     1     -12.795  10.739  25.304  0.00  0.00    +0.033 A 
BRANCH  22   8
ATOM      3  O   UNL     1     -10.979   9.349  27.264  0.00  0.00    -0.276 OA
ATOM      8  N   UNL     1     -12.764  10.781  26.699  0.00  0.00    -0.286 N 
ATOM     26  C   UNL     1     -11.894  10.109  27.566  0.00  0.00    +0.214 C 
ATOM     29  C   UNL     1     -12.192  10.421  29.011  0.00  0.00    +0.109 C 
ATOM     33  H   UNL     1     -13.468  11.378  27.130  0.00  0.00    +0.155 HD
ENDBRANCH  22   8
ENDBRANCH  14  16
ENDBRANCH   5  14
TORSDOF 9
ENDMDL
MODEL 5
REMARK VINA RESULT:      -6.7     28.941     31.730
REMARK  Name = 45783459
REMARK  11 active torsions:
REMARK  status: ('A' for Active; 'I' for Inactive)
REMARK    1  A    between atoms: O_2  and  C_25
REMARK    2  A    between atoms: O_2  and  C_30
REMARK    3  A    between atoms: O_4  and  C_31
REMARK    4  A    between atoms: O_4  and  C_32
REMARK    5  A    between atoms: N_5  and  C_14
REMARK    6  A    between atoms: N_8  and  C_22
REMARK    7  A    between atoms: C_10  and  C_15
REMARK    8  A    between atoms: C_14  and  C_16
REMARK    9  A    between atoms: C_19  and  C_23
REMARK   10  A    between atoms: C_26  and  C_29
REMARK   11  A    between atoms: C_30  and  C_31
REMARK                            x       y       z     vdW  Elec       q    Type
REMARK                         _______ _______ _______ _____ _____    ______ ____
ROOT
ATOM      5  N   UNL     1     -13.916   6.551  33.251  0.00  0.00    -0.287 NA
ATOM     10  C   UNL     1     -13.881   8.024  33.345  0.00  0.00    +0.146 C 
ATOM     11  C   UNL     1     -13.366   8.314  34.767  0.00  0.00    +0.030 C 
ATOM     12  C   UNL     1     -13.200   6.946  35.416  0.00  0.00    +0.017 C 
ATOM     13  C   UNL     1     -14.125   6.055  34.612  0.00  0.00    +0.085 C 
ENDROOT
BRANCH  10  15
ATOM      1  O   UNL     1     -11.701   8.323  32.281  0.00  0.00    -0.336 OA
ATOM      6  N   UNL     1     -13.353   9.489  31.320  0.00  0.00    -0.189 NA
ATOM      7  N   UNL     1     -11.117   9.019  31.215  0.00  0.00    -0.054 NA
ATOM     15  C   UNL     1     -13.018   8.655  32.272  0.00  0.00    +0.245 A 
ATOM     19  C   UNL     1     -12.155   9.683  30.697  0.00  0.00    +0.221 A 
BRANCH  19  23
ATOM      9  N   UNL     1     -12.077  11.872  29.822  0.00  0.00    -0.252 NA
ATOM     23  C   UNL     1     -12.028  10.547  29.560  0.00  0.00    +0.115 A 
ATOM     24  C   UNL     1     -11.870  10.013  28.291  0.00  0.00    +0.077 A 
ATOM     25  C   UNL     1     -11.752  10.896  27.224  0.00  0.00    +0.124 A 
ATOM     27  C   UNL     1     -11.958  12.700  28.761  0.00  0.00    +0.115 A 
ATOM     28  C   UNL     1     -11.796  12.267  27.454  0.00  0.00    +0.065 A 
BRANCH  25   2
ATOM      2  O   UNL     1     -11.593  10.421  25.958  0.00  0.00    -0.490 OA
BRANCH   2  30
ATOM     30  C   UNL     1     -11.856  11.327  24.887  0.00  0.00    +0.257 C 
BRANCH  30  31
ATOM     31  C   UNL     1     -12.893  10.716  23.965  0.00  0.00    +0.200 C 
BRANCH  31   4
ATOM      4  O   UNL     1     -13.787   9.922  24.734  0.00  0.00    -0.380 OA
ATOM     32  C   UNL     1     -15.043  10.564  24.899  0.00  0.00    +0.194 C 
ENDBRANCH  31   4
ENDBRANCH  30  31
ENDBRANCH   2  30
ENDBRANCH  25   2
ENDBRANCH  19  23
ENDBRANCH  10  15
BRANCH   5  14
ATOM     14  C   UNL     1     -14.930   6.058  32.327  0.00  0.00    +0.120 C 
BRANCH  14  16
ATOM     16  C   UNL     1     -14.514   4.765  31.677  0.00  0.00    -0.033 A 
ATOM     17  C   UNL     1     -15.270   4.235  30.631  0.00  0.00    +0.007 A 
ATOM     18  C   UNL     1     -13.374   4.096  32.122  0.00  0.00    +0.007 A 
ATOM     20  C   UNL     1     -14.885   3.038  30.029  0.00  0.00    +0.023 A 
ATOM     21  C   UNL     1     -12.990   2.897  31.522  0.00  0.00    +0.023 A 
ATOM     22  C   UNL     1     -13.746   2.368  30.475  0.00  0.00    +0.033 A 
BRANCH  22   8
ATOM      3  O   UNL     1     -14.781  -0.434  30.862  0.00  0.00    -0.276 OA
ATOM      8  N   UNL     1     -13.361   1.169  29.874  0.00  0.00    -0.286 N 
ATOM     26  C   UNL     1     -13.878  -0.114  30.094  0.00  0.00    +0.214 C 
ATOM     29  C   UNL     1     -13.187  -1.150  29.243  0.00  0.00    +0.109 C 
ATOM     33  H   UNL     1     -12.608   1.246  29.193  0.00  0.00    +0.155 HD
ENDBRANCH  22   8
ENDBRANCH  14  16
ENDBRANCH   5  14
TORSDOF 9
ENDMDL
MODEL 6
REMARK VINA RESULT:      -6.6     27.238     32.146
REMARK  Name = 45783459
REMARK  11 active torsions:
REMARK  status: ('A' for Active; 'I' for Inactive)
REMARK    1  A    between atoms: O_2  and  C_25
REMARK    2  A    between atoms: O_2  and  C_30
REMARK    3  A    between atoms: O_4  and  C_31
REMARK    4  A    between atoms: O_4  and  C_32
REMARK    5  A    between atoms: N_5  and  C_14
REMARK    6  A    between atoms: N_8  and  C_22
REMARK    7  A    between atoms: C_10  and  C_15
REMARK    8  A    between atoms: C_14  and  C_16
REMARK    9  A    between atoms: C_19  and  C_23
REMARK   10  A    between atoms: C_26  and  C_29
REMARK   11  A    between atoms: C_30  and  C_31
REMARK                            x       y       z     vdW  Elec       q    Type
REMARK                         _______ _______ _______ _____ _____    ______ ____
ROOT
ATOM      5  N   UNL     1     -15.916   5.236  22.460  0.00  0.00    -0.287 NA
ATOM     10  C   UNL     1     -17.108   4.825  23.228  0.00  0.00    +0.146 C 
ATOM     11  C   UNL     1     -18.084   4.273  22.172  0.00  0.00    +0.030 C 
ATOM     12  C   UNL     1     -17.379   4.474  20.837  0.00  0.00    +0.017 C 
ATOM     13  C   UNL     1     -16.389   5.585  21.120  0.00  0.00    +0.085 C 
ENDROOT
BRANCH  10  15
ATOM      1  O   UNL     1     -16.605   2.530  23.900  0.00  0.00    -0.336 OA
ATOM      6  N   UNL     1     -16.650   3.990  25.598  0.00  0.00    -0.189 NA
ATOM      7  N   UNL     1     -16.321   1.792  25.056  0.00  0.00    -0.054 NA
ATOM     15  C   UNL     1     -16.784   3.813  24.308  0.00  0.00    +0.245 A 
ATOM     19  C   UNL     1     -16.366   2.722  26.015  0.00  0.00    +0.221 A 
BRANCH  19  23
ATOM      9  N   UNL     1     -16.361   1.137  27.762  0.00  0.00    -0.252 NA
ATOM     23  C   UNL     1     -16.132   2.418  27.397  0.00  0.00    +0.115 A 
ATOM     24  C   UNL     1     -15.699   3.407  28.266  0.00  0.00    +0.077 A 
ATOM     25  C   UNL     1     -15.487   3.058  29.595  0.00  0.00    +0.124 A 
ATOM     27  C   UNL     1     -16.144   0.835  29.061  0.00  0.00    +0.115 A 
ATOM     28  C   UNL     1     -15.711   1.749  30.009  0.00  0.00    +0.065 A 
BRANCH  25   2
ATOM      2  O   UNL     1     -15.061   3.993  30.488  0.00  0.00    -0.490 OA
BRANCH   2  30
ATOM     30  C   UNL     1     -14.064   3.588  31.425  0.00  0.00    +0.257 C 
BRANCH  30  31
ATOM     31  C   UNL     1     -14.017   4.591  32.561  0.00  0.00    +0.200 C 
BRANCH  31   4
ATOM      4  O   UNL     1     -14.248   3.913  33.789  0.00  0.00    -0.380 OA
ATOM     32  C   UNL     1     -14.275   4.816  34.885  0.00  0.00    +0.194 C 
ENDBRANCH  31   4
ENDBRANCH  30  31
ENDBRANCH   2  30
ENDBRANCH  25   2
ENDBRANCH  19  23
ENDBRANCH  10  15
BRANCH   5  14
ATOM     14  C   UNL     1     -15.180   6.329  23.083  0.00  0.00    +0.120 C 
BRANCH  14  16
ATOM     16  C   UNL     1     -14.117   6.881  22.170  0.00  0.00    -0.033 A 
ATOM     17  C   UNL     1     -13.101   6.050  21.700  0.00  0.00    +0.007 A 
ATOM     18  C   UNL     1     -14.150   8.225  21.796  0.00  0.00    +0.007 A 
ATOM     20  C   UNL     1     -12.117   6.562  20.855  0.00  0.00    +0.023 A 
ATOM     21  C   UNL     1     -13.165   8.737  20.952  0.00  0.00    +0.023 A 
ATOM     22  C   UNL     1     -12.148   7.906  20.482  0.00  0.00    +0.033 A 
BRANCH  22   8
ATOM      3  O   UNL     1     -12.174   8.376  17.507  0.00  0.00    -0.276 OA
ATOM      8  N   UNL     1     -11.163   8.419  19.637  0.00  0.00    -0.286 N 
ATOM     26  C   UNL     1     -11.228   8.616  18.251  0.00  0.00    +0.214 C 
ATOM     29  C   UNL     1      -9.946   9.194  17.707  0.00  0.00    +0.109 C 
ATOM     33  H   UNL     1     -10.291   8.679  20.094  0.00  0.00    +0.155 HD
ENDBRANCH  22   8
ENDBRANCH  14  16
ENDBRANCH   5  14
TORSDOF 9
ENDMDL
MODEL 7
REMARK VINA RESULT:      -6.6      2.608     10.280
REMARK  Name = 45783459
REMARK  11 active torsions:
REMARK  status: ('A' for Active; 'I' for Inactive)
REMARK    1  A    between atoms: O_2  and  C_25
REMARK    2  A    between atoms: O_2  and  C_30
REMARK    3  A    between atoms: O_4  and  C_31
REMARK    4  A    between atoms: O_4  and  C_32
REMARK    5  A    between atoms: N_5  and  C_14
REMARK    6  A    between atoms: N_8  and  C_22
REMARK    7  A    between atoms: C_10  and  C_15
REMARK    8  A    between atoms: C_14  and  C_16
REMARK    9  A    between atoms: C_19  and  C_23
REMARK   10  A    between atoms: C_26  and  C_29
REMARK   11  A    between atoms: C_30  and  C_31
REMARK                            x       y       z     vdW  Elec       q    Type
REMARK                         _______ _______ _______ _____ _____    ______ ____
ROOT
ATOM      5  N   UNL     1      21.015   7.861  21.056  0.00  0.00    -0.287 NA
ATOM     10  C   UNL     1      19.936   7.187  21.806  0.00  0.00    +0.146 C 
ATOM     11  C   UNL     1      19.749   8.039  23.075  0.00  0.00    +0.030 C 
ATOM     12  C   UNL     1      20.807   9.130  22.980  0.00  0.00    +0.017 C 
ATOM     13  C   UNL     1      21.847   8.539  22.051  0.00  0.00    +0.085 C 
ENDROOT
BRANCH  10  15
ATOM      1  O   UNL     1      18.644   6.085  20.048  0.00  0.00    -0.336 OA
ATOM      6  N   UNL     1      17.553   7.748  21.077  0.00  0.00    -0.189 NA
ATOM      7  N   UNL     1      17.383   6.156  19.443  0.00  0.00    -0.054 NA
ATOM     15  C   UNL     1      18.661   7.055  20.998  0.00  0.00    +0.245 A 
ATOM     19  C   UNL     1      16.798   7.160  20.104  0.00  0.00    +0.221 A 
BRANCH  19  23
ATOM      9  N   UNL     1      15.353   8.848  19.313  0.00  0.00    -0.252 NA
ATOM     23  C   UNL     1      15.464   7.599  19.818  0.00  0.00    +0.115 A 
ATOM     24  C   UNL     1      14.385   6.762  20.061  0.00  0.00    +0.077 A 
ATOM     25  C   UNL     1      13.113   7.238  19.765  0.00  0.00    +0.124 A 
ATOM     27  C   UNL     1      14.101   9.276  19.038  0.00  0.00    +0.115 A 
ATOM     28  C   UNL     1      12.959   8.518  19.244  0.00  0.00    +0.065 A 
BRANCH  25   2
ATOM      2  O   UNL     1      12.022   6.455  19.985  0.00  0.00    -0.490 OA
BRANCH   2  30
ATOM     30  C   UNL     1      11.628   6.257  21.342  0.00  0.00    +0.257 C 
BRANCH  30  31
ATOM     31  C   UNL     1      10.655   7.350  21.739  0.00  0.00    +0.200 C 
BRANCH  31   4
ATOM      4  O   UNL     1      11.330   8.300  22.553  0.00  0.00    -0.380 OA
ATOM     32  C   UNL     1      10.725   9.582  22.468  0.00  0.00    +0.194 C 
ENDBRANCH  31   4
ENDBRANCH  30  31
ENDBRANCH   2  30
ENDBRANCH  25   2
ENDBRANCH  19  23
ENDBRANCH  10  15
BRANCH   5  14
ATOM     14  C   UNL     1      21.790   6.951  20.222  0.00  0.00    +0.120 C 
BRANCH  14  16
ATOM     16  C   UNL     1      22.174   5.699  20.965  0.00  0.00    -0.033 A 
ATOM     17  C   UNL     1      21.486   4.509  20.730  0.00  0.00    +0.007 A 
ATOM     18  C   UNL     1      23.219   5.731  21.889  0.00  0.00    +0.007 A 
ATOM     20  C   UNL     1      21.843   3.350  21.418  0.00  0.00    +0.023 A 
ATOM     21  C   UNL     1      23.575   4.572  22.579  0.00  0.00    +0.023 A 
ATOM     22  C   UNL     1      22.886   3.382  22.343  0.00  0.00    +0.033 A 
BRANCH  22   8
ATOM      3  O   UNL     1      22.186   2.469  25.127  0.00  0.00    -0.276 OA
ATOM      8  N   UNL     1      23.243   2.222  23.033  0.00  0.00    -0.286 N 
ATOM     26  C   UNL     1      22.889   1.846  24.335  0.00  0.00    +0.214 C 
ATOM     29  C   UNL     1      23.481   0.512  24.714  0.00  0.00    +0.109 C 
ATOM     33  H   UNL     1      23.836   1.575  22.517  0.00  0.00    +0.155 HD
ENDBRANCH  22   8
ENDBRANCH  14  16
ENDBRANCH   5  14
TORSDOF 9
ENDMDL
MODEL 8
REMARK VINA RESULT:      -6.6     14.523     17.643
REMARK  Name = 45783459
REMARK  11 active torsions:
REMARK  status: ('A' for Active; 'I' for Inactive)
REMARK    1  A    between atoms: O_2  and  C_25
REMARK    2  A    between atoms: O_2  and  C_30
REMARK    3  A    between atoms: O_4  and  C_31
REMARK    4  A    between atoms: O_4  and  C_32
REMARK    5  A    between atoms: N_5  and  C_14
REMARK    6  A    between atoms: N_8  and  C_22
REMARK    7  A    between atoms: C_10  and  C_15
REMARK    8  A    between atoms: C_14  and  C_16
REMARK    9  A    between atoms: C_19  and  C_23
REMARK   10  A    between atoms: C_26  and  C_29
REMARK   11  A    between atoms: C_30  and  C_31
REMARK                            x       y       z     vdW  Elec       q    Type
REMARK                         _______ _______ _______ _____ _____    ______ ____
ROOT
ATOM      5  N   UNL     1      10.097   5.291   6.286  0.00  0.00    -0.287 NA
ATOM     10  C   UNL     1       9.705   6.388   7.194  0.00  0.00    +0.146 C 
ATOM     11  C   UNL     1       9.636   5.737   8.588  0.00  0.00    +0.030 C 
ATOM     12  C   UNL     1       9.941   4.264   8.354  0.00  0.00    +0.017 C 
ATOM     13  C   UNL     1       9.599   4.056   6.893  0.00  0.00    +0.085 C 
ENDROOT
BRANCH  10  15
ATOM      1  O   UNL     1      10.149   8.781   7.422  0.00  0.00    -0.336 OA
ATOM      6  N   UNL     1      11.947   7.568   6.863  0.00  0.00    -0.189 NA
ATOM      7  N   UNL     1      11.212   9.687   7.312  0.00  0.00    -0.054 NA
ATOM     15  C   UNL     1      10.668   7.557   7.143  0.00  0.00    +0.245 A 
ATOM     19  C   UNL     1      12.237   8.896   6.980  0.00  0.00    +0.221 A 
BRANCH  19  23
ATOM      9  N   UNL     1      13.747  10.706   7.055  0.00  0.00    -0.252 NA
ATOM     23  C   UNL     1      13.561   9.400   6.759  0.00  0.00    +0.115 A 
ATOM     24  C   UNL     1      14.555   8.566   6.272  0.00  0.00    +0.077 A 
ATOM     25  C   UNL     1      15.820   9.107   6.077  0.00  0.00    +0.124 A 
ATOM     27  C   UNL     1      14.990  11.197   6.853  0.00  0.00    +0.115 A 
ATOM     28  C   UNL     1      16.051  10.447   6.370  0.00  0.00    +0.065 A 
BRANCH  25   2
ATOM      2  O   UNL     1      16.830   8.329   5.601  0.00  0.00    -0.490 OA
BRANCH   2  30
ATOM     30  C   UNL     1      17.705   8.917   4.640  0.00  0.00    +0.257 C 
BRANCH  30  31
ATOM     31  C   UNL     1      19.139   8.587   5.008  0.00  0.00    +0.200 C 
BRANCH  31   4
ATOM      4  O   UNL     1      19.563   9.459   6.048  0.00  0.00    -0.380 OA
ATOM     32  C   UNL     1      20.023   8.735   7.179  0.00  0.00    +0.194 C 
ENDBRANCH  31   4
ENDBRANCH  30  31
ENDBRANCH   2  30
ENDBRANCH  25   2
ENDBRANCH  19  23
ENDBRANCH  10  15
BRANCH   5  14
ATOM     14  C   UNL     1       9.607   5.469   4.925  0.00  0.00    +0.120 C 
BRANCH  14  16
ATOM     16  C   UNL     1      10.703   5.297   3.907  0.00  0.00    -0.033 A 
ATOM     17  C   UNL     1      11.640   6.312   3.713  0.00  0.00    +0.007 A 
ATOM     18  C   UNL     1      10.780   4.122   3.159  0.00  0.00    +0.007 A 
ATOM     20  C   UNL     1      12.655   6.152   2.770  0.00  0.00    +0.023 A 
ATOM     21  C   UNL     1      11.795   3.963   2.215  0.00  0.00    +0.023 A 
ATOM     22  C   UNL     1      12.732   4.978   2.021  0.00  0.00    +0.033 A 
BRANCH  22   8
ATOM      3  O   UNL     1      15.128   3.153   2.016  0.00  0.00    -0.276 OA
ATOM      8  N   UNL     1      13.747   4.818   1.076  0.00  0.00    -0.286 N 
ATOM     26  C   UNL     1      14.846   3.950   1.126  0.00  0.00    +0.214 C 
ATOM     29  C   UNL     1      15.718   4.080  -0.098  0.00  0.00    +0.109 C 
ATOM     33  H   UNL     1      13.671   5.411   0.252  0.00  0.00    +0.155 HD
ENDBRANCH  22   8
ENDBRANCH  14  16
ENDBRANCH   5  14
TORSDOF 9
ENDMDL
MODEL 9
REMARK VINA RESULT:      -6.6     28.440     33.055
REMARK  Name = 45783459
REMARK  11 active torsions:
REMARK  status: ('A' for Active; 'I' for Inactive)
REMARK    1  A    between atoms: O_2  and  C_25
REMARK    2  A    between atoms: O_2  and  C_30
REMARK    3  A    between atoms: O_4  and  C_31
REMARK    4  A    between atoms: O_4  and  C_32
REMARK    5  A    between atoms: N_5  and  C_14
REMARK    6  A    between atoms: N_8  and  C_22
REMARK    7  A    between atoms: C_10  and  C_15
REMARK    8  A    between atoms: C_14  and  C_16
REMARK    9  A    between atoms: C_19  and  C_23
REMARK   10  A    between atoms: C_26  and  C_29
REMARK   11  A    between atoms: C_30  and  C_31
REMARK                            x       y       z     vdW  Elec       q    Type
REMARK                         _______ _______ _______ _____ _____    ______ ____
ROOT
ATOM      5  N   UNL     1     -17.700   2.492  23.708  0.00  0.00    -0.287 NA
ATOM     10  C   UNL     1     -18.482   2.057  24.883  0.00  0.00    +0.146 C 
ATOM     11  C   UNL     1     -18.822   0.582  24.602  0.00  0.00    +0.030 C 
ATOM     12  C   UNL     1     -18.246   0.297  23.222  0.00  0.00    +0.017 C 
ATOM     13  C   UNL     1     -18.149   1.669  22.585  0.00  0.00    +0.085 C 
ENDROOT
BRANCH  10  15
ATOM      1  O   UNL     1     -18.018   3.366  26.894  0.00  0.00    -0.336 OA
ATOM      6  N   UNL     1     -16.825   1.478  26.738  0.00  0.00    -0.189 NA
ATOM      7  N   UNL     1     -17.211   3.320  28.037  0.00  0.00    -0.054 NA
ATOM     15  C   UNL     1     -17.729   2.245  26.184  0.00  0.00    +0.245 A 
ATOM     19  C   UNL     1     -16.536   2.179  27.873  0.00  0.00    +0.221 A 
BRANCH  19  23
ATOM      9  N   UNL     1     -15.443   0.366  28.914  0.00  0.00    -0.252 NA
ATOM     23  C   UNL     1     -15.570   1.709  28.823  0.00  0.00    +0.115 A 
ATOM     24  C   UNL     1     -14.837   2.611  29.579  0.00  0.00    +0.077 A 
ATOM     25  C   UNL     1     -13.914   2.101  30.485  0.00  0.00    +0.124 A 
ATOM     27  C   UNL     1     -14.536  -0.092  29.805  0.00  0.00    +0.115 A 
ATOM     28  C   UNL     1     -13.754   0.725  30.607  0.00  0.00    +0.065 A 
BRANCH  25   2
ATOM      2  O   UNL     1     -13.169   2.945  31.249  0.00  0.00    -0.490 OA
BRANCH   2  30
ATOM     30  C   UNL     1     -13.866   3.983  31.937  0.00  0.00    +0.257 C 
BRANCH  30  31
ATOM     31  C   UNL     1     -14.295   3.473  33.299  0.00  0.00    +0.200 C 
BRANCH  31   4
ATOM      4  O   UNL     1     -14.187   4.528  34.246  0.00  0.00    -0.380 OA
ATOM     32  C   UNL     1     -15.444   5.145  34.483  0.00  0.00    +0.194 C 
ENDBRANCH  31   4
ENDBRANCH  30  31
ENDBRANCH   2  30
ENDBRANCH  25   2
ENDBRANCH  19  23
ENDBRANCH  10  15
BRANCH   5  14
ATOM     14  C   UNL     1     -17.829   3.917  23.428  0.00  0.00    +0.120 C 
BRANCH  14  16
ATOM     16  C   UNL     1     -16.552   4.498  22.880  0.00  0.00    -0.033 A 
ATOM     17  C   UNL     1     -15.388   4.475  23.648  0.00  0.00    +0.007 A 
ATOM     18  C   UNL     1     -16.535   5.060  21.603  0.00  0.00    +0.007 A 
ATOM     20  C   UNL     1     -14.207   5.013  23.140  0.00  0.00    +0.023 A 
ATOM     21  C   UNL     1     -15.353   5.600  21.095  0.00  0.00    +0.023 A 
ATOM     22  C   UNL     1     -14.189   5.576  21.864  0.00  0.00    +0.033 A 
BRANCH  22   8
ATOM      3  O   UNL     1     -13.448   8.430  21.248  0.00  0.00    -0.276 OA
ATOM      8  N   UNL     1     -13.007   6.116  21.355  0.00  0.00    -0.286 N 
ATOM     26  C   UNL     1     -12.715   7.459  21.085  0.00  0.00    +0.214 C 
ATOM     29  C   UNL     1     -11.319   7.630  20.539  0.00  0.00    +0.109 C 
ATOM     33  H   UNL     1     -12.271   5.441  21.158  0.00  0.00    +0.155 HD
ENDBRANCH  22   8
ENDBRANCH  14  16
ENDBRANCH   5  14
TORSDOF 9
ENDMDL
MODEL 10
REMARK VINA RESULT:      -6.5     27.428     31.767
REMARK  Name = 45783459
REMARK  11 active torsions:
REMARK  status: ('A' for Active; 'I' for Inactive)
REMARK    1  A    between atoms: O_2  and  C_25
REMARK    2  A    between atoms: O_2  and  C_30
REMARK    3  A    between atoms: O_4  and  C_31
REMARK    4  A    between atoms: O_4  and  C_32
REMARK    5  A    between atoms: N_5  and  C_14
REMARK    6  A    between atoms: N_8  and  C_22
REMARK    7  A    between atoms: C_10  and  C_15
REMARK    8  A    between atoms: C_14  and  C_16
REMARK    9  A    between atoms: C_19  and  C_23
REMARK   10  A    between atoms: C_26  and  C_29
REMARK   11  A    between atoms: C_30  and  C_31
REMARK                            x       y       z     vdW  Elec       q    Type
REMARK                         _______ _______ _______ _____ _____    ______ ____
ROOT
ATOM      5  N   UNL     1     -14.849   4.985  21.847  0.00  0.00    -0.287 NA
ATOM     10  C   UNL     1     -15.866   5.402  22.833  0.00  0.00    +0.146 C 
ATOM     11  C   UNL     1     -17.143   5.633  22.005  0.00  0.00    +0.030 C 
ATOM     12  C   UNL     1     -16.730   5.385  20.561  0.00  0.00    +0.017 C 
ATOM     13  C   UNL     1     -15.231   5.601  20.576  0.00  0.00    +0.085 C 
ENDROOT
BRANCH  10  15
ATOM      1  O   UNL     1     -16.035   3.074  23.559  0.00  0.00    -0.336 OA
ATOM      6  N   UNL     1     -16.259   4.565  25.214  0.00  0.00    -0.189 NA
ATOM      7  N   UNL     1     -16.236   2.330  24.728  0.00  0.00    -0.054 NA
ATOM     15  C   UNL     1     -16.062   4.379  23.934  0.00  0.00    +0.245 A 
ATOM     19  C   UNL     1     -16.360   3.279  25.661  0.00  0.00    +0.221 A 
BRANCH  19  23
ATOM      9  N   UNL     1     -16.979   4.017  27.814  0.00  0.00    -0.252 NA
ATOM     23  C   UNL     1     -16.583   2.978  27.045  0.00  0.00    +0.115 A 
ATOM     24  C   UNL     1     -16.392   1.690  27.520  0.00  0.00    +0.077 A 
ATOM     25  C   UNL     1     -16.623   1.453  28.870  0.00  0.00    +0.124 A 
ATOM     27  C   UNL     1     -17.194   3.749  29.121  0.00  0.00    +0.115 A 
ATOM     28  C   UNL     1     -17.032   2.497  29.693  0.00  0.00    +0.065 A 
BRANCH  25   2
ATOM      2  O   UNL     1     -16.449   0.205  29.384  0.00  0.00    -0.490 OA
BRANCH   2  30
ATOM     30  C   UNL     1     -15.576   0.081  30.506  0.00  0.00    +0.257 C 
BRANCH  30  31
ATOM     31  C   UNL     1     -14.144   0.254  30.040  0.00  0.00    +0.200 C 
BRANCH  31   4
ATOM      4  O   UNL     1     -13.897  -0.636  28.959  0.00  0.00    -0.380 OA
ATOM     32  C   UNL     1     -12.965  -1.646  29.319  0.00  0.00    +0.194 C 
ENDBRANCH  31   4
ENDBRANCH  30  31
ENDBRANCH   2  30
ENDBRANCH  25   2
ENDBRANCH  19  23
ENDBRANCH  10  15
BRANCH   5  14
ATOM     14  C   UNL     1     -13.490   5.337  22.239  0.00  0.00    +0.120 C 
BRANCH  14  16
ATOM     16  C   UNL     1     -13.005   6.575  21.532  0.00  0.00    -0.033 A 
ATOM     17  C   UNL     1     -11.925   6.498  20.652  0.00  0.00    +0.007 A 
ATOM     18  C   UNL     1     -13.635   7.799  21.758  0.00  0.00    +0.007 A 
ATOM     20  C   UNL     1     -11.476   7.644  19.998  0.00  0.00    +0.023 A 
ATOM     21  C   UNL     1     -13.185   8.946  21.105  0.00  0.00    +0.023 A 
ATOM     22  C   UNL     1     -12.105   8.868  20.225  0.00  0.00    +0.033 A 
BRANCH  22   8
ATOM      3  O   UNL     1      -9.911   9.229  18.194  0.00  0.00    -0.276 OA
ATOM      8  N   UNL     1     -11.656  10.016  19.571  0.00  0.00    -0.286 N 
ATOM     26  C   UNL     1     -10.623  10.128  18.631  0.00  0.00    +0.214 C 
ATOM     29  C   UNL     1     -10.447  11.550  18.159  0.00  0.00    +0.109 C 
ATOM     33  H   UNL     1     -12.145  10.875  19.815  0.00  0.00    +0.155 HD
ENDBRANCH  22   8
ENDBRANCH  14  16
ENDBRANCH   5  14
TORSDOF 9
ENDMDL
