MODEL 1
REMARK VINA RESULT:      -7.2      0.000      0.000
REMARK  Name = 28962073
REMARK  8 active torsions:
REMARK  status: ('A' for Active; 'I' for Inactive)
REMARK    1  A    between atoms: O_3  and  C_11
REMARK    2  A    between atoms: O_4  and  C_18
REMARK    3  A    between atoms: N_5  and  C_9
REMARK    4  A    between atoms: N_7  and  C_15
REMARK    5  A    between atoms: N_7  and  C_20
REMARK    6  A    between atoms: C_10  and  C_15
REMARK    7  A    between atoms: C_12  and  C_18
REMARK    8  A    between atoms: C_20  and  C_22
REMARK                            x       y       z     vdW  Elec       q    Type
REMARK                         _______ _______ _______ _____ _____    ______ ____
ROOT
ATOM      2  O   UNL     1      13.134   7.444  21.834  0.00  0.00    -0.366 OA
ATOM      9  C   UNL     1      13.629   8.102  19.600  0.00  0.00    +0.118 C 
ATOM     10  C   UNL     1      13.821   8.467  21.077  0.00  0.00    +0.152 C 
ATOM     11  C   UNL     1      12.337   7.298  19.611  0.00  0.00    +0.165 C 
ATOM     12  C   UNL     1      12.490   6.535  20.920  0.00  0.00    +0.174 C 
ENDROOT
BRANCH   9   5
ATOM      5  N   UNL     1      13.666   9.205  18.656  0.00  0.00    -0.292 NA
ATOM      6  N   UNL     1      14.699  10.742  16.481  0.00  0.00    -0.313 N 
ATOM      8  N   UNL     1      15.136  12.920  15.664  0.00  0.00    -0.240 NA
ATOM     13  C   UNL     1      14.903   9.978  18.816  0.00  0.00    +0.104 C 
ATOM     14  C   UNL     1      13.562   8.707  17.279  0.00  0.00    +0.104 C 
ATOM     16  C   UNL     1      14.928  11.177  17.865  0.00  0.00    +0.122 C 
ATOM     17  C   UNL     1      13.543   9.864  16.277  0.00  0.00    +0.122 C 
ATOM     19  C   UNL     1      15.122  11.585  15.448  0.00  0.00    +0.121 A 
ATOM     21  C   UNL     1      15.502  10.988  14.257  0.00  0.00    +0.043 A 
ATOM     23  C   UNL     1      15.925  11.814  13.221  0.00  0.00    +0.005 A 
ATOM     24  C   UNL     1      15.553  13.690  14.634  0.00  0.00    +0.113 A 
ATOM     27  C   UNL     1      15.954  13.191  13.405  0.00  0.00    +0.020 A 
ENDBRANCH   9   5
BRANCH  11   3
ATOM      3  O   UNL     1      11.197   8.147  19.662  0.00  0.00    -0.388 OA
ATOM     31  H   UNL     1      11.246   8.752  18.902  0.00  0.00    +0.210 HD
ENDBRANCH  11   3
BRANCH  10  15
ATOM     15  C   UNL     1      13.261   9.813  21.528  0.00  0.00    +0.114 C 
BRANCH  15   7
ATOM      7  N   UNL     1      12.541   9.683  22.786  0.00  0.00    -0.310 NA
ATOM     32  H   UNL     1      12.535   8.704  23.072  0.00  0.00    +0.122 HD
BRANCH   7  20
ATOM     20  C   UNL     1      11.173  10.168  22.656  0.00  0.00    +0.116 C 
BRANCH  20  22
ATOM      1  F   UNL     1      10.390  15.007  25.436  0.00  0.00    -0.205 F 
ATOM     22  C   UNL     1      10.965  11.461  23.399  0.00  0.00    -0.033 A 
ATOM     25  C   UNL     1      11.002  11.478  24.793  0.00  0.00    +0.008 A 
ATOM     26  C   UNL     1      10.734  12.643  22.693  0.00  0.00    +0.008 A 
ATOM     28  C   UNL     1      10.808  12.676  25.482  0.00  0.00    +0.038 A 
ATOM     29  C   UNL     1      10.541  13.840  23.381  0.00  0.00    +0.038 A 
ATOM     30  C   UNL     1      10.578  13.857  24.775  0.00  0.00    +0.123 A 
ENDBRANCH  20  22
ENDBRANCH   7  20
ENDBRANCH  15   7
ENDBRANCH  10  15
BRANCH  12  18
ATOM     18  C   UNL     1      11.198   6.036  21.540  0.00  0.00    +0.190 C 
BRANCH  18   4
ATOM      4  O   UNL     1      10.855   4.794  20.946  0.00  0.00    -0.392 OA
ATOM     33  H   UNL     1       9.950   4.882  20.600  0.00  0.00    +0.210 HD
ENDBRANCH  18   4
ENDBRANCH  12  18
TORSDOF 8
ENDMDL
MODEL 2
REMARK VINA RESULT:      -7.0     28.211     30.384
REMARK  Name = 28962073
REMARK  8 active torsions:
REMARK  status: ('A' for Active; 'I' for Inactive)
REMARK    1  A    between atoms: O_3  and  C_11
REMARK    2  A    between atoms: O_4  and  C_18
REMARK    3  A    between atoms: N_5  and  C_9
REMARK    4  A    between atoms: N_7  and  C_15
REMARK    5  A    between atoms: N_7  and  C_20
REMARK    6  A    between atoms: C_10  and  C_15
REMARK    7  A    between atoms: C_12  and  C_18
REMARK    8  A    between atoms: C_20  and  C_22
REMARK                            x       y       z     vdW  Elec       q    Type
REMARK                         _______ _______ _______ _____ _____    ______ ____
ROOT
ATOM      2  O   UNL     1      -9.526 -11.182  17.236  0.00  0.00    -0.366 OA
ATOM      9  C   UNL     1     -10.996  -9.505  16.405  0.00  0.00    +0.118 C 
ATOM     10  C   UNL     1      -9.862 -10.465  16.027  0.00  0.00    +0.152 C 
ATOM     11  C   UNL     1     -10.775  -9.283  17.894  0.00  0.00    +0.165 C 
ATOM     12  C   UNL     1     -10.325 -10.674  18.322  0.00  0.00    +0.174 C 
ENDROOT
BRANCH   9   5
ATOM      5  N   UNL     1     -11.106  -8.296  15.608  0.00  0.00    -0.292 NA
ATOM      6  N   UNL     1     -12.450  -6.310  14.054  0.00  0.00    -0.313 N 
ATOM      8  N   UNL     1     -12.337  -4.925  12.138  0.00  0.00    -0.240 NA
ATOM     13  C   UNL     1     -11.589  -8.611  14.259  0.00  0.00    +0.104 C 
ATOM     14  C   UNL     1     -12.012  -7.336  16.251  0.00  0.00    +0.104 C 
ATOM     16  C   UNL     1     -11.655  -7.352  13.391  0.00  0.00    +0.122 C 
ATOM     17  C   UNL     1     -12.093  -6.034  15.449  0.00  0.00    +0.122 C 
ATOM     19  C   UNL     1     -12.993  -5.292  13.262  0.00  0.00    +0.121 A 
ATOM     21  C   UNL     1     -14.181  -4.722  13.689  0.00  0.00    +0.043 A 
ATOM     23  C   UNL     1     -14.733  -3.710  12.912  0.00  0.00    +0.005 A 
ATOM     24  C   UNL     1     -12.904  -3.938  11.409  0.00  0.00    +0.113 A 
ATOM     27  C   UNL     1     -14.089  -3.304  11.749  0.00  0.00    +0.020 A 
ENDBRANCH   9   5
BRANCH  11   3
ATOM      3  O   UNL     1      -9.744  -8.333  18.131  0.00  0.00    -0.388 OA
ATOM     31  H   UNL     1     -10.154  -7.548  18.532  0.00  0.00    +0.210 HD
ENDBRANCH  11   3
BRANCH  10  15
ATOM     15  C   UNL     1      -8.576  -9.834  15.505  0.00  0.00    +0.114 C 
BRANCH  15   7
ATOM      7  N   UNL     1      -7.681  -9.491  16.600  0.00  0.00    -0.310 NA
ATOM     32  H   UNL     1      -7.869  -8.535  16.903  0.00  0.00    +0.122 HD
BRANCH   7  20
ATOM     20  C   UNL     1      -6.288  -9.617  16.194  0.00  0.00    +0.116 C 
BRANCH  20  22
ATOM      1  F   UNL     1      -3.267 -12.548  19.942  0.00  0.00    -0.205 F 
ATOM     22  C   UNL     1      -5.481 -10.399  17.195  0.00  0.00    -0.033 A 
ATOM     25  C   UNL     1      -4.168 -10.767  16.899  0.00  0.00    +0.008 A 
ATOM     26  C   UNL     1      -6.045 -10.758  18.421  0.00  0.00    +0.008 A 
ATOM     28  C   UNL     1      -3.420 -11.492  17.827  0.00  0.00    +0.038 A 
ATOM     29  C   UNL     1      -5.298 -11.482  19.348  0.00  0.00    +0.038 A 
ATOM     30  C   UNL     1      -3.985 -11.850  19.052  0.00  0.00    +0.123 A 
ENDBRANCH  20  22
ENDBRANCH   7  20
ENDBRANCH  15   7
ENDBRANCH  10  15
BRANCH  12  18
ATOM     18  C   UNL     1      -9.518 -10.733  19.606  0.00  0.00    +0.190 C 
BRANCH  18   4
ATOM      4  O   UNL     1     -10.233 -10.056  20.628  0.00  0.00    -0.392 OA
ATOM     33  H   UNL     1      -9.637  -9.380  20.994  0.00  0.00    +0.210 HD
ENDBRANCH  18   4
ENDBRANCH  12  18
TORSDOF 8
ENDMDL
MODEL 3
REMARK VINA RESULT:      -6.9      4.392      8.640
REMARK  Name = 28962073
REMARK  8 active torsions:
REMARK  status: ('A' for Active; 'I' for Inactive)
REMARK    1  A    between atoms: O_3  and  C_11
REMARK    2  A    between atoms: O_4  and  C_18
REMARK    3  A    between atoms: N_5  and  C_9
REMARK    4  A    between atoms: N_7  and  C_15
REMARK    5  A    between atoms: N_7  and  C_20
REMARK    6  A    between atoms: C_10  and  C_15
REMARK    7  A    between atoms: C_12  and  C_18
REMARK    8  A    between atoms: C_20  and  C_22
REMARK                            x       y       z     vdW  Elec       q    Type
REMARK                         _______ _______ _______ _____ _____    ______ ____
ROOT
ATOM      2  O   UNL     1      13.355   9.156  19.054  0.00  0.00    -0.366 OA
ATOM      9  C   UNL     1      12.351  10.210  20.937  0.00  0.00    +0.118 C 
ATOM     10  C   UNL     1      13.481  10.317  19.905  0.00  0.00    +0.152 C 
ATOM     11  C   UNL     1      12.087   8.713  21.002  0.00  0.00    +0.165 C 
ATOM     12  C   UNL     1      12.281   8.329  19.540  0.00  0.00    +0.174 C 
ENDROOT
BRANCH   9   5
ATOM      5  N   UNL     1      12.588  10.854  22.217  0.00  0.00    -0.292 NA
ATOM      6  N   UNL     1      12.159  12.774  24.289  0.00  0.00    -0.313 N 
ATOM      8  N   UNL     1      13.189  14.199  25.873  0.00  0.00    -0.240 NA
ATOM     13  C   UNL     1      12.980  12.255  22.023  0.00  0.00    +0.104 C 
ATOM     14  C   UNL     1      11.387  10.784  23.058  0.00  0.00    +0.104 C 
ATOM     16  C   UNL     1      13.288  12.929  23.363  0.00  0.00    +0.122 C 
ATOM     17  C   UNL     1      11.640  11.410  24.432  0.00  0.00    +0.122 C 
ATOM     19  C   UNL     1      12.056  13.671  25.357  0.00  0.00    +0.121 A 
ATOM     21  C   UNL     1      10.783  13.963  25.820  0.00  0.00    +0.043 A 
ATOM     23  C   UNL     1      10.665  14.853  26.882  0.00  0.00    +0.005 A 
ATOM     24  C   UNL     1      13.034  15.061  26.904  0.00  0.00    +0.113 A 
ATOM     27  C   UNL     1      11.807  15.417  27.439  0.00  0.00    +0.020 A 
ENDBRANCH   9   5
BRANCH  11   3
ATOM      3  O   UNL     1      13.045   8.051  21.819  0.00  0.00    -0.388 OA
ATOM     31  H   UNL     1      12.838   7.102  21.804  0.00  0.00    +0.210 HD
ENDBRANCH  11   3
BRANCH  10  15
ATOM     15  C   UNL     1      14.906  10.325  20.449  0.00  0.00    +0.114 C 
BRANCH  15   7
ATOM      7  N   UNL     1      15.517   9.010  20.329  0.00  0.00    -0.310 NA
ATOM     32  H   UNL     1      14.796   8.294  20.413  0.00  0.00    +0.122 HD
BRANCH   7  20
ATOM     20  C   UNL     1      16.534   8.812  21.353  0.00  0.00    +0.116 C 
BRANCH  20  22
ATOM      1  F   UNL     1      20.108   4.674  19.988  0.00  0.00    -0.205 F 
ATOM     22  C   UNL     1      17.488   7.707  20.989  0.00  0.00    -0.033 A 
ATOM     25  C   UNL     1      18.705   7.585  21.661  0.00  0.00    +0.008 A 
ATOM     26  C   UNL     1      17.157   6.802  19.979  0.00  0.00    +0.008 A 
ATOM     28  C   UNL     1      19.590   6.561  21.323  0.00  0.00    +0.038 A 
ATOM     29  C   UNL     1      18.041   5.778  19.641  0.00  0.00    +0.038 A 
ATOM     30  C   UNL     1      19.258   5.657  20.314  0.00  0.00    +0.123 A 
ENDBRANCH  20  22
ENDBRANCH   7  20
ENDBRANCH  15   7
ENDBRANCH  10  15
BRANCH  12  18
ATOM     18  C   UNL     1      12.617   6.871  19.287  0.00  0.00    +0.190 C 
BRANCH  18   4
ATOM      4  O   UNL     1      11.800   6.061  20.117  0.00  0.00    -0.392 OA
ATOM     33  H   UNL     1      10.896   6.105  19.759  0.00  0.00    +0.210 HD
ENDBRANCH  18   4
ENDBRANCH  12  18
TORSDOF 8
ENDMDL
MODEL 4
REMARK VINA RESULT:      -6.8     27.918     31.168
REMARK  Name = 28962073
REMARK  8 active torsions:
REMARK  status: ('A' for Active; 'I' for Inactive)
REMARK    1  A    between atoms: O_3  and  C_11
REMARK    2  A    between atoms: O_4  and  C_18
REMARK    3  A    between atoms: N_5  and  C_9
REMARK    4  A    between atoms: N_7  and  C_15
REMARK    5  A    between atoms: N_7  and  C_20
REMARK    6  A    between atoms: C_10  and  C_15
REMARK    7  A    between atoms: C_12  and  C_18
REMARK    8  A    between atoms: C_20  and  C_22
REMARK                            x       y       z     vdW  Elec       q    Type
REMARK                         _______ _______ _______ _____ _____    ______ ____
ROOT
ATOM      2  O   UNL     1     -18.484   3.305  23.969  0.00  0.00    -0.366 OA
ATOM      9  C   UNL     1     -17.818   2.954  26.228  0.00  0.00    +0.118 C 
ATOM     10  C   UNL     1     -18.061   4.020  25.152  0.00  0.00    +0.152 C 
ATOM     11  C   UNL     1     -17.492   1.712  25.412  0.00  0.00    +0.165 C 
ATOM     12  C   UNL     1     -18.445   1.889  24.236  0.00  0.00    +0.174 C 
ENDROOT
BRANCH   9   5
ATOM      5  N   UNL     1     -16.851   3.290  27.258  0.00  0.00    -0.292 NA
ATOM      6  N   UNL     1     -15.859   3.524  29.926  0.00  0.00    -0.313 N 
ATOM      8  N   UNL     1     -14.652   4.877  31.449  0.00  0.00    -0.240 NA
ATOM     13  C   UNL     1     -17.398   4.304  28.166  0.00  0.00    +0.104 C 
ATOM     14  C   UNL     1     -16.470   2.093  28.017  0.00  0.00    +0.104 C 
ATOM     16  C   UNL     1     -16.367   4.709  29.222  0.00  0.00    +0.122 C 
ATOM     17  C   UNL     1     -15.409   2.423  29.069  0.00  0.00    +0.122 C 
ATOM     19  C   UNL     1     -15.276   3.706  31.185  0.00  0.00    +0.121 A 
ATOM     21  C   UNL     1     -15.380   2.662  32.089  0.00  0.00    +0.043 A 
ATOM     23  C   UNL     1     -14.806   2.828  33.345  0.00  0.00    +0.005 A 
ATOM     24  C   UNL     1     -14.107   5.002  32.680  0.00  0.00    +0.113 A 
ATOM     27  C   UNL     1     -14.156   4.018  33.654  0.00  0.00    +0.020 A 
ENDBRANCH   9   5
BRANCH  11   3
ATOM      3  O   UNL     1     -16.143   1.723  24.963  0.00  0.00    -0.388 OA
ATOM     31  H   UNL     1     -15.821   0.806  24.976  0.00  0.00    +0.210 HD
ENDBRANCH  11   3
BRANCH  10  15
ATOM     15  C   UNL     1     -16.864   4.878  24.756  0.00  0.00    +0.114 C 
BRANCH  15   7
ATOM      7  N   UNL     1     -16.314   4.448  23.479  0.00  0.00    -0.310 NA
ATOM     32  H   UNL     1     -15.347   4.149  23.611  0.00  0.00    +0.122 HD
BRANCH   7  20
ATOM     20  C   UNL     1     -16.369   5.524  22.498  0.00  0.00    +0.116 C 
BRANCH  20  22
ATOM      1  F   UNL     1     -11.234   6.982  20.693  0.00  0.00    -0.205 F 
ATOM     22  C   UNL     1     -14.998   5.914  22.017  0.00  0.00    -0.033 A 
ATOM     25  C   UNL     1     -14.831   7.061  21.240  0.00  0.00    +0.008 A 
ATOM     26  C   UNL     1     -13.892   5.128  22.346  0.00  0.00    +0.008 A 
ATOM     28  C   UNL     1     -13.559   7.421  20.793  0.00  0.00    +0.038 A 
ATOM     29  C   UNL     1     -12.621   5.489  21.900  0.00  0.00    +0.038 A 
ATOM     30  C   UNL     1     -12.454   6.636  21.124  0.00  0.00    +0.123 A 
ENDBRANCH  20  22
ENDBRANCH   7  20
ENDBRANCH  15   7
ENDBRANCH  10  15
BRANCH  12  18
ATOM     18  C   UNL     1     -18.061   1.152  22.967  0.00  0.00    +0.190 C 
BRANCH  18   4
ATOM      4  O   UNL     1     -16.981   1.834  22.349  0.00  0.00    -0.392 OA
ATOM     33  H   UNL     1     -16.161   1.482  22.737  0.00  0.00    +0.210 HD
ENDBRANCH  18   4
ENDBRANCH  12  18
TORSDOF 8
ENDMDL
MODEL 5
REMARK VINA RESULT:      -6.7     27.429     28.816
REMARK  Name = 28962073
REMARK  8 active torsions:
REMARK  status: ('A' for Active; 'I' for Inactive)
REMARK    1  A    between atoms: O_3  and  C_11
REMARK    2  A    between atoms: O_4  and  C_18
REMARK    3  A    between atoms: N_5  and  C_9
REMARK    4  A    between atoms: N_7  and  C_15
REMARK    5  A    between atoms: N_7  and  C_20
REMARK    6  A    between atoms: C_10  and  C_15
REMARK    7  A    between atoms: C_12  and  C_18
REMARK    8  A    between atoms: C_20  and  C_22
REMARK                            x       y       z     vdW  Elec       q    Type
REMARK                         _______ _______ _______ _____ _____    ______ ____
ROOT
ATOM      2  O   UNL     1      -1.693 -12.582  13.336  0.00  0.00    -0.366 OA
ATOM      9  C   UNL     1      -3.061 -11.937  11.498  0.00  0.00    +0.118 C 
ATOM     10  C   UNL     1      -2.279 -11.418  12.711  0.00  0.00    +0.152 C 
ATOM     11  C   UNL     1      -3.396 -13.367  11.893  0.00  0.00    +0.165 C 
ATOM     12  C   UNL     1      -2.122 -13.762  12.629  0.00  0.00    +0.174 C 
ENDROOT
BRANCH   9   5
ATOM      5  N   UNL     1      -4.192 -11.131  11.070  0.00  0.00    -0.292 NA
ATOM      6  N   UNL     1      -5.760  -9.606   9.233  0.00  0.00    -0.313 N 
ATOM      8  N   UNL     1      -7.093  -7.672   8.942  0.00  0.00    -0.240 NA
ATOM     13  C   UNL     1      -3.742  -9.804  10.636  0.00  0.00    +0.104 C 
ATOM     14  C   UNL     1      -4.914 -11.796   9.979  0.00  0.00    +0.104 C 
ATOM     16  C   UNL     1      -4.930  -8.925  10.236  0.00  0.00    +0.122 C 
ATOM     17  C   UNL     1      -6.141 -10.983   9.557  0.00  0.00    +0.122 C 
ATOM     19  C   UNL     1      -6.599  -8.823   8.433  0.00  0.00    +0.121 A 
ATOM     21  C   UNL     1      -6.870  -9.286   7.155  0.00  0.00    +0.043 A 
ATOM     23  C   UNL     1      -7.702  -8.518   6.348  0.00  0.00    +0.005 A 
ATOM     24  C   UNL     1      -7.898  -6.953   8.128  0.00  0.00    +0.113 A 
ATOM     27  C   UNL     1      -8.230  -7.328   6.836  0.00  0.00    +0.020 A 
ENDBRANCH   9   5
BRANCH  11   3
ATOM      3  O   UNL     1      -4.513 -13.417  12.772  0.00  0.00    -0.388 OA
ATOM     31  H   UNL     1      -4.193 -13.725  13.637  0.00  0.00    +0.210 HD
ENDBRANCH  11   3
BRANCH  10  15
ATOM     15  C   UNL     1      -3.083 -10.688  13.782  0.00  0.00    +0.114 C 
BRANCH  15   7
ATOM      7  N   UNL     1      -3.246 -11.517  14.967  0.00  0.00    -0.310 NA
ATOM     32  H   UNL     1      -4.191 -11.902  14.983  0.00  0.00    +0.122 HD
BRANCH   7  20
ATOM     20  C   UNL     1      -3.007 -10.745  16.180  0.00  0.00    +0.116 C 
BRANCH  20  22
ATOM      1  F   UNL     1      -7.411 -10.934  19.691  0.00  0.00    -0.205 F 
ATOM     22  C   UNL     1      -4.183 -10.796  17.117  0.00  0.00    -0.033 A 
ATOM     25  C   UNL     1      -5.369 -10.140  16.785  0.00  0.00    +0.008 A 
ATOM     26  C   UNL     1      -4.089 -11.500  18.319  0.00  0.00    +0.008 A 
ATOM     28  C   UNL     1      -6.459 -10.186  17.655  0.00  0.00    +0.038 A 
ATOM     29  C   UNL     1      -5.179 -11.546  19.187  0.00  0.00    +0.038 A 
ATOM     30  C   UNL     1      -6.364 -10.890  18.855  0.00  0.00    +0.123 A 
ENDBRANCH  20  22
ENDBRANCH   7  20
ENDBRANCH  15   7
ENDBRANCH  10  15
BRANCH  12  18
ATOM     18  C   UNL     1      -2.265 -14.909  13.613  0.00  0.00    +0.190 C 
BRANCH  18   4
ATOM      4  O   UNL     1      -2.633 -14.385  14.879  0.00  0.00    -0.392 OA
ATOM     33  H   UNL     1      -2.017 -14.757  15.533  0.00  0.00    +0.210 HD
ENDBRANCH  18   4
ENDBRANCH  12  18
TORSDOF 8
ENDMDL
MODEL 6
REMARK VINA RESULT:      -6.7     13.988     17.310
REMARK  Name = 28962073
REMARK  8 active torsions:
REMARK  status: ('A' for Active; 'I' for Inactive)
REMARK    1  A    between atoms: O_3  and  C_11
REMARK    2  A    between atoms: O_4  and  C_18
REMARK    3  A    between atoms: N_5  and  C_9
REMARK    4  A    between atoms: N_7  and  C_15
REMARK    5  A    between atoms: N_7  and  C_20
REMARK    6  A    between atoms: C_10  and  C_15
REMARK    7  A    between atoms: C_12  and  C_18
REMARK    8  A    between atoms: C_20  and  C_22
REMARK                            x       y       z     vdW  Elec       q    Type
REMARK                         _______ _______ _______ _____ _____    ______ ____
ROOT
ATOM      2  O   UNL     1       9.082   5.833   6.621  0.00  0.00    -0.366 OA
ATOM      9  C   UNL     1      11.116   7.031   6.316  0.00  0.00    +0.118 C 
ATOM     10  C   UNL     1      10.070   6.153   5.617  0.00  0.00    +0.152 C 
ATOM     11  C   UNL     1      10.998   6.610   7.773  0.00  0.00    +0.165 C 
ATOM     12  C   UNL     1       9.493   6.394   7.883  0.00  0.00    +0.174 C 
ENDROOT
BRANCH   9   5
ATOM      5  N   UNL     1      12.459   6.991   5.766  0.00  0.00    -0.292 NA
ATOM      6  N   UNL     1      15.011   8.048   5.036  0.00  0.00    -0.313 N 
ATOM      8  N   UNL     1      16.712   8.080   3.391  0.00  0.00    -0.240 NA
ATOM     13  C   UNL     1      12.581   7.920   4.637  0.00  0.00    +0.104 C 
ATOM     14  C   UNL     1      13.448   7.326   6.798  0.00  0.00    +0.104 C 
ATOM     16  C   UNL     1      13.977   7.845   4.013  0.00  0.00    +0.122 C 
ATOM     17  C   UNL     1      14.873   7.232   6.246  0.00  0.00    +0.122 C 
ATOM     19  C   UNL     1      16.281   8.457   4.616  0.00  0.00    +0.121 A 
ATOM     21  C   UNL     1      17.021   9.231   5.495  0.00  0.00    +0.043 A 
ATOM     23  C   UNL     1      18.286   9.646   5.091  0.00  0.00    +0.005 A 
ATOM     24  C   UNL     1      17.946   8.501   3.033  0.00  0.00    +0.113 A 
ATOM     27  C   UNL     1      18.764   9.278   3.838  0.00  0.00    +0.020 A 
ENDBRANCH   9   5
BRANCH  11   3
ATOM      3  O   UNL     1      11.692   5.394   8.021  0.00  0.00    -0.388 OA
ATOM     31  H   UNL     1      12.585   5.624   8.331  0.00  0.00    +0.210 HD
ENDBRANCH  11   3
BRANCH  10  15
ATOM     15  C   UNL     1      10.565   4.834   5.033  0.00  0.00    +0.114 C 
BRANCH  15   7
ATOM      7  N   UNL     1      11.142   5.032   3.712  0.00  0.00    -0.310 NA
ATOM     32  H   UNL     1      10.703   5.839   3.269  0.00  0.00    +0.122 HD
BRANCH   7  20
ATOM     20  C   UNL     1      10.958   3.850   2.880  0.00  0.00    +0.116 C 
BRANCH  20  22
ATOM      1  F   UNL     1      14.275   3.955  -1.674  0.00  0.00    -0.205 F 
ATOM     22  C   UNL     1      11.844   3.878   1.663  0.00  0.00    -0.033 A 
ATOM     25  C   UNL     1      13.181   3.494   1.765  0.00  0.00    +0.008 A 
ATOM     26  C   UNL     1      11.328   4.287   0.433  0.00  0.00    +0.008 A 
ATOM     28  C   UNL     1      14.002   3.520   0.638  0.00  0.00    +0.038 A 
ATOM     29  C   UNL     1      12.149   4.313  -0.694  0.00  0.00    +0.038 A 
ATOM     30  C   UNL     1      13.486   3.929  -0.592  0.00  0.00    +0.123 A 
ENDBRANCH  20  22
ENDBRANCH   7  20
ENDBRANCH  15   7
ENDBRANCH  10  15
BRANCH  12  18
ATOM     18  C   UNL     1       9.045   5.479   9.007  0.00  0.00    +0.190 C 
BRANCH  18   4
ATOM      4  O   UNL     1       9.383   4.142   8.673  0.00  0.00    -0.392 OA
ATOM     33  H   UNL     1       9.152   4.014   7.737  0.00  0.00    +0.210 HD
ENDBRANCH  18   4
ENDBRANCH  12  18
TORSDOF 8
ENDMDL
MODEL 7
REMARK VINA RESULT:      -6.6     28.060     30.441
REMARK  Name = 28962073
REMARK  8 active torsions:
REMARK  status: ('A' for Active; 'I' for Inactive)
REMARK    1  A    between atoms: O_3  and  C_11
REMARK    2  A    between atoms: O_4  and  C_18
REMARK    3  A    between atoms: N_5  and  C_9
REMARK    4  A    between atoms: N_7  and  C_15
REMARK    5  A    between atoms: N_7  and  C_20
REMARK    6  A    between atoms: C_10  and  C_15
REMARK    7  A    between atoms: C_12  and  C_18
REMARK    8  A    between atoms: C_20  and  C_22
REMARK                            x       y       z     vdW  Elec       q    Type
REMARK                         _______ _______ _______ _____ _____    ______ ____
ROOT
ATOM      2  O   UNL     1     -10.041 -11.389  17.653  0.00  0.00    -0.366 OA
ATOM      9  C   UNL     1     -11.286  -9.638  16.627  0.00  0.00    +0.118 C 
ATOM     10  C   UNL     1     -10.302 -10.785  16.366  0.00  0.00    +0.152 C 
ATOM     11  C   UNL     1     -11.005  -9.270  18.076  0.00  0.00    +0.165 C 
ATOM     12  C   UNL     1     -10.740 -10.647  18.671  0.00  0.00    +0.174 C 
ENDROOT
BRANCH   9   5
ATOM      5  N   UNL     1     -11.247  -8.532  15.687  0.00  0.00    -0.292 NA
ATOM      6  N   UNL     1     -12.343  -6.497  14.008  0.00  0.00    -0.313 N 
ATOM      8  N   UNL     1     -12.182  -5.394  11.920  0.00  0.00    -0.240 NA
ATOM     13  C   UNL     1     -11.937  -8.890  14.443  0.00  0.00    +0.104 C 
ATOM     14  C   UNL     1     -11.864  -7.336  16.274  0.00  0.00    +0.104 C 
ATOM     16  C   UNL     1     -11.853  -7.752  13.422  0.00  0.00    +0.122 C 
ATOM     17  C   UNL     1     -11.779  -6.147  15.315  0.00  0.00    +0.122 C 
ATOM     19  C   UNL     1     -12.762  -5.485  13.138  0.00  0.00    +0.121 A 
ATOM     21  C   UNL     1     -13.757  -4.633  13.590  0.00  0.00    +0.043 A 
ATOM     23  C   UNL     1     -14.184  -3.622  12.736  0.00  0.00    +0.005 A 
ATOM     24  C   UNL     1     -12.624  -4.399  11.118  0.00  0.00    +0.113 A 
ATOM     27  C   UNL     1     -13.612  -3.496  11.475  0.00  0.00    +0.020 A 
ENDBRANCH   9   5
BRANCH  11   3
ATOM      3  O   UNL     1      -9.849  -8.450  18.190  0.00  0.00    -0.388 OA
ATOM     31  H   UNL     1      -9.445  -8.388  17.308  0.00  0.00    +0.210 HD
ENDBRANCH  11   3
BRANCH  10  15
ATOM     15  C   UNL     1      -8.953 -10.406  15.764  0.00  0.00    +0.114 C 
BRANCH  15   7
ATOM      7  N   UNL     1      -7.879 -10.600  16.728  0.00  0.00    -0.310 NA
ATOM     32  H   UNL     1      -8.271 -10.616  17.670  0.00  0.00    +0.122 HD
BRANCH   7  20
ATOM     20  C   UNL     1      -6.887  -9.538  16.623  0.00  0.00    +0.116 C 
BRANCH  20  22
ATOM      1  F   UNL     1      -1.888 -11.507  14.920  0.00  0.00    -0.205 F 
ATOM     22  C   UNL     1      -5.551 -10.064  16.168  0.00  0.00    -0.033 A 
ATOM     25  C   UNL     1      -5.288 -10.214  14.806  0.00  0.00    +0.008 A 
ATOM     26  C   UNL     1      -4.576 -10.401  17.108  0.00  0.00    +0.008 A 
ATOM     28  C   UNL     1      -4.050 -10.702  14.385  0.00  0.00    +0.038 A 
ATOM     29  C   UNL     1      -3.340 -10.888  16.687  0.00  0.00    +0.038 A 
ATOM     30  C   UNL     1      -3.076 -11.038  15.325  0.00  0.00    +0.123 A 
ENDBRANCH  20  22
ENDBRANCH   7  20
ENDBRANCH  15   7
ENDBRANCH  10  15
BRANCH  12  18
ATOM     18  C   UNL     1      -9.922 -10.660  19.949  0.00  0.00    +0.190 C 
BRANCH  18   4
ATOM      4  O   UNL     1      -8.551 -10.502  19.618  0.00  0.00    -0.392 OA
ATOM     33  H   UNL     1      -8.457  -9.629  19.199  0.00  0.00    +0.210 HD
ENDBRANCH  18   4
ENDBRANCH  12  18
TORSDOF 8
ENDMDL
MODEL 8
REMARK VINA RESULT:      -6.5     27.709     30.848
REMARK  Name = 28962073
REMARK  8 active torsions:
REMARK  status: ('A' for Active; 'I' for Inactive)
REMARK    1  A    between atoms: O_3  and  C_11
REMARK    2  A    between atoms: O_4  and  C_18
REMARK    3  A    between atoms: N_5  and  C_9
REMARK    4  A    between atoms: N_7  and  C_15
REMARK    5  A    between atoms: N_7  and  C_20
REMARK    6  A    between atoms: C_10  and  C_15
REMARK    7  A    between atoms: C_12  and  C_18
REMARK    8  A    between atoms: C_20  and  C_22
REMARK                            x       y       z     vdW  Elec       q    Type
REMARK                         _______ _______ _______ _____ _____    ______ ____
ROOT
ATOM      2  O   UNL     1     -18.199   4.970  22.578  0.00  0.00    -0.366 OA
ATOM      9  C   UNL     1     -17.868   3.526  24.441  0.00  0.00    +0.118 C 
ATOM     10  C   UNL     1     -17.604   4.934  23.894  0.00  0.00    +0.152 C 
ATOM     11  C   UNL     1     -18.008   2.689  23.179  0.00  0.00    +0.165 C 
ATOM     12  C   UNL     1     -18.738   3.669  22.270  0.00  0.00    +0.174 C 
ENDROOT
BRANCH   9   5
ATOM      5  N   UNL     1     -16.912   3.026  25.414  0.00  0.00    -0.292 NA
ATOM      6  N   UNL     1     -16.067   1.934  27.915  0.00  0.00    -0.313 N 
ATOM      8  N   UNL     1     -14.429   2.006  29.622  0.00  0.00    -0.240 NA
ATOM     13  C   UNL     1     -16.936   3.849  26.629  0.00  0.00    +0.104 C 
ATOM     14  C   UNL     1     -17.207   1.628  25.753  0.00  0.00    +0.104 C 
ATOM     16  C   UNL     1     -15.893   3.366  27.639  0.00  0.00    +0.122 C 
ATOM     17  C   UNL     1     -16.174   1.071  26.735  0.00  0.00    +0.122 C 
ATOM     19  C   UNL     1     -15.533   1.423  29.103  0.00  0.00    +0.121 A 
ATOM     21  C   UNL     1     -16.181   0.340  29.675  0.00  0.00    +0.043 A 
ATOM     23  C   UNL     1     -15.663  -0.178  30.857  0.00  0.00    +0.005 A 
ATOM     24  C   UNL     1     -13.954   1.474  30.771  0.00  0.00    +0.113 A 
ATOM     27  C   UNL     1     -14.528   0.394  31.422  0.00  0.00    +0.020 A 
ENDBRANCH   9   5
BRANCH  11   3
ATOM      3  O   UNL     1     -16.738   2.357  22.631  0.00  0.00    -0.388 OA
ATOM     31  H   UNL     1     -16.085   2.409  23.349  0.00  0.00    +0.210 HD
ENDBRANCH  11   3
BRANCH  10  15
ATOM     15  C   UNL     1     -16.143   5.345  23.739  0.00  0.00    +0.114 C 
BRANCH  15   7
ATOM      7  N   UNL     1     -15.774   5.436  22.334  0.00  0.00    -0.310 NA
ATOM     32  H   UNL     1     -16.351   4.793  21.791  0.00  0.00    +0.122 HD
BRANCH   7  20
ATOM     20  C   UNL     1     -14.365   5.118  22.144  0.00  0.00    +0.116 C 
BRANCH  20  22
ATOM      1  F   UNL     1     -11.467   9.526  20.160  0.00  0.00    -0.205 F 
ATOM     22  C   UNL     1     -13.591   6.295  21.613  0.00  0.00    -0.033 A 
ATOM     25  C   UNL     1     -12.258   6.139  21.232  0.00  0.00    +0.008 A 
ATOM     26  C   UNL     1     -14.207   7.543  21.502  0.00  0.00    +0.008 A 
ATOM     28  C   UNL     1     -11.541   7.231  20.742  0.00  0.00    +0.038 A 
ATOM     29  C   UNL     1     -13.490   8.633  21.011  0.00  0.00    +0.038 A 
ATOM     30  C   UNL     1     -12.157   8.477  20.630  0.00  0.00    +0.123 A 
ENDBRANCH  20  22
ENDBRANCH   7  20
ENDBRANCH  15   7
ENDBRANCH  10  15
BRANCH  12  18
ATOM     18  C   UNL     1     -18.597   3.409  20.781  0.00  0.00    +0.190 C 
BRANCH  18   4
ATOM      4  O   UNL     1     -18.864   2.039  20.528  0.00  0.00    -0.392 OA
ATOM     33  H   UNL     1     -19.749   1.988  20.129  0.00  0.00    +0.210 HD
ENDBRANCH  18   4
ENDBRANCH  12  18
TORSDOF 8
ENDMDL
MODEL 9
REMARK VINA RESULT:      -6.4     14.107     17.731
REMARK  Name = 28962073
REMARK  8 active torsions:
REMARK  status: ('A' for Active; 'I' for Inactive)
REMARK    1  A    between atoms: O_3  and  C_11
REMARK    2  A    between atoms: O_4  and  C_18
REMARK    3  A    between atoms: N_5  and  C_9
REMARK    4  A    between atoms: N_7  and  C_15
REMARK    5  A    between atoms: N_7  and  C_20
REMARK    6  A    between atoms: C_10  and  C_15
REMARK    7  A    between atoms: C_12  and  C_18
REMARK    8  A    between atoms: C_20  and  C_22
REMARK                            x       y       z     vdW  Elec       q    Type
REMARK                         _______ _______ _______ _____ _____    ______ ____
ROOT
ATOM      2  O   UNL     1      12.622   9.486   4.707  0.00  0.00    -0.366 OA
ATOM      9  C   UNL     1      12.869   7.889   2.959  0.00  0.00    +0.118 C 
ATOM     10  C   UNL     1      12.007   9.048   3.475  0.00  0.00    +0.152 C 
ATOM     11  C   UNL     1      13.502   7.342   4.229  0.00  0.00    +0.165 C 
ATOM     12  C   UNL     1      13.745   8.632   5.002  0.00  0.00    +0.174 C 
ENDROOT
BRANCH   9   5
ATOM      5  N   UNL     1      12.193   6.906   2.130  0.00  0.00    -0.292 NA
ATOM      6  N   UNL     1      11.873   5.162  -0.110  0.00  0.00    -0.313 N 
ATOM      8  N   UNL     1      10.364   4.316  -1.725  0.00  0.00    -0.240 NA
ATOM     13  C   UNL     1      11.927   7.454   0.796  0.00  0.00    +0.104 C 
ATOM     14  C   UNL     1      13.002   5.686   2.016  0.00  0.00    +0.104 C 
ATOM     16  C   UNL     1      11.164   6.448  -0.069  0.00  0.00    +0.122 C 
ATOM     17  C   UNL     1      12.276   4.620   1.191  0.00  0.00    +0.122 C 
ATOM     19  C   UNL     1      11.596   4.291  -1.169  0.00  0.00    +0.121 A 
ATOM     21  C   UNL     1      12.617   3.451  -1.583  0.00  0.00    +0.043 A 
ATOM     23  C   UNL     1      12.356   2.579  -2.635  0.00  0.00    +0.005 A 
ATOM     24  C   UNL     1      10.148   3.455  -2.745  0.00  0.00    +0.113 A 
ATOM     27  C   UNL     1      11.101   2.576  -3.233  0.00  0.00    +0.020 A 
ENDBRANCH   9   5
BRANCH  11   3
ATOM      3  O   UNL     1      12.602   6.501   4.940  0.00  0.00    -0.388 OA
ATOM     31  H   UNL     1      11.831   7.039   5.188  0.00  0.00    +0.210 HD
ENDBRANCH  11   3
BRANCH  10  15
ATOM     15  C   UNL     1      10.548   8.730   3.787  0.00  0.00    +0.114 C 
BRANCH  15   7
ATOM      7  N   UNL     1      10.323   8.677   5.224  0.00  0.00    -0.310 NA
ATOM     32  H   UNL     1      11.093   8.177   5.669  0.00  0.00    +0.122 HD
BRANCH   7  20
ATOM     20  C   UNL     1       9.062   8.015   5.530  0.00  0.00    +0.116 C 
BRANCH  20  22
ATOM      1  F   UNL     1       9.769   3.708   9.095  0.00  0.00    -0.205 F 
ATOM     22  C   UNL     1       9.250   6.864   6.482  0.00  0.00    -0.033 A 
ATOM     25  C   UNL     1       9.092   7.061   7.854  0.00  0.00    +0.008 A 
ATOM     26  C   UNL     1       9.583   5.600   5.993  0.00  0.00    +0.008 A 
ATOM     28  C   UNL     1       9.267   5.995   8.737  0.00  0.00    +0.038 A 
ATOM     29  C   UNL     1       9.758   4.535   6.875  0.00  0.00    +0.038 A 
ATOM     30  C   UNL     1       9.600   4.731   8.247  0.00  0.00    +0.123 A 
ENDBRANCH  20  22
ENDBRANCH   7  20
ENDBRANCH  15   7
ENDBRANCH  10  15
BRANCH  12  18
ATOM     18  C   UNL     1      13.875   8.479   6.506  0.00  0.00    +0.190 C 
BRANCH  18   4
ATOM      4  O   UNL     1      12.579   8.335   7.066  0.00  0.00    -0.392 OA
ATOM     33  H   UNL     1      12.261   9.227   7.284  0.00  0.00    +0.210 HD
ENDBRANCH  18   4
ENDBRANCH  12  18
TORSDOF 8
ENDMDL
MODEL 10
REMARK VINA RESULT:      -6.4     22.365     25.871
REMARK  Name = 28962073
REMARK  8 active torsions:
REMARK  status: ('A' for Active; 'I' for Inactive)
REMARK    1  A    between atoms: O_3  and  C_11
REMARK    2  A    between atoms: O_4  and  C_18
REMARK    3  A    between atoms: N_5  and  C_9
REMARK    4  A    between atoms: N_7  and  C_15
REMARK    5  A    between atoms: N_7  and  C_20
REMARK    6  A    between atoms: C_10  and  C_15
REMARK    7  A    between atoms: C_12  and  C_18
REMARK    8  A    between atoms: C_20  and  C_22
REMARK                            x       y       z     vdW  Elec       q    Type
REMARK                         _______ _______ _______ _____ _____    ______ ____
ROOT
ATOM      2  O   UNL     1       8.752  -6.552  35.882  0.00  0.00    -0.366 OA
ATOM      9  C   UNL     1       7.633  -5.058  37.359  0.00  0.00    +0.118 C 
ATOM     10  C   UNL     1       7.847  -6.536  37.008  0.00  0.00    +0.152 C 
ATOM     11  C   UNL     1       7.898  -4.351  36.038  0.00  0.00    +0.165 C 
ATOM     12  C   UNL     1       9.041  -5.196  35.490  0.00  0.00    +0.174 C 
ENDROOT
BRANCH   9   5
ATOM      5  N   UNL     1       6.372  -4.725  37.998  0.00  0.00    -0.292 NA
ATOM      6  N   UNL     1       4.685  -3.561  39.988  0.00  0.00    -0.313 N 
ATOM      8  N   UNL     1       2.757  -3.857  41.329  0.00  0.00    -0.240 NA
ATOM     13  C   UNL     1       6.313  -5.298  39.348  0.00  0.00    +0.104 C 
ATOM     14  C   UNL     1       6.198  -3.269  38.066  0.00  0.00    +0.104 C 
ATOM     16  C   UNL     1       4.966  -5.003  40.011  0.00  0.00    +0.122 C 
ATOM     17  C   UNL     1       4.847  -2.906  38.687  0.00  0.00    +0.122 C 
ATOM     19  C   UNL     1       3.762  -3.056  40.910  0.00  0.00    +0.121 A 
ATOM     21  C   UNL     1       3.943  -1.750  41.337  0.00  0.00    +0.043 A 
ATOM     23  C   UNL     1       3.034  -1.234  42.254  0.00  0.00    +0.005 A 
ATOM     24  C   UNL     1       1.893  -3.321  42.220  0.00  0.00    +0.113 A 
ATOM     27  C   UNL     1       1.987  -2.028  42.709  0.00  0.00    +0.020 A 
ENDBRANCH   9   5
BRANCH  11   3
ATOM      3  O   UNL     1       6.770  -4.422  35.174  0.00  0.00    -0.388 OA
ATOM     31  H   UNL     1       6.657  -3.547  34.767  0.00  0.00    +0.210 HD
ENDBRANCH  11   3
BRANCH  10  15
ATOM     15  C   UNL     1       6.608  -7.328  36.603  0.00  0.00    +0.114 C 
BRANCH  15   7
ATOM      7  N   UNL     1       6.501  -7.423  35.154  0.00  0.00    -0.310 NA
ATOM     32  H   UNL     1       5.930  -6.652  34.807  0.00  0.00    +0.122 HD
BRANCH   7  20
ATOM     20  C   UNL     1       5.911  -8.694  34.757  0.00  0.00    +0.116 C 
BRANCH  20  22
ATOM      1  F   UNL     1       7.073  -9.964  29.391  0.00  0.00    -0.205 F 
ATOM     22  C   UNL     1       6.222  -9.033  33.324  0.00  0.00    -0.033 A 
ATOM     25  C   UNL     1       6.187  -8.037  32.348  0.00  0.00    +0.008 A 
ATOM     26  C   UNL     1       6.544 -10.345  32.970  0.00  0.00    +0.008 A 
ATOM     28  C   UNL     1       6.475  -8.351  31.020  0.00  0.00    +0.038 A 
ATOM     29  C   UNL     1       6.832 -10.658  31.643  0.00  0.00    +0.038 A 
ATOM     30  C   UNL     1       6.798  -9.662  30.667  0.00  0.00    +0.123 A 
ENDBRANCH  20  22
ENDBRANCH   7  20
ENDBRANCH  15   7
ENDBRANCH  10  15
BRANCH  12  18
ATOM     18  C   UNL     1       9.231  -5.140  33.985  0.00  0.00    +0.190 C 
BRANCH  18   4
ATOM      4  O   UNL     1       8.855  -3.853  33.523  0.00  0.00    -0.392 OA
ATOM     33  H   UNL     1       9.037  -3.225  34.244  0.00  0.00    +0.210 HD
ENDBRANCH  18   4
ENDBRANCH  12  18
TORSDOF 8
ENDMDL
