MODEL 1
REMARK VINA RESULT:      -6.7      0.000      0.000
REMARK  Name = 28962095
REMARK  7 active torsions:
REMARK  status: ('A' for Active; 'I' for Inactive)
REMARK    1  A    between atoms: O_2  and  C_9
REMARK    2  A    between atoms: O_3  and  C_17
REMARK    3  A    between atoms: N_5  and  C_7
REMARK    4  A    between atoms: N_6  and  C_15
REMARK    5  A    between atoms: C_8  and  C_15
REMARK    6  A    between atoms: C_10  and  C_17
REMARK    7  A    between atoms: C_18  and  C_19
REMARK                            x       y       z     vdW  Elec       q    Type
REMARK                         _______ _______ _______ _____ _____    ______ ____
ROOT
ATOM      1  O   UNL     1      12.195   8.641  19.588  0.00  0.00    -0.365 OA
ATOM      7  C   UNL     1      11.284   9.911  21.383  0.00  0.00    +0.118 C 
ATOM      8  C   UNL     1      12.131   9.988  20.106  0.00  0.00    +0.155 C 
ATOM      9  C   UNL     1      11.480   8.473  21.838  0.00  0.00    +0.165 C 
ATOM     10  C   UNL     1      11.511   7.755  20.494  0.00  0.00    +0.174 C 
ENDROOT
BRANCH   7   5
ATOM      5  N   UNL     1      11.552  10.929  22.398  0.00  0.00    -0.295 NA
ATOM     11  C   UNL     1      11.169  12.260  21.906  0.00  0.00    +0.085 C 
ATOM     12  C   UNL     1      10.851  10.604  23.649  0.00  0.00    +0.085 C 
ATOM     13  C   UNL     1      11.488  13.342  22.937  0.00  0.00    +0.015 C 
ATOM     14  C   UNL     1      11.160  11.633  24.738  0.00  0.00    +0.015 C 
ATOM     16  C   UNL     1      10.823  13.046  24.277  0.00  0.00    +0.002 C 
ENDBRANCH   7   5
BRANCH   9   2
ATOM      2  O   UNL     1      12.717   8.307  22.517  0.00  0.00    -0.388 OA
ATOM     25  H   UNL     1      12.585   8.583  23.440  0.00  0.00    +0.210 HD
ENDBRANCH   9   2
BRANCH   8  15
ATOM     15  C   UNL     1      13.565  10.480  20.265  0.00  0.00    +0.137 C 
BRANCH  15   6
ATOM      4  O   UNL     1      15.459   9.336  22.094  0.00  0.00    -0.270 OA
ATOM      6  N   UNL     1      14.503   9.437  19.982  0.00  0.00    -0.309 N 
ATOM     18  C   UNL     1      15.390   8.939  20.934  0.00  0.00    +0.244 C 
ATOM     26  H   UNL     1      14.547   9.112  19.022  0.00  0.00    +0.149 HD
BRANCH  18  19
ATOM     19  C   UNL     1      16.318   7.874  20.475  0.00  0.00    +0.037 A 
ATOM     20  C   UNL     1      15.926   6.995  19.464  0.00  0.00    +0.013 A 
ATOM     21  C   UNL     1      17.582   7.753  21.051  0.00  0.00    +0.013 A 
ATOM     22  C   UNL     1      16.798   5.996  19.031  0.00  0.00    +0.001 A 
ATOM     23  C   UNL     1      18.454   6.754  20.619  0.00  0.00    +0.001 A 
ATOM     24  C   UNL     1      18.062   5.876  19.609  0.00  0.00    +0.000 A 
ENDBRANCH  18  19
ENDBRANCH  15   6
ENDBRANCH   8  15
BRANCH  10  17
ATOM     17  C   UNL     1      12.202   6.404  20.492  0.00  0.00    +0.190 C 
BRANCH  17   3
ATOM      3  O   UNL     1      11.751   5.655  21.609  0.00  0.00    -0.392 OA
ATOM     27  H   UNL     1      11.453   4.793  21.275  0.00  0.00    +0.210 HD
ENDBRANCH  17   3
ENDBRANCH  10  17
TORSDOF 7
ENDMDL
MODEL 2
REMARK VINA RESULT:      -6.2     25.891     28.155
REMARK  Name = 28962095
REMARK  7 active torsions:
REMARK  status: ('A' for Active; 'I' for Inactive)
REMARK    1  A    between atoms: O_2  and  C_9
REMARK    2  A    between atoms: O_3  and  C_17
REMARK    3  A    between atoms: N_5  and  C_7
REMARK    4  A    between atoms: N_6  and  C_15
REMARK    5  A    between atoms: C_8  and  C_15
REMARK    6  A    between atoms: C_10  and  C_17
REMARK    7  A    between atoms: C_18  and  C_19
REMARK                            x       y       z     vdW  Elec       q    Type
REMARK                         _______ _______ _______ _____ _____    ______ ____
ROOT
ATOM      1  O   UNL     1      -3.184 -12.307  14.601  0.00  0.00    -0.365 OA
ATOM      7  C   UNL     1      -4.203 -12.102  16.742  0.00  0.00    +0.118 C 
ATOM      8  C   UNL     1      -4.353 -12.716  15.344  0.00  0.00    +0.155 C 
ATOM      9  C   UNL     1      -3.322 -10.888  16.490  0.00  0.00    +0.165 C 
ATOM     10  C   UNL     1      -2.382 -11.439  15.424  0.00  0.00    +0.174 C 
ENDROOT
BRANCH   7   5
ATOM      5  N   UNL     1      -5.445 -11.833  17.466  0.00  0.00    -0.295 NA
ATOM     11  C   UNL     1      -6.152 -13.087  17.758  0.00  0.00    +0.085 C 
ATOM     12  C   UNL     1      -5.169 -11.079  18.697  0.00  0.00    +0.085 C 
ATOM     13  C   UNL     1      -7.478 -12.820  18.472  0.00  0.00    +0.015 C 
ATOM     14  C   UNL     1      -6.462 -10.746  19.443  0.00  0.00    +0.015 C 
ATOM     16  C   UNL     1      -7.268 -12.005  19.743  0.00  0.00    +0.002 C 
ENDBRANCH   7   5
BRANCH   9   2
ATOM      2  O   UNL     1      -4.075  -9.799  15.971  0.00  0.00    -0.388 OA
ATOM     25  H   UNL     1      -3.575  -9.425  15.225  0.00  0.00    +0.210 HD
ENDBRANCH   9   2
BRANCH   8  15
ATOM     15  C   UNL     1      -5.574 -12.290  14.536  0.00  0.00    +0.137 C 
BRANCH  15   6
ATOM      4  O   UNL     1      -6.164  -9.571  13.830  0.00  0.00    -0.270 OA
ATOM      6  N   UNL     1      -5.188 -11.617  13.334  0.00  0.00    -0.309 N 
ATOM     18  C   UNL     1      -5.519 -10.290  13.072  0.00  0.00    +0.244 C 
ATOM     26  H   UNL     1      -4.713 -12.175  12.632  0.00  0.00    +0.149 HD
BRANCH  18  19
ATOM     19  C   UNL     1      -5.066  -9.745  11.766  0.00  0.00    +0.037 A 
ATOM     20  C   UNL     1      -3.774 -10.011  11.309  0.00  0.00    +0.013 A 
ATOM     21  C   UNL     1      -5.932  -8.970  10.995  0.00  0.00    +0.013 A 
ATOM     22  C   UNL     1      -3.350  -9.502  10.082  0.00  0.00    +0.001 A 
ATOM     23  C   UNL     1      -5.507  -8.459   9.768  0.00  0.00    +0.001 A 
ATOM     24  C   UNL     1      -4.216  -8.726   9.311  0.00  0.00    +0.000 A 
ENDBRANCH  18  19
ENDBRANCH  15   6
ENDBRANCH   8  15
BRANCH  10  17
ATOM     17  C   UNL     1      -1.708 -10.399  14.548  0.00  0.00    +0.190 C 
BRANCH  17   3
ATOM      3  O   UNL     1      -1.258  -9.331  15.366  0.00  0.00    -0.392 OA
ATOM     27  H   UNL     1      -0.287  -9.355  15.361  0.00  0.00    +0.210 HD
ENDBRANCH  17   3
ENDBRANCH  10  17
TORSDOF 7
ENDMDL
MODEL 3
REMARK VINA RESULT:      -5.8     27.089     28.480
REMARK  Name = 28962095
REMARK  7 active torsions:
REMARK  status: ('A' for Active; 'I' for Inactive)
REMARK    1  A    between atoms: O_2  and  C_9
REMARK    2  A    between atoms: O_3  and  C_17
REMARK    3  A    between atoms: N_5  and  C_7
REMARK    4  A    between atoms: N_6  and  C_15
REMARK    5  A    between atoms: C_8  and  C_15
REMARK    6  A    between atoms: C_10  and  C_17
REMARK    7  A    between atoms: C_18  and  C_19
REMARK                            x       y       z     vdW  Elec       q    Type
REMARK                         _______ _______ _______ _____ _____    ______ ____
ROOT
ATOM      1  O   UNL     1      -2.131 -11.732  13.914  0.00  0.00    -0.365 OA
ATOM      7  C   UNL     1      -2.716 -11.340  11.641  0.00  0.00    +0.118 C 
ATOM      8  C   UNL     1      -2.639 -10.704  13.035  0.00  0.00    +0.155 C 
ATOM      9  C   UNL     1      -2.871 -12.822  11.948  0.00  0.00    +0.165 C 
ATOM     10  C   UNL     1      -1.966 -12.952  13.167  0.00  0.00    +0.174 C 
ENDROOT
BRANCH   7   5
ATOM      5  N   UNL     1      -3.717 -10.784  10.731  0.00  0.00    -0.295 NA
ATOM     11  C   UNL     1      -3.274  -9.481  10.215  0.00  0.00    +0.085 C 
ATOM     12  C   UNL     1      -3.994 -11.723   9.635  0.00  0.00    +0.085 C 
ATOM     13  C   UNL     1      -4.332  -8.862   9.300  0.00  0.00    +0.015 C 
ATOM     14  C   UNL     1      -5.075 -11.178   8.701  0.00  0.00    +0.015 C 
ATOM     16  C   UNL     1      -4.697  -9.805   8.158  0.00  0.00    +0.002 C 
ENDBRANCH   7   5
BRANCH   9   2
ATOM      2  O   UNL     1      -4.212 -13.144  12.291  0.00  0.00    -0.388 OA
ATOM     25  H   UNL     1      -4.740 -12.331  12.210  0.00  0.00    +0.210 HD
ENDBRANCH   9   2
BRANCH   8  15
ATOM     15  C   UNL     1      -3.949 -10.203  13.632  0.00  0.00    +0.137 C 
BRANCH  15   6
ATOM      4  O   UNL     1      -6.207  -9.753  15.347  0.00  0.00    -0.270 OA
ATOM      6  N   UNL     1      -4.064 -10.577  15.009  0.00  0.00    -0.309 N 
ATOM     18  C   UNL     1      -5.202 -10.318  15.770  0.00  0.00    +0.244 C 
ATOM     26  H   UNL     1      -3.242 -10.985  15.440  0.00  0.00    +0.149 HD
BRANCH  18  19
ATOM     19  C   UNL     1      -5.153 -10.746  17.192  0.00  0.00    +0.037 A 
ATOM     20  C   UNL     1      -4.079 -11.506  17.655  0.00  0.00    +0.013 A 
ATOM     21  C   UNL     1      -6.179 -10.384  18.064  0.00  0.00    +0.013 A 
ATOM     22  C   UNL     1      -4.033 -11.906  18.991  0.00  0.00    +0.001 A 
ATOM     23  C   UNL     1      -6.133 -10.785  19.400  0.00  0.00    +0.001 A 
ATOM     24  C   UNL     1      -5.059 -11.545  19.863  0.00  0.00    +0.000 A 
ENDBRANCH  18  19
ENDBRANCH  15   6
ENDBRANCH   8  15
BRANCH  10  17
ATOM     17  C   UNL     1      -2.255 -14.136  14.072  0.00  0.00    +0.190 C 
BRANCH  17   3
ATOM      3  O   UNL     1      -3.184 -13.736  15.068  0.00  0.00    -0.392 OA
ATOM     27  H   UNL     1      -3.333 -14.503  15.645  0.00  0.00    +0.210 HD
ENDBRANCH  17   3
ENDBRANCH  10  17
TORSDOF 7
ENDMDL
MODEL 4
REMARK VINA RESULT:      -5.8     27.798     30.256
REMARK  Name = 28962095
REMARK  7 active torsions:
REMARK  status: ('A' for Active; 'I' for Inactive)
REMARK    1  A    between atoms: O_2  and  C_9
REMARK    2  A    between atoms: O_3  and  C_17
REMARK    3  A    between atoms: N_5  and  C_7
REMARK    4  A    between atoms: N_6  and  C_15
REMARK    5  A    between atoms: C_8  and  C_15
REMARK    6  A    between atoms: C_10  and  C_17
REMARK    7  A    between atoms: C_18  and  C_19
REMARK                            x       y       z     vdW  Elec       q    Type
REMARK                         _______ _______ _______ _____ _____    ______ ____
ROOT
ATOM      1  O   UNL     1     -17.530   3.371  23.949  0.00  0.00    -0.365 OA
ATOM      7  C   UNL     1     -17.266   2.787  26.241  0.00  0.00    +0.118 C 
ATOM      8  C   UNL     1     -16.770   3.717  25.128  0.00  0.00    +0.155 C 
ATOM      9  C   UNL     1     -17.781   1.578  25.474  0.00  0.00    +0.165 C 
ATOM     10  C   UNL     1     -18.392   2.258  24.256  0.00  0.00    +0.174 C 
ENDROOT
BRANCH   7   5
ATOM      5  N   UNL     1     -16.311   2.489  27.308  0.00  0.00    -0.295 NA
ATOM     11  C   UNL     1     -16.131   3.659  28.178  0.00  0.00    +0.085 C 
ATOM     12  C   UNL     1     -16.751   1.317  28.079  0.00  0.00    +0.085 C 
ATOM     13  C   UNL     1     -15.098   3.380  29.271  0.00  0.00    +0.015 C 
ATOM     14  C   UNL     1     -15.738   0.961  29.169  0.00  0.00    +0.015 C 
ATOM     16  C   UNL     1     -15.473   2.148  30.087  0.00  0.00    +0.002 C 
ENDBRANCH   7   5
BRANCH   9   2
ATOM      2  O   UNL     1     -16.717   0.721  25.081  0.00  0.00    -0.388 OA
ATOM     25  H   UNL     1     -17.111  -0.110  24.764  0.00  0.00    +0.210 HD
ENDBRANCH   9   2
BRANCH   8  15
ATOM     15  C   UNL     1     -15.293   3.617  24.759  0.00  0.00    +0.137 C 
BRANCH  15   6
ATOM      4  O   UNL     1     -15.155   4.285  21.971  0.00  0.00    -0.270 OA
ATOM      6  N   UNL     1     -14.817   4.844  24.197  0.00  0.00    -0.309 N 
ATOM     18  C   UNL     1     -14.786   5.085  22.825  0.00  0.00    +0.244 C 
ATOM     26  H   UNL     1     -14.431   5.522  24.845  0.00  0.00    +0.149 HD
BRANCH  18  19
ATOM     19  C   UNL     1     -14.238   6.399  22.401  0.00  0.00    +0.037 A 
ATOM     20  C   UNL     1     -14.776   7.579  22.918  0.00  0.00    +0.013 A 
ATOM     21  C   UNL     1     -13.185   6.455  21.489  0.00  0.00    +0.013 A 
ATOM     22  C   UNL     1     -14.261   8.812  22.521  0.00  0.00    +0.001 A 
ATOM     23  C   UNL     1     -12.671   7.689  21.091  0.00  0.00    +0.001 A 
ATOM     24  C   UNL     1     -13.208   8.868  21.608  0.00  0.00    +0.000 A 
ENDBRANCH  18  19
ENDBRANCH  15   6
ENDBRANCH   8  15
BRANCH  10  17
ATOM     17  C   UNL     1     -18.538   1.384  23.024  0.00  0.00    +0.190 C 
BRANCH  17   3
ATOM      3  O   UNL     1     -17.312   1.390  22.309  0.00  0.00    -0.392 OA
ATOM     27  H   UNL     1     -16.701   1.971  22.792  0.00  0.00    +0.210 HD
ENDBRANCH  17   3
ENDBRANCH  10  17
TORSDOF 7
ENDMDL
MODEL 5
REMARK VINA RESULT:      -5.7     27.575     29.967
REMARK  Name = 28962095
REMARK  7 active torsions:
REMARK  status: ('A' for Active; 'I' for Inactive)
REMARK    1  A    between atoms: O_2  and  C_9
REMARK    2  A    between atoms: O_3  and  C_17
REMARK    3  A    between atoms: N_5  and  C_7
REMARK    4  A    between atoms: N_6  and  C_15
REMARK    5  A    between atoms: C_8  and  C_15
REMARK    6  A    between atoms: C_10  and  C_17
REMARK    7  A    between atoms: C_18  and  C_19
REMARK                            x       y       z     vdW  Elec       q    Type
REMARK                         _______ _______ _______ _____ _____    ______ ____
ROOT
ATOM      1  O   UNL     1     -17.266   4.944  23.396  0.00  0.00    -0.365 OA
ATOM      7  C   UNL     1     -17.509   3.687  25.403  0.00  0.00    +0.118 C 
ATOM      8  C   UNL     1     -16.651   4.738  24.687  0.00  0.00    +0.155 C 
ATOM      9  C   UNL     1     -18.138   2.916  24.251  0.00  0.00    +0.165 C 
ATOM     10  C   UNL     1     -18.383   4.046  23.258  0.00  0.00    +0.174 C 
ENDROOT
BRANCH   7   5
ATOM      5  N   UNL     1     -16.827   2.867  26.403  0.00  0.00    -0.295 NA
ATOM     11  C   UNL     1     -16.323   3.707  27.499  0.00  0.00    +0.085 C 
ATOM     12  C   UNL     1     -17.725   1.818  26.908  0.00  0.00    +0.085 C 
ATOM     13  C   UNL     1     -15.563   2.871  28.529  0.00  0.00    +0.015 C 
ATOM     14  C   UNL     1     -17.011   0.921  27.920  0.00  0.00    +0.015 C 
ATOM     16  C   UNL     1     -16.427   1.735  29.068  0.00  0.00    +0.002 C 
ENDBRANCH   7   5
BRANCH   9   2
ATOM      2  O   UNL     1     -17.232   1.966  23.706  0.00  0.00    -0.388 OA
ATOM     25  H   UNL     1     -17.113   2.179  22.764  0.00  0.00    +0.210 HD
ENDBRANCH   9   2
BRANCH   8  15
ATOM     15  C   UNL     1     -15.190   4.376  24.441  0.00  0.00    +0.137 C 
BRANCH  15   6
ATOM      4  O   UNL     1     -14.471   4.381  21.662  0.00  0.00    -0.270 OA
ATOM      6  N   UNL     1     -14.512   5.421  23.736  0.00  0.00    -0.309 N 
ATOM     18  C   UNL     1     -14.202   5.340  22.380  0.00  0.00    +0.244 C 
ATOM     26  H   UNL     1     -14.198   6.213  24.286  0.00  0.00    +0.149 HD
BRANCH  18  19
ATOM     19  C   UNL     1     -13.472   6.498  21.802  0.00  0.00    +0.037 A 
ATOM     20  C   UNL     1     -12.247   6.302  21.163  0.00  0.00    +0.013 A 
ATOM     21  C   UNL     1     -14.012   7.780  21.896  0.00  0.00    +0.013 A 
ATOM     22  C   UNL     1     -11.564   7.389  20.618  0.00  0.00    +0.001 A 
ATOM     23  C   UNL     1     -13.328   8.867  21.352  0.00  0.00    +0.001 A 
ATOM     24  C   UNL     1     -12.104   8.672  20.712  0.00  0.00    +0.000 A 
ENDBRANCH  18  19
ENDBRANCH  15   6
ENDBRANCH   8  15
BRANCH  10  17
ATOM     17  C   UNL     1     -18.509   3.623  21.806  0.00  0.00    +0.190 C 
BRANCH  17   3
ATOM      3  O   UNL     1     -17.251   3.783  21.171  0.00  0.00    -0.392 OA
ATOM     27  H   UNL     1     -17.103   4.738  21.063  0.00  0.00    +0.210 HD
ENDBRANCH  17   3
ENDBRANCH  10  17
TORSDOF 7
ENDMDL
MODEL 6
REMARK VINA RESULT:      -5.6      1.926      6.716
REMARK  Name = 28962095
REMARK  7 active torsions:
REMARK  status: ('A' for Active; 'I' for Inactive)
REMARK    1  A    between atoms: O_2  and  C_9
REMARK    2  A    between atoms: O_3  and  C_17
REMARK    3  A    between atoms: N_5  and  C_7
REMARK    4  A    between atoms: N_6  and  C_15
REMARK    5  A    between atoms: C_8  and  C_15
REMARK    6  A    between atoms: C_10  and  C_17
REMARK    7  A    between atoms: C_18  and  C_19
REMARK                            x       y       z     vdW  Elec       q    Type
REMARK                         _______ _______ _______ _____ _____    ______ ____
ROOT
ATOM      1  O   UNL     1      12.064   8.567  19.533  0.00  0.00    -0.365 OA
ATOM      7  C   UNL     1      14.082   7.306  19.562  0.00  0.00    +0.118 C 
ATOM      8  C   UNL     1      13.238   8.324  20.339  0.00  0.00    +0.155 C 
ATOM      9  C   UNL     1      13.661   7.542  18.119  0.00  0.00    +0.165 C 
ATOM     10  C   UNL     1      12.176   7.826  18.303  0.00  0.00    +0.174 C 
ENDROOT
BRANCH   7   5
ATOM      5  N   UNL     1      15.524   7.342  19.806  0.00  0.00    -0.295 NA
ATOM     11  C   UNL     1      15.800   7.383  21.248  0.00  0.00    +0.085 C 
ATOM     12  C   UNL     1      16.181   6.190  19.172  0.00  0.00    +0.085 C 
ATOM     13  C   UNL     1      17.303   7.471  21.519  0.00  0.00    +0.015 C 
ATOM     14  C   UNL     1      17.696   6.238  19.375  0.00  0.00    +0.015 C 
ATOM     16  C   UNL     1      18.054   6.323  20.854  0.00  0.00    +0.002 C 
ENDBRANCH   7   5
BRANCH   9   2
ATOM      2  O   UNL     1      14.318   8.675  17.565  0.00  0.00    -0.388 OA
ATOM     25  H   UNL     1      13.836   9.467  17.861  0.00  0.00    +0.210 HD
ENDBRANCH   9   2
BRANCH   8  15
ATOM     15  C   UNL     1      13.883   9.677  20.619  0.00  0.00    +0.137 C 
BRANCH  15   6
ATOM      4  O   UNL     1      14.828  10.668  23.142  0.00  0.00    -0.270 OA
ATOM      6  N   UNL     1      13.127  10.419  21.582  0.00  0.00    -0.309 N 
ATOM     18  C   UNL     1      13.668  10.863  22.787  0.00  0.00    +0.244 C 
ATOM     26  H   UNL     1      12.142  10.553  21.383  0.00  0.00    +0.149 HD
BRANCH  18  19
ATOM     19  C   UNL     1      12.746  11.597  23.690  0.00  0.00    +0.037 A 
ATOM     20  C   UNL     1      13.223  12.138  24.885  0.00  0.00    +0.013 A 
ATOM     21  C   UNL     1      11.403  11.749  23.345  0.00  0.00    +0.013 A 
ATOM     22  C   UNL     1      12.358  12.830  25.732  0.00  0.00    +0.001 A 
ATOM     23  C   UNL     1      10.538  12.439  24.193  0.00  0.00    +0.001 A 
ATOM     24  C   UNL     1      11.015  12.980  25.387  0.00  0.00    +0.000 A 
ENDBRANCH  18  19
ENDBRANCH  15   6
ENDBRANCH   8  15
BRANCH  10  17
ATOM     17  C   UNL     1      11.518   8.613  17.183  0.00  0.00    +0.190 C 
BRANCH  17   3
ATOM      3  O   UNL     1      10.556   7.788  16.546  0.00  0.00    -0.392 OA
ATOM     27  H   UNL     1       9.939   8.375  16.078  0.00  0.00    +0.210 HD
ENDBRANCH  17   3
ENDBRANCH  10  17
TORSDOF 7
ENDMDL
MODEL 7
REMARK VINA RESULT:      -5.4     15.996     17.765
REMARK  Name = 28962095
REMARK  7 active torsions:
REMARK  status: ('A' for Active; 'I' for Inactive)
REMARK    1  A    between atoms: O_2  and  C_9
REMARK    2  A    between atoms: O_3  and  C_17
REMARK    3  A    between atoms: N_5  and  C_7
REMARK    4  A    between atoms: N_6  and  C_15
REMARK    5  A    between atoms: C_8  and  C_15
REMARK    6  A    between atoms: C_10  and  C_17
REMARK    7  A    between atoms: C_18  and  C_19
REMARK                            x       y       z     vdW  Elec       q    Type
REMARK                         _______ _______ _______ _____ _____    ______ ____
ROOT
ATOM      1  O   UNL     1       9.012   5.488   7.127  0.00  0.00    -0.365 OA
ATOM      7  C   UNL     1      10.649   7.170   6.735  0.00  0.00    +0.118 C 
ATOM      8  C   UNL     1       9.686   6.187   6.057  0.00  0.00    +0.155 C 
ATOM      9  C   UNL     1      10.922   6.511   8.079  0.00  0.00    +0.165 C 
ATOM     10  C   UNL     1       9.549   5.927   8.389  0.00  0.00    +0.174 C 
ENDROOT
BRANCH   7   5
ATOM      5  N   UNL     1      11.838   7.541   5.969  0.00  0.00    -0.295 NA
ATOM     11  C   UNL     1      11.491   8.504   4.915  0.00  0.00    +0.085 C 
ATOM     12  C   UNL     1      12.876   8.079   6.859  0.00  0.00    +0.085 C 
ATOM     13  C   UNL     1      12.715   8.865   4.072  0.00  0.00    +0.015 C 
ATOM     14  C   UNL     1      14.146   8.427   6.080  0.00  0.00    +0.015 C 
ATOM     16  C   UNL     1      13.850   9.396   4.942  0.00  0.00    +0.002 C 
ENDBRANCH   7   5
BRANCH   9   2
ATOM      2  O   UNL     1      11.887   5.473   7.962  0.00  0.00    -0.388 OA
ATOM     25  H   UNL     1      12.042   5.114   8.853  0.00  0.00    +0.210 HD
ENDBRANCH   9   2
BRANCH   8  15
ATOM     15  C   UNL     1      10.309   5.133   5.149  0.00  0.00    +0.137 C 
BRANCH  15   6
ATOM      4  O   UNL     1      11.265   3.647   2.887  0.00  0.00    -0.270 OA
ATOM      6  N   UNL     1      10.168   5.491   3.771  0.00  0.00    -0.309 N 
ATOM     18  C   UNL     1      10.665   4.707   2.732  0.00  0.00    +0.244 C 
ATOM     26  H   UNL     1       9.743   6.391   3.575  0.00  0.00    +0.149 HD
BRANCH  18  19
ATOM     19  C   UNL     1      10.459   5.231   1.357  0.00  0.00    +0.037 A 
ATOM     20  C   UNL     1      10.642   4.392   0.257  0.00  0.00    +0.013 A 
ATOM     21  C   UNL     1      10.081   6.559   1.165  0.00  0.00    +0.013 A 
ATOM     22  C   UNL     1      10.447   4.883  -1.034  0.00  0.00    +0.001 A 
ATOM     23  C   UNL     1       9.888   7.051  -0.126  0.00  0.00    +0.001 A 
ATOM     24  C   UNL     1      10.070   6.213  -1.226  0.00  0.00    +0.000 A 
ENDBRANCH  18  19
ENDBRANCH  15   6
ENDBRANCH   8  15
BRANCH  10  17
ATOM     17  C   UNL     1       9.539   4.768   9.368  0.00  0.00    +0.190 C 
BRANCH  17   3
ATOM      3  O   UNL     1       9.935   3.588   8.687  0.00  0.00    -0.392 OA
ATOM     27  H   UNL     1      10.725   3.247   9.137  0.00  0.00    +0.210 HD
ENDBRANCH  17   3
ENDBRANCH  10  17
TORSDOF 7
ENDMDL
MODEL 8
REMARK VINA RESULT:      -5.4      4.647      7.013
REMARK  Name = 28962095
REMARK  7 active torsions:
REMARK  status: ('A' for Active; 'I' for Inactive)
REMARK    1  A    between atoms: O_2  and  C_9
REMARK    2  A    between atoms: O_3  and  C_17
REMARK    3  A    between atoms: N_5  and  C_7
REMARK    4  A    between atoms: N_6  and  C_15
REMARK    5  A    between atoms: C_8  and  C_15
REMARK    6  A    between atoms: C_10  and  C_17
REMARK    7  A    between atoms: C_18  and  C_19
REMARK                            x       y       z     vdW  Elec       q    Type
REMARK                         _______ _______ _______ _____ _____    ______ ____
ROOT
ATOM      1  O   UNL     1      12.534  10.174  17.864  0.00  0.00    -0.365 OA
ATOM      7  C   UNL     1      13.906   8.543  18.923  0.00  0.00    +0.118 C 
ATOM      8  C   UNL     1      13.733  10.044  18.659  0.00  0.00    +0.155 C 
ATOM      9  C   UNL     1      13.189   7.903  17.745  0.00  0.00    +0.165 C 
ATOM     10  C   UNL     1      12.016   8.861  17.575  0.00  0.00    +0.174 C 
ENDROOT
BRANCH   7   5
ATOM      5  N   UNL     1      15.275   8.080  19.147  0.00  0.00    -0.295 NA
ATOM     11  C   UNL     1      15.795   8.607  20.417  0.00  0.00    +0.085 C 
ATOM     12  C   UNL     1      15.332   6.611  19.119  0.00  0.00    +0.085 C 
ATOM     13  C   UNL     1      17.244   8.172  20.642  0.00  0.00    +0.015 C 
ATOM     14  C   UNL     1      16.766   6.111  19.303  0.00  0.00    +0.015 C 
ATOM     16  C   UNL     1      17.382   6.655  20.586  0.00  0.00    +0.002 C 
ENDBRANCH   7   5
BRANCH   9   2
ATOM      2  O   UNL     1      14.002   7.903  16.579  0.00  0.00    -0.388 OA
ATOM     25  H   UNL     1      14.476   7.054  16.551  0.00  0.00    +0.210 HD
ENDBRANCH   9   2
BRANCH   8  15
ATOM     15  C   UNL     1      14.857  10.739  17.898  0.00  0.00    +0.137 C 
BRANCH  15   6
ATOM      4  O   UNL     1      16.478  11.953  15.864  0.00  0.00    -0.270 OA
ATOM      6  N   UNL     1      14.450  11.074  16.568  0.00  0.00    -0.309 N 
ATOM     18  C   UNL     1      15.306  11.663  15.641  0.00  0.00    +0.244 C 
ATOM     26  H   UNL     1      13.472  10.925  16.340  0.00  0.00    +0.149 HD
BRANCH  18  19
ATOM     19  C   UNL     1      14.723  11.972  14.310  0.00  0.00    +0.037 A 
ATOM     20  C   UNL     1      13.351  12.198  14.185  0.00  0.00    +0.013 A 
ATOM     21  C   UNL     1      15.545  12.040  13.186  0.00  0.00    +0.013 A 
ATOM     22  C   UNL     1      12.804  12.490  12.936  0.00  0.00    +0.001 A 
ATOM     23  C   UNL     1      14.997  12.331  11.936  0.00  0.00    +0.001 A 
ATOM     24  C   UNL     1      13.626  12.557  11.811  0.00  0.00    +0.000 A 
ENDBRANCH  18  19
ENDBRANCH  15   6
ENDBRANCH   8  15
BRANCH  10  17
ATOM     17  C   UNL     1      11.373   8.868  16.201  0.00  0.00    +0.190 C 
BRANCH  17   3
ATOM      3  O   UNL     1      10.177   8.106  16.250  0.00  0.00    -0.392 OA
ATOM     27  H   UNL     1      10.260   7.400  15.588  0.00  0.00    +0.210 HD
ENDBRANCH  17   3
ENDBRANCH  10  17
TORSDOF 7
ENDMDL
MODEL 9
REMARK VINA RESULT:      -5.4     26.551     28.224
REMARK  Name = 28962095
REMARK  7 active torsions:
REMARK  status: ('A' for Active; 'I' for Inactive)
REMARK    1  A    between atoms: O_2  and  C_9
REMARK    2  A    between atoms: O_3  and  C_17
REMARK    3  A    between atoms: N_5  and  C_7
REMARK    4  A    between atoms: N_6  and  C_15
REMARK    5  A    between atoms: C_8  and  C_15
REMARK    6  A    between atoms: C_10  and  C_17
REMARK    7  A    between atoms: C_18  and  C_19
REMARK                            x       y       z     vdW  Elec       q    Type
REMARK                         _______ _______ _______ _____ _____    ______ ____
ROOT
ATOM      1  O   UNL     1      -6.779  -9.738  17.720  0.00  0.00    -0.365 OA
ATOM      7  C   UNL     1      -4.673 -10.432  16.856  0.00  0.00    +0.118 C 
ATOM      8  C   UNL     1      -5.920  -9.588  16.568  0.00  0.00    +0.155 C 
ATOM      9  C   UNL     1      -5.189 -11.488  17.821  0.00  0.00    +0.165 C 
ATOM     10  C   UNL     1      -6.171 -10.662  18.643  0.00  0.00    +0.174 C 
ENDROOT
BRANCH   7   5
ATOM      5  N   UNL     1      -3.958 -10.948  15.689  0.00  0.00    -0.295 NA
ATOM     11  C   UNL     1      -2.592 -10.410  15.643  0.00  0.00    +0.085 C 
ATOM     12  C   UNL     1      -3.950 -12.418  15.700  0.00  0.00    +0.085 C 
ATOM     13  C   UNL     1      -1.847 -10.902  14.401  0.00  0.00    +0.015 C 
ATOM     14  C   UNL     1      -3.249 -12.976  14.460  0.00  0.00    +0.015 C 
ATOM     16  C   UNL     1      -1.834 -12.425  14.329  0.00  0.00    +0.002 C 
ENDBRANCH   7   5
BRANCH   9   2
ATOM      2  O   UNL     1      -5.871 -12.530  17.135  0.00  0.00    -0.388 OA
ATOM     25  H   UNL     1      -5.973 -13.272  17.755  0.00  0.00    +0.210 HD
ENDBRANCH   9   2
BRANCH   8  15
ATOM     15  C   UNL     1      -6.739  -9.973  15.341  0.00  0.00    +0.137 C 
BRANCH  15   6
ATOM      4  O   UNL     1      -6.306 -11.622  13.031  0.00  0.00    -0.270 OA
ATOM      6  N   UNL     1      -6.069  -9.594  14.134  0.00  0.00    -0.309 N 
ATOM     18  C   UNL     1      -5.903 -10.463  13.058  0.00  0.00    +0.244 C 
ATOM     26  H   UNL     1      -5.649  -8.671  14.117  0.00  0.00    +0.149 HD
BRANCH  18  19
ATOM     19  C   UNL     1      -5.161  -9.925  11.888  0.00  0.00    +0.037 A 
ATOM     20  C   UNL     1      -3.932 -10.479  11.527  0.00  0.00    +0.013 A 
ATOM     21  C   UNL     1      -5.694  -8.870  11.148  0.00  0.00    +0.013 A 
ATOM     22  C   UNL     1      -3.237  -9.976  10.427  0.00  0.00    +0.001 A 
ATOM     23  C   UNL     1      -4.998  -8.367  10.049  0.00  0.00    +0.001 A 
ATOM     24  C   UNL     1      -3.769  -8.920   9.688  0.00  0.00    +0.000 A 
ENDBRANCH  18  19
ENDBRANCH  15   6
ENDBRANCH   8  15
BRANCH  10  17
ATOM     17  C   UNL     1      -7.257 -11.452  19.349  0.00  0.00    +0.190 C 
BRANCH  17   3
ATOM      3  O   UNL     1      -8.117 -10.548  20.024  0.00  0.00    -0.392 OA
ATOM     27  H   UNL     1      -8.953 -11.015  20.189  0.00  0.00    +0.210 HD
ENDBRANCH  17   3
ENDBRANCH  10  17
TORSDOF 7
ENDMDL
MODEL 10
REMARK VINA RESULT:      -5.3     31.571     33.202
REMARK  Name = 28962095
REMARK  7 active torsions:
REMARK  status: ('A' for Active; 'I' for Inactive)
REMARK    1  A    between atoms: O_2  and  C_9
REMARK    2  A    between atoms: O_3  and  C_17
REMARK    3  A    between atoms: N_5  and  C_7
REMARK    4  A    between atoms: N_6  and  C_15
REMARK    5  A    between atoms: C_8  and  C_15
REMARK    6  A    between atoms: C_10  and  C_17
REMARK    7  A    between atoms: C_18  and  C_19
REMARK                            x       y       z     vdW  Elec       q    Type
REMARK                         _______ _______ _______ _____ _____    ______ ____
ROOT
ATOM      1  O   UNL     1      -7.926  -9.101  40.134  0.00  0.00    -0.365 OA
ATOM      7  C   UNL     1      -8.338  -6.770  40.377  0.00  0.00    +0.118 C 
ATOM      8  C   UNL     1      -8.985  -8.122  40.052  0.00  0.00    +0.155 C 
ATOM      9  C   UNL     1      -6.885  -6.982  39.982  0.00  0.00    +0.165 C 
ATOM     10  C   UNL     1      -6.684  -8.429  40.414  0.00  0.00    +0.174 C 
ENDROOT
BRANCH   7   5
ATOM      5  N   UNL     1      -8.978  -5.590  39.796  0.00  0.00    -0.295 NA
ATOM     11  C   UNL     1     -10.395  -5.533  40.179  0.00  0.00    +0.085 C 
ATOM     12  C   UNL     1      -8.268  -4.369  40.200  0.00  0.00    +0.085 C 
ATOM     13  C   UNL     1     -11.091  -4.331  39.539  0.00  0.00    +0.015 C 
ATOM     14  C   UNL     1      -8.894  -3.129  39.561  0.00  0.00    +0.015 C 
ATOM     16  C   UNL     1     -10.380  -3.028  39.886  0.00  0.00    +0.002 C 
ENDBRANCH   7   5
BRANCH   9   2
ATOM      2  O   UNL     1      -6.704  -6.854  38.578  0.00  0.00    -0.388 OA
ATOM     25  H   UNL     1      -5.966  -6.238  38.431  0.00  0.00    +0.210 HD
ENDBRANCH   9   2
BRANCH   8  15
ATOM     15  C   UNL     1      -9.624  -8.261  38.674  0.00  0.00    +0.137 C 
BRANCH  15   6
ATOM      4  O   UNL     1     -11.047 -10.020  36.907  0.00  0.00    -0.270 OA
ATOM      6  N   UNL     1      -9.083  -9.380  37.965  0.00  0.00    -0.309 N 
ATOM     18  C   UNL     1      -9.849 -10.184  37.124  0.00  0.00    +0.244 C 
ATOM     26  H   UNL     1      -8.114  -9.614  38.154  0.00  0.00    +0.149 HD
BRANCH  18  19
ATOM     19  C   UNL     1      -9.144 -11.323  36.481  0.00  0.00    +0.037 A 
ATOM     20  C   UNL     1      -7.836 -11.164  36.022  0.00  0.00    +0.013 A 
ATOM     21  C   UNL     1      -9.788 -12.551  36.339  0.00  0.00    +0.013 A 
ATOM     22  C   UNL     1      -7.174 -12.234  35.421  0.00  0.00    +0.001 A 
ATOM     23  C   UNL     1      -9.126 -13.621  35.736  0.00  0.00    +0.001 A 
ATOM     24  C   UNL     1      -7.818 -13.463  35.278  0.00  0.00    +0.000 A 
ENDBRANCH  18  19
ENDBRANCH  15   6
ENDBRANCH   8  15
BRANCH  10  17
ATOM     17  C   UNL     1      -5.549  -9.165  39.725  0.00  0.00    +0.190 C 
BRANCH  17   3
ATOM      3  O   UNL     1      -6.027  -9.699  38.500  0.00  0.00    -0.392 OA
ATOM     27  H   UNL     1      -5.283 -10.165  38.081  0.00  0.00    +0.210 HD
ENDBRANCH  17   3
ENDBRANCH  10  17
TORSDOF 7
ENDMDL
