MODEL 1
REMARK VINA RESULT:      -6.7      0.000      0.000
REMARK  Name = 26743460
REMARK  7 active torsions:
REMARK  status: ('A' for Active; 'I' for Inactive)
REMARK    1  A    between atoms: S_2  and  C_19
REMARK    2  A    between atoms: S_2  and  C_23
REMARK    3  A    between atoms: O_4  and  C_13
REMARK    4  A    between atoms: N_8  and  C_15
REMARK    5  A    between atoms: C_11  and  C_16
REMARK    6  A    between atoms: C_15  and  C_17
REMARK    7  A    between atoms: C_18  and  C_19
REMARK                            x       y       z     vdW  Elec       q    Type
REMARK                         _______ _______ _______ _____ _____    ______ ____
ROOT
ATOM      5  O   UNL     1      -5.395 -11.736  17.054  0.00  0.00    -0.336 OA
ATOM      9  N   UNL     1      -5.628  -9.811  15.935  0.00  0.00    -0.193 NA
ATOM     10  N   UNL     1      -6.602 -11.176  17.490  0.00  0.00    -0.060 NA
ATOM     16  C   UNL     1      -4.886 -10.869  16.140  0.00  0.00    +0.245 A 
ATOM     18  C   UNL     1      -6.670 -10.043  16.785  0.00  0.00    +0.193 A 
ENDROOT
BRANCH  16  11
ATOM      8  N   UNL     1      -3.311 -10.533  14.242  0.00  0.00    -0.284 NA
ATOM     11  C   UNL     1      -3.565 -11.252  15.507  0.00  0.00    +0.149 C 
ATOM     12  C   UNL     1      -2.357 -10.915  16.401  0.00  0.00    +0.061 C 
ATOM     13  C   UNL     1      -1.459 -10.040  15.535  0.00  0.00    +0.130 C 
ATOM     14  C   UNL     1      -1.860 -10.409  14.120  0.00  0.00    +0.116 C 
BRANCH  13   4
ATOM      4  O   UNL     1      -0.095 -10.321  15.785  0.00  0.00    -0.390 OA
ATOM     29  H   UNL     1       0.409 -10.044  15.000  0.00  0.00    +0.210 HD
ENDBRANCH  13   4
BRANCH   8  15
ATOM     15  C   UNL     1      -3.905 -11.186  13.082  0.00  0.00    +0.127 C 
BRANCH  15  17
ATOM      1  S   UNL     1      -5.501  -9.303  11.799  0.00  0.00    -0.100 S 
ATOM     17  C   UNL     1      -4.069 -10.234  11.927  0.00  0.00    +0.004 A 
ATOM     20  C   UNL     1      -3.194  -9.980  10.894  0.00  0.00    +0.012 A 
ATOM     21  C   UNL     1      -3.705  -9.009   9.985  0.00  0.00    +0.008 A 
ATOM     22  C   UNL     1      -4.952  -8.558  10.359  0.00  0.00    +0.045 A 
ENDBRANCH  15  17
ENDBRANCH   8  15
ENDBRANCH  16  11
BRANCH  18  19
ATOM     19  C   UNL     1      -7.795  -9.112  16.919  0.00  0.00    +0.251 C 
BRANCH  19   2
ATOM      2  S   UNL     1      -9.233  -9.851  16.196  0.00  0.00    +0.004 S 
ATOM      6  O   UNL     1      -9.903 -10.613  17.234  0.00  0.00    -0.169 OA
ATOM      7  O   UNL     1      -8.848 -10.486  14.950  0.00  0.00    -0.169 OA
BRANCH   2  23
ATOM      3  F   UNL     1     -12.646  -5.246  14.815  0.00  0.00    -0.205 F 
ATOM     23  C   UNL     1     -10.256  -8.472  15.782  0.00  0.00    +0.089 A 
ATOM     24  C   UNL     1     -10.994  -8.482  14.598  0.00  0.00    +0.030 A 
ATOM     25  C   UNL     1     -10.326  -7.373  16.639  0.00  0.00    +0.030 A 
ATOM     26  C   UNL     1     -11.801  -7.392  14.272  0.00  0.00    +0.040 A 
ATOM     27  C   UNL     1     -11.133  -6.285  16.312  0.00  0.00    +0.040 A 
ATOM     28  C   UNL     1     -11.870  -6.293  15.128  0.00  0.00    +0.124 A 
ENDBRANCH   2  23
ENDBRANCH  19   2
ENDBRANCH  18  19
TORSDOF 7
ENDMDL
MODEL 2
REMARK VINA RESULT:      -6.7      2.429      2.869
REMARK  Name = 26743460
REMARK  7 active torsions:
REMARK  status: ('A' for Active; 'I' for Inactive)
REMARK    1  A    between atoms: S_2  and  C_19
REMARK    2  A    between atoms: S_2  and  C_23
REMARK    3  A    between atoms: O_4  and  C_13
REMARK    4  A    between atoms: N_8  and  C_15
REMARK    5  A    between atoms: C_11  and  C_16
REMARK    6  A    between atoms: C_15  and  C_17
REMARK    7  A    between atoms: C_18  and  C_19
REMARK                            x       y       z     vdW  Elec       q    Type
REMARK                         _______ _______ _______ _____ _____    ______ ____
ROOT
ATOM      5  O   UNL     1      -5.904 -10.589  14.748  0.00  0.00    -0.336 OA
ATOM      9  N   UNL     1      -5.298 -10.232  16.874  0.00  0.00    -0.193 NA
ATOM     10  N   UNL     1      -7.046 -10.111  15.403  0.00  0.00    -0.060 NA
ATOM     16  C   UNL     1      -4.921 -10.629  15.685  0.00  0.00    +0.245 A 
ATOM     18  C   UNL     1      -6.609  -9.924  16.652  0.00  0.00    +0.193 A 
ENDROOT
BRANCH  16  11
ATOM      8  N   UNL     1      -3.134 -10.482  13.959  0.00  0.00    -0.284 NA
ATOM     11  C   UNL     1      -3.565 -11.116  15.221  0.00  0.00    +0.149 C 
ATOM     12  C   UNL     1      -2.442 -10.796  16.225  0.00  0.00    +0.061 C 
ATOM     13  C   UNL     1      -1.406 -10.019  15.424  0.00  0.00    +0.130 C 
ATOM     14  C   UNL     1      -1.674 -10.443  13.992  0.00  0.00    +0.116 C 
BRANCH  13   4
ATOM      4  O   UNL     1      -0.096 -10.358  15.835  0.00  0.00    -0.390 OA
ATOM     29  H   UNL     1       0.056  -9.943  16.701  0.00  0.00    +0.210 HD
ENDBRANCH  13   4
BRANCH   8  15
ATOM     15  C   UNL     1      -3.637 -11.164  12.773  0.00  0.00    +0.127 C 
BRANCH  15  17
ATOM      1  S   UNL     1      -5.351  -9.375  11.507  0.00  0.00    -0.100 S 
ATOM     17  C   UNL     1      -3.860 -10.209  11.630  0.00  0.00    +0.004 A 
ATOM     20  C   UNL     1      -2.999  -9.882  10.606  0.00  0.00    +0.012 A 
ATOM     21  C   UNL     1      -3.571  -8.934   9.707  0.00  0.00    +0.008 A 
ATOM     22  C   UNL     1      -4.847  -8.574  10.080  0.00  0.00    +0.045 A 
ENDBRANCH  15  17
ENDBRANCH   8  15
ENDBRANCH  16  11
BRANCH  18  19
ATOM     19  C   UNL     1      -7.485  -9.419  17.714  0.00  0.00    +0.251 C 
BRANCH  19   2
ATOM      2  S   UNL     1      -8.129 -10.797  18.623  0.00  0.00    +0.004 S 
ATOM      6  O   UNL     1      -7.470 -10.815  19.916  0.00  0.00    -0.169 OA
ATOM      7  O   UNL     1      -8.100 -11.967  17.766  0.00  0.00    -0.169 OA
BRANCH   2  23
ATOM      3  F   UNL     1     -13.795  -9.407  19.472  0.00  0.00    -0.205 F 
ATOM     23  C   UNL     1      -9.827 -10.380  18.877  0.00  0.00    +0.089 A 
ATOM     24  C   UNL     1     -10.491 -10.831  20.018  0.00  0.00    +0.030 A 
ATOM     25  C   UNL     1     -10.502  -9.601  17.938  0.00  0.00    +0.030 A 
ATOM     26  C   UNL     1     -11.831 -10.502  20.218  0.00  0.00    +0.040 A 
ATOM     27  C   UNL     1     -11.841  -9.272  18.139  0.00  0.00    +0.040 A 
ATOM     28  C   UNL     1     -12.507  -9.723  19.279  0.00  0.00    +0.124 A 
ENDBRANCH   2  23
ENDBRANCH  19   2
ENDBRANCH  18  19
TORSDOF 7
ENDMDL
MODEL 3
REMARK VINA RESULT:      -6.5     23.494     26.286
REMARK  Name = 26743460
REMARK  7 active torsions:
REMARK  status: ('A' for Active; 'I' for Inactive)
REMARK    1  A    between atoms: S_2  and  C_19
REMARK    2  A    between atoms: S_2  and  C_23
REMARK    3  A    between atoms: O_4  and  C_13
REMARK    4  A    between atoms: N_8  and  C_15
REMARK    5  A    between atoms: C_11  and  C_16
REMARK    6  A    between atoms: C_15  and  C_17
REMARK    7  A    between atoms: C_18  and  C_19
REMARK                            x       y       z     vdW  Elec       q    Type
REMARK                         _______ _______ _______ _____ _____    ______ ____
ROOT
ATOM      5  O   UNL     1      12.041   5.839   1.499  0.00  0.00    -0.336 OA
ATOM      9  N   UNL     1      11.494   4.126   2.833  0.00  0.00    -0.193 NA
ATOM     10  N   UNL     1      11.124   6.346   2.428  0.00  0.00    -0.060 NA
ATOM     16  C   UNL     1      12.203   4.526   1.808  0.00  0.00    +0.245 A 
ATOM     18  C   UNL     1      10.849   5.277   3.180  0.00  0.00    +0.193 A 
ENDROOT
BRANCH  16  11
ATOM      8  N   UNL     1      13.052   4.092  -0.491  0.00  0.00    -0.284 NA
ATOM     11  C   UNL     1      13.163   3.740   0.939  0.00  0.00    +0.149 C 
ATOM     12  C   UNL     1      14.638   4.000   1.296  0.00  0.00    +0.061 C 
ATOM     13  C   UNL     1      15.285   4.451  -0.007  0.00  0.00    +0.130 C 
ATOM     14  C   UNL     1      14.375   3.874  -1.074  0.00  0.00    +0.116 C 
BRANCH  13   4
ATOM      4  O   UNL     1      16.603   3.947  -0.113  0.00  0.00    -0.390 OA
ATOM     29  H   UNL     1      17.103   4.554  -0.685  0.00  0.00    +0.210 HD
ENDBRANCH  13   4
BRANCH   8  15
ATOM     15  C   UNL     1      12.016   3.343  -1.189  0.00  0.00    +0.127 C 
BRANCH  15  17
ATOM      1  S   UNL     1      10.829   4.407  -3.469  0.00  0.00    -0.100 S 
ATOM     17  C   UNL     1      10.963   4.250  -1.769  0.00  0.00    +0.004 A 
ATOM     20  C   UNL     1      10.033   5.019  -1.104  0.00  0.00    +0.012 A 
ATOM     21  C   UNL     1       9.200   5.748  -2.002  0.00  0.00    +0.008 A 
ATOM     22  C   UNL     1       9.526   5.507  -3.319  0.00  0.00    +0.045 A 
ENDBRANCH  15  17
ENDBRANCH   8  15
ENDBRANCH  16  11
BRANCH  18  19
ATOM     19  C   UNL     1       9.912   5.340   4.307  0.00  0.00    +0.251 C 
BRANCH  19   2
ATOM      2  S   UNL     1      10.537   6.491   5.500  0.00  0.00    +0.004 S 
ATOM      6  O   UNL     1       9.869   7.760   5.275  0.00  0.00    -0.169 OA
ATOM      7  O   UNL     1      11.985   6.411   5.503  0.00  0.00    -0.169 OA
BRANCH   2  23
ATOM      3  F   UNL     1       8.669   4.331  10.659  0.00  0.00    -0.205 F 
ATOM     23  C   UNL     1       9.977   5.844   7.046  0.00  0.00    +0.089 A 
ATOM     24  C   UNL     1       9.429   6.699   8.001  0.00  0.00    +0.030 A 
ATOM     25  C   UNL     1      10.083   4.478   7.309  0.00  0.00    +0.030 A 
ATOM     26  C   UNL     1       8.987   6.188   9.222  0.00  0.00    +0.040 A 
ATOM     27  C   UNL     1       9.641   3.968   8.529  0.00  0.00    +0.040 A 
ATOM     28  C   UNL     1       9.093   4.823   9.486  0.00  0.00    +0.124 A 
ENDBRANCH   2  23
ENDBRANCH  19   2
ENDBRANCH  18  19
TORSDOF 7
ENDMDL
MODEL 4
REMARK VINA RESULT:      -6.3     26.876     29.979
REMARK  Name = 26743460
REMARK  7 active torsions:
REMARK  status: ('A' for Active; 'I' for Inactive)
REMARK    1  A    between atoms: S_2  and  C_19
REMARK    2  A    between atoms: S_2  and  C_23
REMARK    3  A    between atoms: O_4  and  C_13
REMARK    4  A    between atoms: N_8  and  C_15
REMARK    5  A    between atoms: C_11  and  C_16
REMARK    6  A    between atoms: C_15  and  C_17
REMARK    7  A    between atoms: C_18  and  C_19
REMARK                            x       y       z     vdW  Elec       q    Type
REMARK                         _______ _______ _______ _____ _____    ______ ____
ROOT
ATOM      5  O   UNL     1      12.145   8.477  16.166  0.00  0.00    -0.336 OA
ATOM      9  N   UNL     1      13.322  10.085  17.188  0.00  0.00    -0.193 NA
ATOM     10  N   UNL     1      12.532   9.373  15.162  0.00  0.00    -0.060 NA
ATOM     16  C   UNL     1      12.650   8.970  17.327  0.00  0.00    +0.245 A 
ATOM     18  C   UNL     1      13.222  10.293  15.842  0.00  0.00    +0.193 A 
ENDROOT
BRANCH  16  11
ATOM      8  N   UNL     1      13.368   8.406  19.643  0.00  0.00    -0.284 NA
ATOM     11  C   UNL     1      12.368   8.170  18.581  0.00  0.00    +0.149 C 
ATOM     12  C   UNL     1      11.017   8.530  19.225  0.00  0.00    +0.061 C 
ATOM     13  C   UNL     1      11.354   8.913  20.661  0.00  0.00    +0.130 C 
ATOM     14  C   UNL     1      12.674   8.211  20.915  0.00  0.00    +0.116 C 
BRANCH  13   4
ATOM      4  O   UNL     1      10.345   8.470  21.548  0.00  0.00    -0.390 OA
ATOM     29  H   UNL     1       9.814   7.804  21.078  0.00  0.00    +0.210 HD
ENDBRANCH  13   4
BRANCH   8  15
ATOM     15  C   UNL     1      14.544   7.555  19.524  0.00  0.00    +0.127 C 
BRANCH  15  17
ATOM      1  S   UNL     1      17.018   7.193  20.744  0.00  0.00    -0.100 S 
ATOM     17  C   UNL     1      15.760   8.189  20.144  0.00  0.00    +0.004 A 
ATOM     20  C   UNL     1      16.037   9.528  20.314  0.00  0.00    +0.012 A 
ATOM     21  C   UNL     1      17.297   9.739  20.945  0.00  0.00    +0.008 A 
ATOM     22  C   UNL     1      17.935   8.553  21.233  0.00  0.00    +0.045 A 
ENDBRANCH  15  17
ENDBRANCH   8  15
ENDBRANCH  16  11
BRANCH  18  19
ATOM     19  C   UNL     1      13.834  11.451  15.182  0.00  0.00    +0.251 C 
BRANCH  19   2
ATOM      2  S   UNL     1      15.273  10.909  14.303  0.00  0.00    +0.004 S 
ATOM      6  O   UNL     1      15.183  11.434  12.952  0.00  0.00    -0.169 OA
ATOM      7  O   UNL     1      15.443   9.487  14.529  0.00  0.00    -0.169 OA
BRANCH   2  23
ATOM      3  F   UNL     1      19.718  13.650  17.039  0.00  0.00    -0.205 F 
ATOM     23  C   UNL     1      16.605  11.730  15.123  0.00  0.00    +0.089 A 
ATOM     24  C   UNL     1      16.392  12.337  16.360  0.00  0.00    +0.030 A 
ATOM     25  C   UNL     1      17.868  11.770  14.533  0.00  0.00    +0.030 A 
ATOM     26  C   UNL     1      17.444  12.986  17.007  0.00  0.00    +0.040 A 
ATOM     27  C   UNL     1      18.919  12.418  15.180  0.00  0.00    +0.040 A 
ATOM     28  C   UNL     1      18.707  13.027  16.417  0.00  0.00    +0.124 A 
ENDBRANCH   2  23
ENDBRANCH  19   2
ENDBRANCH  18  19
TORSDOF 7
ENDMDL
MODEL 5
REMARK VINA RESULT:      -6.3     26.804     29.835
REMARK  Name = 26743460
REMARK  7 active torsions:
REMARK  status: ('A' for Active; 'I' for Inactive)
REMARK    1  A    between atoms: S_2  and  C_19
REMARK    2  A    between atoms: S_2  and  C_23
REMARK    3  A    between atoms: O_4  and  C_13
REMARK    4  A    between atoms: N_8  and  C_15
REMARK    5  A    between atoms: C_11  and  C_16
REMARK    6  A    between atoms: C_15  and  C_17
REMARK    7  A    between atoms: C_18  and  C_19
REMARK                            x       y       z     vdW  Elec       q    Type
REMARK                         _______ _______ _______ _____ _____    ______ ____
ROOT
ATOM      5  O   UNL     1      12.868  10.658  18.790  0.00  0.00    -0.336 OA
ATOM      9  N   UNL     1      14.275   9.625  17.387  0.00  0.00    -0.193 NA
ATOM     10  N   UNL     1      13.577  11.671  18.133  0.00  0.00    -0.060 NA
ATOM     16  C   UNL     1      13.340   9.485  18.292  0.00  0.00    +0.245 A 
ATOM     18  C   UNL     1      14.386  10.983  17.323  0.00  0.00    +0.193 A 
ENDROOT
BRANCH  16  11
ATOM      8  N   UNL     1      13.497   7.655  19.972  0.00  0.00    -0.284 NA
ATOM     11  C   UNL     1      12.723   8.219  18.848  0.00  0.00    +0.149 C 
ATOM     12  C   UNL     1      11.310   8.445  19.417  0.00  0.00    +0.061 C 
ATOM     13  C   UNL     1      11.377   7.936  20.851  0.00  0.00    +0.130 C 
ATOM     14  C   UNL     1      12.538   6.960  20.828  0.00  0.00    +0.116 C 
BRANCH  13   4
ATOM      4  O   UNL     1      10.166   7.303  21.215  0.00  0.00    -0.390 OA
ATOM     29  H   UNL     1      10.138   6.442  20.765  0.00  0.00    +0.210 HD
ENDBRANCH  13   4
BRANCH   8  15
ATOM     15  C   UNL     1      14.580   6.781  19.542  0.00  0.00    +0.127 C 
BRANCH  15  17
ATOM      1  S   UNL     1      16.108   8.762  20.758  0.00  0.00    -0.100 S 
ATOM     17  C   UNL     1      15.895   7.170  20.162  0.00  0.00    +0.004 A 
ATOM     20  C   UNL     1      17.023   6.399  20.337  0.00  0.00    +0.012 A 
ATOM     21  C   UNL     1      18.076   7.124  20.967  0.00  0.00    +0.008 A 
ATOM     22  C   UNL     1      17.712   8.422  21.250  0.00  0.00    +0.045 A 
ENDBRANCH  15  17
ENDBRANCH   8  15
ENDBRANCH  16  11
BRANCH  18  19
ATOM     19  C   UNL     1      15.333  11.649  16.422  0.00  0.00    +0.251 C 
BRANCH  19   2
ATOM      2  S   UNL     1      14.502  12.025  14.903  0.00  0.00    +0.004 S 
ATOM      6  O   UNL     1      13.926  13.350  15.036  0.00  0.00    -0.169 OA
ATOM      7  O   UNL     1      13.670  10.893  14.540  0.00  0.00    -0.169 OA
BRANCH   2  23
ATOM      3  F   UNL     1      18.861  12.313  10.943  0.00  0.00    -0.205 F 
ATOM     23  C   UNL     1      15.808  12.112  13.716  0.00  0.00    +0.089 A 
ATOM     24  C   UNL     1      15.511  12.135  12.354  0.00  0.00    +0.030 A 
ATOM     25  C   UNL     1      17.136  12.157  14.142  0.00  0.00    +0.030 A 
ATOM     26  C   UNL     1      16.543  12.203  11.417  0.00  0.00    +0.040 A 
ATOM     27  C   UNL     1      18.166  12.226  13.206  0.00  0.00    +0.040 A 
ATOM     28  C   UNL     1      17.870  12.248  11.843  0.00  0.00    +0.124 A 
ENDBRANCH   2  23
ENDBRANCH  19   2
ENDBRANCH  18  19
TORSDOF 7
ENDMDL
MODEL 6
REMARK VINA RESULT:      -6.2     26.621     29.582
REMARK  Name = 26743460
REMARK  7 active torsions:
REMARK  status: ('A' for Active; 'I' for Inactive)
REMARK    1  A    between atoms: S_2  and  C_19
REMARK    2  A    between atoms: S_2  and  C_23
REMARK    3  A    between atoms: O_4  and  C_13
REMARK    4  A    between atoms: N_8  and  C_15
REMARK    5  A    between atoms: C_11  and  C_16
REMARK    6  A    between atoms: C_15  and  C_17
REMARK    7  A    between atoms: C_18  and  C_19
REMARK                            x       y       z     vdW  Elec       q    Type
REMARK                         _______ _______ _______ _____ _____    ______ ____
ROOT
ATOM      5  O   UNL     1      12.907  10.219  14.967  0.00  0.00    -0.336 OA
ATOM      9  N   UNL     1      14.302   9.498  16.563  0.00  0.00    -0.193 NA
ATOM     10  N   UNL     1      12.338   9.047  15.481  0.00  0.00    -0.060 NA
ATOM     16  C   UNL     1      14.060  10.412  15.659  0.00  0.00    +0.245 A 
ATOM     18  C   UNL     1      13.219   8.681  16.417  0.00  0.00    +0.193 A 
ENDROOT
BRANCH  16  11
ATOM      8  N   UNL     1      15.737  12.099  16.393  0.00  0.00    -0.284 NA
ATOM     11  C   UNL     1      14.873  11.635  15.289  0.00  0.00    +0.149 C 
ATOM     12  C   UNL     1      15.837  11.376  14.116  0.00  0.00    +0.061 C 
ATOM     13  C   UNL     1      17.212  11.765  14.643  0.00  0.00    +0.130 C 
ATOM     14  C   UNL     1      16.900  12.730  15.771  0.00  0.00    +0.116 C 
BRANCH  13   4
ATOM      4  O   UNL     1      17.983  12.378  13.628  0.00  0.00    -0.390 OA
ATOM     29  H   UNL     1      18.119  13.306  13.882  0.00  0.00    +0.210 HD
ENDBRANCH  13   4
BRANCH   8  15
ATOM     15  C   UNL     1      15.056  12.996  17.317  0.00  0.00    +0.127 C 
BRANCH  15  17
ATOM      1  S   UNL     1      13.729  12.932  19.761  0.00  0.00    -0.100 S 
ATOM     17  C   UNL     1      14.972  12.413  18.703  0.00  0.00    +0.004 A 
ATOM     20  C   UNL     1      15.788  11.471  19.288  0.00  0.00    +0.012 A 
ATOM     21  C   UNL     1      15.388  11.170  20.623  0.00  0.00    +0.008 A 
ATOM     22  C   UNL     1      14.281  11.895  21.007  0.00  0.00    +0.045 A 
ENDBRANCH  15  17
ENDBRANCH   8  15
ENDBRANCH  16  11
BRANCH  18  19
ATOM     19  C   UNL     1      13.029   7.478  17.235  0.00  0.00    +0.251 C 
BRANCH  19   2
ATOM      2  S   UNL     1      12.771   7.970  18.917  0.00  0.00    +0.004 S 
ATOM      6  O   UNL     1      11.692   7.158  19.449  0.00  0.00    -0.169 OA
ATOM      7  O   UNL     1      12.695   9.418  18.967  0.00  0.00    -0.169 OA
BRANCH   2  23
ATOM      3  F   UNL     1      17.761   6.396  21.634  0.00  0.00    -0.205 F 
ATOM     23  C   UNL     1      14.265   7.498  19.731  0.00  0.00    +0.089 A 
ATOM     24  C   UNL     1      14.374   7.625  21.116  0.00  0.00    +0.030 A 
ATOM     25  C   UNL     1      15.336   6.999  18.989  0.00  0.00    +0.030 A 
ATOM     26  C   UNL     1      15.555   7.253  21.758  0.00  0.00    +0.040 A 
ATOM     27  C   UNL     1      16.515   6.627  19.632  0.00  0.00    +0.040 A 
ATOM     28  C   UNL     1      16.626   6.754  21.017  0.00  0.00    +0.124 A 
ENDBRANCH   2  23
ENDBRANCH  19   2
ENDBRANCH  18  19
TORSDOF 7
ENDMDL
MODEL 7
REMARK VINA RESULT:      -6.2      3.082      7.500
REMARK  Name = 26743460
REMARK  7 active torsions:
REMARK  status: ('A' for Active; 'I' for Inactive)
REMARK    1  A    between atoms: S_2  and  C_19
REMARK    2  A    between atoms: S_2  and  C_23
REMARK    3  A    between atoms: O_4  and  C_13
REMARK    4  A    between atoms: N_8  and  C_15
REMARK    5  A    between atoms: C_11  and  C_16
REMARK    6  A    between atoms: C_15  and  C_17
REMARK    7  A    between atoms: C_18  and  C_19
REMARK                            x       y       z     vdW  Elec       q    Type
REMARK                         _______ _______ _______ _____ _____    ______ ____
ROOT
ATOM      5  O   UNL     1      -5.432 -10.285  15.918  0.00  0.00    -0.336 OA
ATOM      9  N   UNL     1      -3.820 -11.455  16.940  0.00  0.00    -0.193 NA
ATOM     10  N   UNL     1      -4.365 -10.349  15.014  0.00  0.00    -0.060 NA
ATOM     16  C   UNL     1      -5.028 -10.961  17.026  0.00  0.00    +0.245 A 
ATOM     18  C   UNL     1      -3.453 -11.055  15.688  0.00  0.00    +0.193 A 
ENDROOT
BRANCH  16  11
ATOM      8  N   UNL     1      -7.394 -10.697  17.752  0.00  0.00    -0.284 NA
ATOM     11  C   UNL     1      -6.019 -11.040  18.168  0.00  0.00    +0.149 C 
ATOM     12  C   UNL     1      -6.129 -12.455  18.764  0.00  0.00    +0.061 C 
ATOM     13  C   UNL     1      -7.609 -12.805  18.681  0.00  0.00    +0.130 C 
ATOM     14  C   UNL     1      -8.291 -11.451  18.627  0.00  0.00    +0.116 C 
BRANCH  13   4
ATOM      4  O   UNL     1      -8.013 -13.551  19.812  0.00  0.00    -0.390 OA
ATOM     29  H   UNL     1      -8.788 -13.106  20.196  0.00  0.00    +0.210 HD
ENDBRANCH  13   4
BRANCH   8  15
ATOM     15  C   UNL     1      -7.666  -9.266  17.791  0.00  0.00    +0.127 C 
BRANCH  15  17
ATOM      1  S   UNL     1      -8.970  -9.555  15.351  0.00  0.00    -0.100 S 
ATOM     17  C   UNL     1      -8.841  -8.895  16.926  0.00  0.00    +0.004 A 
ATOM     20  C   UNL     1      -9.893  -8.057  17.222  0.00  0.00    +0.012 A 
ATOM     21  C   UNL     1     -10.817  -7.954  16.142  0.00  0.00    +0.008 A 
ATOM     22  C   UNL     1     -10.435  -8.718  15.061  0.00  0.00    +0.045 A 
ENDBRANCH  15  17
ENDBRANCH   8  15
ENDBRANCH  16  11
BRANCH  18  19
ATOM     19  C   UNL     1      -2.141 -11.377  15.116  0.00  0.00    +0.251 C 
BRANCH  19   2
ATOM      2  S   UNL     1      -2.374 -12.483  13.751  0.00  0.00    +0.004 S 
ATOM      6  O   UNL     1      -3.578 -13.250  14.010  0.00  0.00    -0.169 OA
ATOM      7  O   UNL     1      -1.117 -13.154  13.482  0.00  0.00    -0.169 OA
BRANCH   2  23
ATOM      3  F   UNL     1      -3.435  -8.897   9.192  0.00  0.00    -0.205 F 
ATOM     23  C   UNL     1      -2.692 -11.408  12.385  0.00  0.00    +0.089 A 
ATOM     24  C   UNL     1      -3.819 -11.610  11.588  0.00  0.00    +0.030 A 
ATOM     25  C   UNL     1      -1.817 -10.359  12.105  0.00  0.00    +0.030 A 
ATOM     26  C   UNL     1      -4.069 -10.761  10.510  0.00  0.00    +0.040 A 
ATOM     27  C   UNL     1      -2.068  -9.511  11.028  0.00  0.00    +0.040 A 
ATOM     28  C   UNL     1      -3.194  -9.712  10.229  0.00  0.00    +0.124 A 
ENDBRANCH   2  23
ENDBRANCH  19   2
ENDBRANCH  18  19
TORSDOF 7
ENDMDL
MODEL 8
REMARK VINA RESULT:      -6.1      3.545      6.939
REMARK  Name = 26743460
REMARK  7 active torsions:
REMARK  status: ('A' for Active; 'I' for Inactive)
REMARK    1  A    between atoms: S_2  and  C_19
REMARK    2  A    between atoms: S_2  and  C_23
REMARK    3  A    between atoms: O_4  and  C_13
REMARK    4  A    between atoms: N_8  and  C_15
REMARK    5  A    between atoms: C_11  and  C_16
REMARK    6  A    between atoms: C_15  and  C_17
REMARK    7  A    between atoms: C_18  and  C_19
REMARK                            x       y       z     vdW  Elec       q    Type
REMARK                         _______ _______ _______ _____ _____    ______ ____
ROOT
ATOM      5  O   UNL     1      -4.482 -11.081  18.006  0.00  0.00    -0.336 OA
ATOM      9  N   UNL     1      -4.601 -10.241  15.934  0.00  0.00    -0.193 NA
ATOM     10  N   UNL     1      -3.269 -11.403  17.386  0.00  0.00    -0.060 NA
ATOM     16  C   UNL     1      -5.208 -10.397  17.083  0.00  0.00    +0.245 A 
ATOM     18  C   UNL     1      -3.414 -10.874  16.168  0.00  0.00    +0.193 A 
ENDROOT
BRANCH  16  11
ATOM      8  N   UNL     1      -7.669 -10.589  16.766  0.00  0.00    -0.284 NA
ATOM     11  C   UNL     1      -6.581  -9.927  17.515  0.00  0.00    +0.149 C 
ATOM     12  C   UNL     1      -6.877 -10.234  18.994  0.00  0.00    +0.061 C 
ATOM     13  C   UNL     1      -8.174 -11.033  18.979  0.00  0.00    +0.130 C 
ATOM     14  C   UNL     1      -8.821 -10.636  17.666  0.00  0.00    +0.116 C 
BRANCH  13   4
ATOM      4  O   UNL     1      -8.985 -10.693  20.087  0.00  0.00    -0.390 OA
ATOM     29  H   UNL     1      -9.054 -11.482  20.652  0.00  0.00    +0.210 HD
ENDBRANCH  13   4
BRANCH   8  15
ATOM     15  C   UNL     1      -7.985  -9.927  15.507  0.00  0.00    +0.127 C 
BRANCH  15  17
ATOM      1  S   UNL     1      -7.409 -12.442  14.466  0.00  0.00    -0.100 S 
ATOM     17  C   UNL     1      -7.541 -10.741  14.320  0.00  0.00    +0.004 A 
ATOM     20  C   UNL     1      -7.204 -10.303  13.058  0.00  0.00    +0.012 A 
ATOM     21  C   UNL     1      -6.832 -11.378  12.200  0.00  0.00    +0.008 A 
ATOM     22  C   UNL     1      -6.900 -12.596  12.838  0.00  0.00    +0.045 A 
ENDBRANCH  15  17
ENDBRANCH   8  15
ENDBRANCH  16  11
BRANCH  18  19
ATOM     19  C   UNL     1      -2.364 -10.969  15.149  0.00  0.00    +0.251 C 
BRANCH  19   2
ATOM      2  S   UNL     1      -2.643 -12.426  14.180  0.00  0.00    +0.004 S 
ATOM      6  O   UNL     1      -3.801 -13.104  14.734  0.00  0.00    -0.169 OA
ATOM      7  O   UNL     1      -1.382 -13.127  14.029  0.00  0.00    -0.169 OA
BRANCH   2  23
ATOM      3  F   UNL     1      -4.115 -10.333   8.869  0.00  0.00    -0.205 F 
ATOM     23  C   UNL     1      -3.083 -11.799  12.589  0.00  0.00    +0.089 A 
ATOM     24  C   UNL     1      -3.178 -10.422  12.384  0.00  0.00    +0.030 A 
ATOM     25  C   UNL     1      -3.336 -12.680  11.537  0.00  0.00    +0.030 A 
ATOM     26  C   UNL     1      -3.527  -9.927  11.128  0.00  0.00    +0.040 A 
ATOM     27  C   UNL     1      -3.683 -12.185  10.281  0.00  0.00    +0.040 A 
ATOM     28  C   UNL     1      -3.780 -10.808  10.077  0.00  0.00    +0.124 A 
ENDBRANCH   2  23
ENDBRANCH  19   2
ENDBRANCH  18  19
TORSDOF 7
ENDMDL
MODEL 9
REMARK VINA RESULT:      -6.0     24.804     27.212
REMARK  Name = 26743460
REMARK  7 active torsions:
REMARK  status: ('A' for Active; 'I' for Inactive)
REMARK    1  A    between atoms: S_2  and  C_19
REMARK    2  A    between atoms: S_2  and  C_23
REMARK    3  A    between atoms: O_4  and  C_13
REMARK    4  A    between atoms: N_8  and  C_15
REMARK    5  A    between atoms: C_11  and  C_16
REMARK    6  A    between atoms: C_15  and  C_17
REMARK    7  A    between atoms: C_18  and  C_19
REMARK                            x       y       z     vdW  Elec       q    Type
REMARK                         _______ _______ _______ _____ _____    ______ ____
ROOT
ATOM      5  O   UNL     1      11.622   7.019  -1.026  0.00  0.00    -0.336 OA
ATOM      9  N   UNL     1      10.170   5.584  -0.104  0.00  0.00    -0.193 NA
ATOM     10  N   UNL     1      11.307   7.539   0.236  0.00  0.00    -0.060 NA
ATOM     16  C   UNL     1      10.910   5.868  -1.146  0.00  0.00    +0.245 A 
ATOM     18  C   UNL     1      10.447   6.638   0.718  0.00  0.00    +0.193 A 
ENDROOT
BRANCH  16  11
ATOM      8  N   UNL     1      11.629   3.746  -2.231  0.00  0.00    -0.284 NA
ATOM     11  C   UNL     1      11.079   5.100  -2.441  0.00  0.00    +0.149 C 
ATOM     12  C   UNL     1       9.746   4.875  -3.177  0.00  0.00    +0.061 C 
ATOM     13  C   UNL     1       9.656   3.367  -3.377  0.00  0.00    +0.130 C 
ATOM     14  C   UNL     1      11.101   2.913  -3.311  0.00  0.00    +0.116 C 
BRANCH  13   4
ATOM      4  O   UNL     1       9.066   3.061  -4.625  0.00  0.00    -0.390 OA
ATOM     29  H   UNL     1       9.762   2.692  -5.195  0.00  0.00    +0.210 HD
ENDBRANCH  13   4
BRANCH   8  15
ATOM     15  C   UNL     1      13.084   3.718  -2.179  0.00  0.00    +0.127 C 
BRANCH  15  17
ATOM      1  S   UNL     1      15.177   4.237  -0.421  0.00  0.00    -0.100 S 
ATOM     17  C   UNL     1      13.594   3.679  -0.763  0.00  0.00    +0.004 A 
ATOM     20  C   UNL     1      12.946   3.238   0.370  0.00  0.00    +0.012 A 
ATOM     21  C   UNL     1      13.760   3.359   1.534  0.00  0.00    +0.008 A 
ATOM     22  C   UNL     1      14.998   3.888   1.246  0.00  0.00    +0.045 A 
ENDBRANCH  15  17
ENDBRANCH   8  15
ENDBRANCH  16  11
BRANCH  18  19
ATOM     19  C   UNL     1       9.841   6.775   2.046  0.00  0.00    +0.251 C 
BRANCH  19   2
ATOM      2  S   UNL     1      10.760   5.786   3.194  0.00  0.00    +0.004 S 
ATOM      6  O   UNL     1      12.142   6.225   3.141  0.00  0.00    -0.169 OA
ATOM      7  O   UNL     1      10.422   4.392   2.975  0.00  0.00    -0.169 OA
BRANCH   2  23
ATOM      3  F   UNL     1       8.556   7.303   8.448  0.00  0.00    -0.205 F 
ATOM     23  C   UNL     1      10.100   6.241   4.768  0.00  0.00    +0.089 A 
ATOM     24  C   UNL     1      10.925   6.255   5.892  0.00  0.00    +0.030 A 
ATOM     25  C   UNL     1       8.753   6.586   4.886  0.00  0.00    +0.030 A 
ATOM     26  C   UNL     1      10.404   6.614   7.135  0.00  0.00    +0.040 A 
ATOM     27  C   UNL     1       8.233   6.945   6.128  0.00  0.00    +0.040 A 
ATOM     28  C   UNL     1       9.058   6.958   7.253  0.00  0.00    +0.124 A 
ENDBRANCH   2  23
ENDBRANCH  19   2
ENDBRANCH  18  19
TORSDOF 7
ENDMDL
MODEL 10
REMARK VINA RESULT:      -6.0      2.313      2.681
REMARK  Name = 26743460
REMARK  7 active torsions:
REMARK  status: ('A' for Active; 'I' for Inactive)
REMARK    1  A    between atoms: S_2  and  C_19
REMARK    2  A    between atoms: S_2  and  C_23
REMARK    3  A    between atoms: O_4  and  C_13
REMARK    4  A    between atoms: N_8  and  C_15
REMARK    5  A    between atoms: C_11  and  C_16
REMARK    6  A    between atoms: C_15  and  C_17
REMARK    7  A    between atoms: C_18  and  C_19
REMARK                            x       y       z     vdW  Elec       q    Type
REMARK                         _______ _______ _______ _____ _____    ______ ____
ROOT
ATOM      5  O   UNL     1      -5.568 -12.004  16.685  0.00  0.00    -0.336 OA
ATOM      9  N   UNL     1      -5.480  -9.820  16.195  0.00  0.00    -0.193 NA
ATOM     10  N   UNL     1      -6.747 -11.444  17.191  0.00  0.00    -0.060 NA
ATOM     16  C   UNL     1      -4.880 -10.980  16.115  0.00  0.00    +0.245 A 
ATOM     18  C   UNL     1      -6.623 -10.155  16.863  0.00  0.00    +0.193 A 
ENDROOT
BRANCH  16  11
ATOM      8  N   UNL     1      -3.304 -10.593  14.228  0.00  0.00    -0.284 NA
ATOM     11  C   UNL     1      -3.548 -11.330  15.484  0.00  0.00    +0.149 C 
ATOM     12  C   UNL     1      -2.351 -10.979  16.386  0.00  0.00    +0.061 C 
ATOM     13  C   UNL     1      -1.467 -10.077  15.534  0.00  0.00    +0.130 C 
ATOM     14  C   UNL     1      -1.855 -10.438  14.113  0.00  0.00    +0.116 C 
BRANCH  13   4
ATOM      4  O   UNL     1      -0.099 -10.333  15.787  0.00  0.00    -0.390 OA
ATOM     29  H   UNL     1       0.035 -10.288  16.749  0.00  0.00    +0.210 HD
ENDBRANCH  13   4
BRANCH   8  15
ATOM     15  C   UNL     1      -3.879 -11.244  13.058  0.00  0.00    +0.127 C 
BRANCH  15  17
ATOM      1  S   UNL     1      -5.403  -9.350  11.706  0.00  0.00    -0.100 S 
ATOM     17  C   UNL     1      -3.991 -10.301  11.890  0.00  0.00    +0.004 A 
ATOM     20  C   UNL     1      -3.078 -10.070  10.884  0.00  0.00    +0.012 A 
ATOM     21  C   UNL     1      -3.545  -9.100   9.950  0.00  0.00    +0.008 A 
ATOM     22  C   UNL     1      -4.796  -8.626  10.278  0.00  0.00    +0.045 A 
ENDBRANCH  15  17
ENDBRANCH   8  15
ENDBRANCH  16  11
BRANCH  18  19
ATOM     19  C   UNL     1      -7.650  -9.164  17.200  0.00  0.00    +0.251 C 
BRANCH  19   2
ATOM      2  S   UNL     1      -9.027  -9.380  16.107  0.00  0.00    +0.004 S 
ATOM      6  O   UNL     1      -8.632 -10.337  15.090  0.00  0.00    -0.169 OA
ATOM      7  O   UNL     1      -9.527  -8.071  15.730  0.00  0.00    -0.169 OA
BRANCH   2  23
ATOM      3  F   UNL     1     -13.143 -11.900  19.493  0.00  0.00    -0.205 F 
ATOM     23  C   UNL     1     -10.260 -10.135  17.122  0.00  0.00    +0.089 A 
ATOM     24  C   UNL     1     -10.437 -11.518  17.090  0.00  0.00    +0.030 A 
ATOM     25  C   UNL     1     -11.056  -9.348  17.954  0.00  0.00    +0.030 A 
ATOM     26  C   UNL     1     -11.411 -12.114  17.891  0.00  0.00    +0.040 A 
ATOM     27  C   UNL     1     -12.028  -9.944  18.755  0.00  0.00    +0.040 A 
ATOM     28  C   UNL     1     -12.207 -11.328  18.723  0.00  0.00    +0.124 A 
ENDBRANCH   2  23
ENDBRANCH  19   2
ENDBRANCH  18  19
TORSDOF 7
ENDMDL
