REMARK  Name = 38027153
REMARK  14 active torsions:
REMARK  status: ('A' for Active; 'I' for Inactive)
REMARK    1  A    between atoms: O_3  and  C_27
REMARK    2  A    between atoms: N_4  and  C_14
REMARK    3  A    between atoms: N_5  and  C_21
REMARK    4  A    between atoms: N_5  and  C_22
REMARK    5  A    between atoms: N_6  and  C_24
REMARK    6  A    between atoms: C_7  and  C_11
REMARK    7  A    between atoms: C_8  and  C_14
REMARK    8  A    between atoms: C_10  and  C_15
REMARK    9  A    between atoms: C_11  and  C_16
REMARK   10  A    between atoms: C_11  and  C_17
REMARK   11  A    between atoms: C_12  and  C_18
REMARK   12  A    between atoms: C_15  and  C_19
REMARK   13  A    between atoms: C_21  and  C_23
REMARK   14  A    between atoms: C_24  and  C_27
REMARK                            x       y       z     vdW  Elec       q    Type
REMARK                         _______ _______ _______ _____ _____    ______ ____
ROOT
ATOM      7  C   UNL     1       1.977   1.064  -1.131  0.00  0.00    +0.000 C 
ATOM      8  C   UNL     1       3.415   1.237  -0.582  0.00  0.00    +0.032 C 
ATOM      9  C   UNL     1       1.084   2.228  -0.673  0.00  0.00    +0.012 C 
ATOM     10  C   UNL     1       1.011   2.337   0.862  0.00  0.00    +0.023 C 
ATOM     12  C   UNL     1       2.382   2.245   1.499  0.00  0.00    -0.073 C 
ATOM     13  C   UNL     1       3.448   1.764   0.834  0.00  0.00    -0.022 C 
ATOM     18  C   UNL     1       2.512   2.763   2.905  0.00  0.00    +0.039 C 
ENDROOT
BRANCH   7  11
ATOM     11  C   UNL     1       1.959   0.967  -2.659  0.00  0.00    -0.013 C 
ATOM     16  C   UNL     1       0.713   0.224  -3.131  0.00  0.00    +0.007 C 
ATOM     17  C   UNL     1       2.028   2.358  -3.281  0.00  0.00    +0.007 C 
ENDBRANCH   7  11
BRANCH   8  14
ATOM     14  C   UNL     1       4.197  -0.079  -0.655  0.00  0.00    +0.113 C 
BRANCH  14   4
ATOM      2  O   UNL     1       3.120  -2.651  -1.396  0.00  0.00    -0.253 OA
ATOM      4  N   UNL     1       3.628  -1.057   0.217  0.00  0.00    -0.299 N 
ATOM      6  N   UNL     1       2.629  -3.049   0.837  0.00  0.00    -0.297 N 
ATOM     20  C   UNL     1       3.124  -2.289  -0.220  0.00  0.00    +0.300 C 
ATOM     31  H   UNL     1       3.647  -0.884   1.218  0.00  0.00    +0.150 HD
ATOM     32  H   UNL     1       2.660  -2.660   1.774  0.00  0.00    +0.150 HD
BRANCH   6  24
ATOM     24  C   UNL     1       2.053  -4.360   0.655  0.00  0.00    +0.133 C 
BRANCH  24  27
ATOM     27  C   UNL     1       0.557  -4.283   0.409  0.00  0.00    +0.174 C 
BRANCH  27   3
ATOM      3  O   UNL     1      -0.077  -3.697   1.538  0.00  0.00    -0.393 OA
ATOM     33  H   UNL     1      -1.030  -3.667   1.346  0.00  0.00    +0.209 HD
ENDBRANCH  27   3
ENDBRANCH  24  27
ENDBRANCH   6  24
ENDBRANCH  14   4
ENDBRANCH   8  14
BRANCH  10  15
ATOM     15  C   UNL     1       0.063   1.284   1.446  0.00  0.00    +0.103 C 
BRANCH  15  19
ATOM      1  O   UNL     1      -1.713   2.651   0.596  0.00  0.00    -0.276 OA
ATOM      5  N   UNL     1      -2.326   0.711   1.708  0.00  0.00    -0.300 N 
ATOM     19  C   UNL     1      -1.396   1.625   1.203  0.00  0.00    +0.216 C 
ATOM     22  C   UNL     1      -1.928  -0.495   2.423  0.00  0.00    +0.132 C 
BRANCH   5  21
ATOM     21  C   UNL     1      -3.768   0.896   1.557  0.00  0.00    +0.142 C 
BRANCH  21  23
ATOM     23  C   UNL     1      -4.294   0.225   0.321  0.00  0.00    -0.030 A 
ATOM     25  C   UNL     1      -4.342   0.924  -0.885  0.00  0.00    +0.005 A 
ATOM     26  C   UNL     1      -4.734  -1.097   0.380  0.00  0.00    +0.005 A 
ATOM     28  C   UNL     1      -4.831   0.300  -2.033  0.00  0.00    +0.000 A 
ATOM     29  C   UNL     1      -5.222  -1.721  -0.768  0.00  0.00    +0.000 A 
ATOM     30  C   UNL     1      -5.271  -1.023  -1.975  0.00  0.00    +0.000 A 
ENDBRANCH  21  23
ENDBRANCH   5  21
ENDBRANCH  15  19
ENDBRANCH  10  15
TORSDOF 10
