MODEL 1
REMARK VINA RESULT:      -8.0      0.000      0.000
REMARK  Name = 40533517
REMARK  5 active torsions:
REMARK  status: ('A' for Active; 'I' for Inactive)
REMARK    1  A    between atoms: N_2  and  C_13
REMARK    2  A    between atoms: C_13  and  C_18
REMARK    3  A    between atoms: C_16  and  C_19
REMARK    4  A    between atoms: C_26  and  C_29
REMARK    5  A    between atoms: C_27  and  C_32
REMARK                            x       y       z     vdW  Elec       q    Type
REMARK                         _______ _______ _______ _____ _____    ______ ____
ROOT
ATOM      1  O   UNL     1      -6.146 -11.705  11.054  0.00  0.00    -0.267 OA
ATOM      2  N   UNL     1      -3.159 -11.038  15.027  0.00  0.00    -0.297 NA
ATOM      3  N   UNL     1      -4.027 -11.686  12.027  0.00  0.00    -0.311 N 
ATOM      6  C   UNL     1      -3.360 -13.279  13.922  0.00  0.00    +0.024 C 
ATOM      7  C   UNL     1      -1.736 -11.656  13.069  0.00  0.00    +0.050 C 
ATOM      8  C   UNL     1      -1.958 -13.141  13.343  0.00  0.00    +0.017 C 
ATOM      9  C   UNL     1      -3.478 -12.457  15.223  0.00  0.00    +0.090 C 
ATOM     10  C   UNL     1      -1.844 -10.866  14.393  0.00  0.00    +0.094 C 
ATOM     11  C   UNL     1      -4.378 -12.848  12.857  0.00  0.00    +0.130 C 
ATOM     12  C   UNL     1      -2.742 -11.139  12.058  0.00  0.00    +0.026 A 
ATOM     14  C   UNL     1      -2.411 -10.152  11.212  0.00  0.00    +0.022 A 
ATOM     15  C   UNL     1      -5.014 -11.226  11.134  0.00  0.00    +0.259 A 
ATOM     16  C   UNL     1      -4.624 -10.094  10.221  0.00  0.00    +0.047 A 
ATOM     17  C   UNL     1      -3.370  -9.621  10.285  0.00  0.00    +0.015 A 
ENDROOT
BRANCH  16  19
ATOM     19  C   UNL     1      -5.590  -9.505   9.278  0.00  0.00    -0.011 A 
ATOM     24  C   UNL     1      -5.679  -9.994   7.974  0.00  0.00    +0.027 A 
ATOM     25  C   UNL     1      -6.417  -8.460   9.689  0.00  0.00    +0.009 A 
ATOM     27  C   UNL     1      -6.595  -9.436   7.082  0.00  0.00    +0.052 A 
ATOM     28  C   UNL     1      -7.333  -7.904   8.798  0.00  0.00    +0.002 A 
ATOM     30  C   UNL     1      -7.423  -8.391   7.493  0.00  0.00    +0.019 A 
BRANCH  27  32
ATOM      5  N   UNL     1      -6.761 -10.342   4.661  0.00  0.00    -0.191 NA
ATOM     32  C   UNL     1      -6.687  -9.936   5.746  0.00  0.00    +0.099 C 
ENDBRANCH  27  32
ENDBRANCH  16  19
BRANCH   2  13
ATOM     13  C   UNL     1      -3.231 -10.306  16.289  0.00  0.00    +0.119 C 
BRANCH  13  18
ATOM     18  C   UNL     1      -4.633 -10.270  16.837  0.00  0.00    -0.033 A 
ATOM     20  C   UNL     1      -5.657  -9.683  16.095  0.00  0.00    +0.005 A 
ATOM     21  C   UNL     1      -4.908 -10.824  18.088  0.00  0.00    +0.005 A 
ATOM     22  C   UNL     1      -6.956  -9.650  16.603  0.00  0.00    +0.010 A 
ATOM     23  C   UNL     1      -6.207 -10.790  18.596  0.00  0.00    +0.010 A 
ATOM     26  C   UNL     1      -7.231 -10.203  17.853  0.00  0.00    +0.000 A 
BRANCH  26  29
ATOM      4  N   UNL     1      -8.764 -10.870  19.520  0.00  0.00    -0.255 NA
ATOM     29  C   UNL     1      -8.578 -10.168  18.380  0.00  0.00    +0.071 A 
ATOM     31  C   UNL     1      -9.578  -9.457  17.736  0.00  0.00    +0.028 A 
ATOM     33  C   UNL     1     -10.850  -9.468  18.298  0.00  0.00    +0.004 A 
ATOM     34  C   UNL     1     -10.012 -10.857  20.037  0.00  0.00    +0.111 A 
ATOM     35  C   UNL     1     -11.080 -10.179  19.471  0.00  0.00    +0.020 A 
ENDBRANCH  26  29
ENDBRANCH  13  18
ENDBRANCH   2  13
TORSDOF 5
ENDMDL
MODEL 2
REMARK VINA RESULT:      -7.6     24.543     27.803
REMARK  Name = 40533517
REMARK  5 active torsions:
REMARK  status: ('A' for Active; 'I' for Inactive)
REMARK    1  A    between atoms: N_2  and  C_13
REMARK    2  A    between atoms: C_13  and  C_18
REMARK    3  A    between atoms: C_16  and  C_19
REMARK    4  A    between atoms: C_26  and  C_29
REMARK    5  A    between atoms: C_27  and  C_32
REMARK                            x       y       z     vdW  Elec       q    Type
REMARK                         _______ _______ _______ _____ _____    ______ ____
ROOT
ATOM      1  O   UNL     1      10.681   7.157   1.656  0.00  0.00    -0.267 OA
ATOM      2  N   UNL     1      10.772   8.454   6.501  0.00  0.00    -0.297 NA
ATOM      3  N   UNL     1       9.879   6.946   3.836  0.00  0.00    -0.311 N 
ATOM      6  C   UNL     1       8.746   8.875   5.086  0.00  0.00    +0.024 C 
ATOM      7  C   UNL     1       9.016   6.705   6.188  0.00  0.00    +0.050 C 
ATOM      8  C   UNL     1       7.988   7.767   5.806  0.00  0.00    +0.017 C 
ATOM      9  C   UNL     1       9.827   9.467   6.015  0.00  0.00    +0.090 C 
ATOM     10  C   UNL     1      10.072   7.325   7.130  0.00  0.00    +0.094 C 
ATOM     11  C   UNL     1       9.331   8.309   3.785  0.00  0.00    +0.130 C 
ATOM     12  C   UNL     1       9.680   6.129   4.951  0.00  0.00    +0.026 A 
ATOM     14  C   UNL     1      10.091   4.852   4.932  0.00  0.00    +0.022 A 
ATOM     15  C   UNL     1      10.518   6.478   2.671  0.00  0.00    +0.259 A 
ATOM     16  C   UNL     1      10.999   5.051   2.692  0.00  0.00    +0.047 A 
ATOM     17  C   UNL     1      10.765   4.311   3.786  0.00  0.00    +0.015 A 
ENDROOT
BRANCH  16  19
ATOM     19  C   UNL     1      11.720   4.471   1.545  0.00  0.00    -0.011 A 
ATOM     24  C   UNL     1      11.028   4.147   0.378  0.00  0.00    +0.027 A 
ATOM     25  C   UNL     1      13.094   4.248   1.627  0.00  0.00    +0.009 A 
ATOM     27  C   UNL     1      11.711   3.599  -0.707  0.00  0.00    +0.052 A 
ATOM     28  C   UNL     1      13.777   3.700   0.541  0.00  0.00    +0.002 A 
ATOM     30  C   UNL     1      13.086   3.375  -0.627  0.00  0.00    +0.019 A 
BRANCH  27  32
ATOM      5  N   UNL     1      10.427   2.996  -2.874  0.00  0.00    -0.191 NA
ATOM     32  C   UNL     1      11.003   3.266  -1.903  0.00  0.00    +0.099 C 
ENDBRANCH  27  32
ENDBRANCH  16  19
BRANCH   2  13
ATOM     13  C   UNL     1      11.746   9.042   7.416  0.00  0.00    +0.119 C 
BRANCH  13  18
ATOM     18  C   UNL     1      13.153   8.920   6.893  0.00  0.00    -0.033 A 
ATOM     20  C   UNL     1      13.898  10.067   6.622  0.00  0.00    +0.005 A 
ATOM     21  C   UNL     1      13.711   7.660   6.680  0.00  0.00    +0.005 A 
ATOM     22  C   UNL     1      15.202   9.954   6.137  0.00  0.00    +0.010 A 
ATOM     23  C   UNL     1      15.014   7.546   6.195  0.00  0.00    +0.010 A 
ATOM     26  C   UNL     1      15.759   8.694   5.923  0.00  0.00    +0.000 A 
BRANCH  26  29
ATOM      4  N   UNL     1      17.208   8.265   4.108  0.00  0.00    -0.255 NA
ATOM     29  C   UNL     1      17.111   8.576   5.421  0.00  0.00    +0.071 A 
ATOM     31  C   UNL     1      18.202   8.775   6.252  0.00  0.00    +0.028 A 
ATOM     33  C   UNL     1      19.472   8.646   5.703  0.00  0.00    +0.004 A 
ATOM     34  C   UNL     1      18.458   8.147   3.609  0.00  0.00    +0.111 A 
ATOM     35  C   UNL     1      19.611   8.325   4.357  0.00  0.00    +0.020 A 
ENDBRANCH  26  29
ENDBRANCH  13  18
ENDBRANCH   2  13
TORSDOF 5
ENDMDL
MODEL 3
REMARK VINA RESULT:      -7.6     24.435     27.461
REMARK  Name = 40533517
REMARK  5 active torsions:
REMARK  status: ('A' for Active; 'I' for Inactive)
REMARK    1  A    between atoms: N_2  and  C_13
REMARK    2  A    between atoms: C_13  and  C_18
REMARK    3  A    between atoms: C_16  and  C_19
REMARK    4  A    between atoms: C_26  and  C_29
REMARK    5  A    between atoms: C_27  and  C_32
REMARK                            x       y       z     vdW  Elec       q    Type
REMARK                         _______ _______ _______ _____ _____    ______ ____
ROOT
ATOM      1  O   UNL     1      12.323   7.591   2.844  0.00  0.00    -0.267 OA
ATOM      2  N   UNL     1      13.350   4.519  -0.985  0.00  0.00    -0.297 NA
ATOM      3  N   UNL     1      12.890   5.485   2.020  0.00  0.00    -0.311 N 
ATOM      6  C   UNL     1      15.075   5.034   0.760  0.00  0.00    +0.024 C 
ATOM      7  C   UNL     1      13.490   3.206   1.136  0.00  0.00    +0.050 C 
ATOM      8  C   UNL     1      14.943   3.630   1.334  0.00  0.00    +0.017 C 
ATOM      9  C   UNL     1      14.703   5.031  -0.738  0.00  0.00    +0.090 C 
ATOM     10  C   UNL     1      13.156   3.196  -0.373  0.00  0.00    +0.094 C 
ATOM     11  C   UNL     1      14.199   5.988   1.582  0.00  0.00    +0.130 C 
ATOM     12  C   UNL     1      12.552   4.136   1.881  0.00  0.00    +0.026 A 
ATOM     14  C   UNL     1      11.398   3.676   2.388  0.00  0.00    +0.022 A 
ATOM     15  C   UNL     1      12.045   6.403   2.673  0.00  0.00    +0.259 A 
ATOM     16  C   UNL     1      10.741   5.864   3.200  0.00  0.00    +0.047 A 
ATOM     17  C   UNL     1      10.479   4.557   3.052  0.00  0.00    +0.015 A 
ENDROOT
BRANCH  16  19
ATOM     19  C   UNL     1       9.762   6.745   3.861  0.00  0.00    -0.011 A 
ATOM     24  C   UNL     1       9.684   6.781   5.254  0.00  0.00    +0.027 A 
ATOM     25  C   UNL     1       8.914   7.544   3.094  0.00  0.00    +0.009 A 
ATOM     27  C   UNL     1       8.757   7.616   5.878  0.00  0.00    +0.052 A 
ATOM     28  C   UNL     1       7.989   8.380   3.719  0.00  0.00    +0.002 A 
ATOM     30  C   UNL     1       7.910   8.416   5.112  0.00  0.00    +0.019 A 
BRANCH  27  32
ATOM      5  N   UNL     1       8.611   7.682   8.464  0.00  0.00    -0.191 NA
ATOM     32  C   UNL     1       8.676   7.653   7.305  0.00  0.00    +0.099 C 
ENDBRANCH  27  32
ENDBRANCH  16  19
BRANCH   2  13
ATOM     13  C   UNL     1      13.056   4.482  -2.415  0.00  0.00    +0.119 C 
BRANCH  13  18
ATOM     18  C   UNL     1      11.633   4.879  -2.706  0.00  0.00    -0.033 A 
ATOM     20  C   UNL     1      10.816   5.349  -1.678  0.00  0.00    +0.005 A 
ATOM     21  C   UNL     1      11.131   4.776  -4.003  0.00  0.00    +0.005 A 
ATOM     22  C   UNL     1       9.498   5.717  -1.946  0.00  0.00    +0.010 A 
ATOM     23  C   UNL     1       9.812   5.143  -4.272  0.00  0.00    +0.010 A 
ATOM     26  C   UNL     1       8.996   5.613  -3.243  0.00  0.00    +0.000 A 
BRANCH  26  29
ATOM      4  N   UNL     1       7.069   5.377  -4.588  0.00  0.00    -0.255 NA
ATOM     29  C   UNL     1       7.628   5.994  -3.523  0.00  0.00    +0.071 A 
ATOM     31  C   UNL     1       6.971   6.926  -2.734  0.00  0.00    +0.028 A 
ATOM     33  C   UNL     1       5.658   7.245  -3.061  0.00  0.00    +0.004 A 
ATOM     34  C   UNL     1       5.792   5.712  -4.874  0.00  0.00    +0.111 A 
ATOM     35  C   UNL     1       5.049   6.631  -4.150  0.00  0.00    +0.020 A 
ENDBRANCH  26  29
ENDBRANCH  13  18
ENDBRANCH   2  13
TORSDOF 5
ENDMDL
MODEL 4
REMARK VINA RESULT:      -7.4     21.343     25.415
REMARK  Name = 40533517
REMARK  5 active torsions:
REMARK  status: ('A' for Active; 'I' for Inactive)
REMARK    1  A    between atoms: N_2  and  C_13
REMARK    2  A    between atoms: C_13  and  C_18
REMARK    3  A    between atoms: C_16  and  C_19
REMARK    4  A    between atoms: C_26  and  C_29
REMARK    5  A    between atoms: C_27  and  C_32
REMARK                            x       y       z     vdW  Elec       q    Type
REMARK                         _______ _______ _______ _____ _____    ______ ____
ROOT
ATOM      1  O   UNL     1      12.443  -7.813  33.136  0.00  0.00    -0.267 OA
ATOM      2  N   UNL     1       7.545  -6.978  33.822  0.00  0.00    -0.297 NA
ATOM      3  N   UNL     1      10.697  -6.513  33.972  0.00  0.00    -0.311 N 
ATOM      6  C   UNL     1       9.077  -7.361  35.769  0.00  0.00    +0.024 C 
ATOM      7  C   UNL     1       8.816  -5.099  34.866  0.00  0.00    +0.050 C 
ATOM      8  C   UNL     1       8.978  -5.893  36.161  0.00  0.00    +0.017 C 
ATOM      9  C   UNL     1       7.803  -7.795  35.014  0.00  0.00    +0.090 C 
ATOM     10  C   UNL     1       7.524  -5.545  34.146  0.00  0.00    +0.094 C 
ATOM     11  C   UNL     1      10.352  -7.565  34.938  0.00  0.00    +0.130 C 
ATOM     12  C   UNL     1      10.020  -5.291  33.964  0.00  0.00    +0.026 A 
ATOM     14  C   UNL     1      10.425  -4.303  33.150  0.00  0.00    +0.022 A 
ATOM     15  C   UNL     1      11.801  -6.761  33.133  0.00  0.00    +0.259 A 
ATOM     16  C   UNL     1      12.209  -5.647  32.206  0.00  0.00    +0.047 A 
ATOM     17  C   UNL     1      11.532  -4.490  32.255  0.00  0.00    +0.015 A 
ENDROOT
BRANCH  16  19
ATOM     19  C   UNL     1      13.322  -5.814  31.255  0.00  0.00    -0.011 A 
ATOM     24  C   UNL     1      14.473  -5.037  31.386  0.00  0.00    +0.027 A 
ATOM     25  C   UNL     1      13.224  -6.749  30.225  0.00  0.00    +0.009 A 
ATOM     27  C   UNL     1      15.527  -5.196  30.485  0.00  0.00    +0.052 A 
ATOM     28  C   UNL     1      14.277  -6.908  29.326  0.00  0.00    +0.002 A 
ATOM     30  C   UNL     1      15.430  -6.132  29.455  0.00  0.00    +0.019 A 
BRANCH  27  32
ATOM      5  N   UNL     1      17.666  -3.755  30.726  0.00  0.00    -0.191 NA
ATOM     32  C   UNL     1      16.707  -4.401  30.618  0.00  0.00    +0.099 C 
ENDBRANCH  27  32
ENDBRANCH  16  19
BRANCH   2  13
ATOM     13  C   UNL     1       6.304  -7.385  33.167  0.00  0.00    +0.119 C 
BRANCH  13  18
ATOM     18  C   UNL     1       6.502  -8.597  32.295  0.00  0.00    -0.033 A 
ATOM     20  C   UNL     1       6.739  -8.443  30.929  0.00  0.00    +0.005 A 
ATOM     21  C   UNL     1       6.447  -9.875  32.853  0.00  0.00    +0.005 A 
ATOM     22  C   UNL     1       6.922  -9.566  30.121  0.00  0.00    +0.010 A 
ATOM     23  C   UNL     1       6.629 -10.998  32.045  0.00  0.00    +0.010 A 
ATOM     26  C   UNL     1       6.867 -10.842  30.679  0.00  0.00    +0.000 A 
BRANCH  26  29
ATOM      4  N   UNL     1       8.154 -11.972  29.053  0.00  0.00    -0.255 NA
ATOM     29  C   UNL     1       7.056 -12.007  29.842  0.00  0.00    +0.071 A 
ATOM     31  C   UNL     1       6.157 -13.062  29.873  0.00  0.00    +0.028 A 
ATOM     33  C   UNL     1       6.401 -14.149  29.041  0.00  0.00    +0.004 A 
ATOM     34  C   UNL     1       8.358 -13.046  28.259  0.00  0.00    +0.111 A 
ATOM     35  C   UNL     1       7.520 -14.149  28.216  0.00  0.00    +0.020 A 
ENDBRANCH  26  29
ENDBRANCH  13  18
ENDBRANCH   2  13
TORSDOF 5
ENDMDL
MODEL 5
REMARK VINA RESULT:      -7.3      2.282      7.739
REMARK  Name = 40533517
REMARK  5 active torsions:
REMARK  status: ('A' for Active; 'I' for Inactive)
REMARK    1  A    between atoms: N_2  and  C_13
REMARK    2  A    between atoms: C_13  and  C_18
REMARK    3  A    between atoms: C_16  and  C_19
REMARK    4  A    between atoms: C_26  and  C_29
REMARK    5  A    between atoms: C_27  and  C_32
REMARK                            x       y       z     vdW  Elec       q    Type
REMARK                         _______ _______ _______ _____ _____    ______ ____
ROOT
ATOM      1  O   UNL     1      -5.132  -9.577  16.803  0.00  0.00    -0.267 OA
ATOM      2  N   UNL     1      -2.988 -10.783  12.432  0.00  0.00    -0.297 NA
ATOM      3  N   UNL     1      -4.375 -11.171  15.278  0.00  0.00    -0.311 N 
ATOM      6  C   UNL     1      -1.909 -11.387  14.612  0.00  0.00    +0.024 C 
ATOM      7  C   UNL     1      -3.570 -12.895  13.631  0.00  0.00    +0.050 C 
ATOM      8  C   UNL     1      -2.250 -12.855  14.397  0.00  0.00    +0.017 C 
ATOM      9  C   UNL     1      -1.776 -10.669  13.252  0.00  0.00    +0.090 C 
ATOM     10  C   UNL     1      -3.398 -12.185  12.269  0.00  0.00    +0.094 C 
ATOM     11  C   UNL     1      -2.983 -10.757  15.509  0.00  0.00    +0.130 C 
ATOM     12  C   UNL     1      -4.678 -12.242  14.435  0.00  0.00    +0.026 A 
ATOM     14  C   UNL     1      -5.944 -12.674  14.325  0.00  0.00    +0.022 A 
ATOM     15  C   UNL     1      -5.365 -10.503  16.025  0.00  0.00    +0.259 A 
ATOM     16  C   UNL     1      -6.781 -10.988  15.854  0.00  0.00    +0.047 A 
ATOM     17  C   UNL     1      -7.008 -12.031  15.042  0.00  0.00    +0.015 A 
ENDROOT
BRANCH  16  19
ATOM     19  C   UNL     1      -7.901 -10.334  16.552  0.00  0.00    -0.011 A 
ATOM     24  C   UNL     1      -8.452  -9.159  16.040  0.00  0.00    +0.027 A 
ATOM     25  C   UNL     1      -8.413 -10.892  17.724  0.00  0.00    +0.009 A 
ATOM     27  C   UNL     1      -9.514  -8.541  16.701  0.00  0.00    +0.052 A 
ATOM     28  C   UNL     1      -9.474 -10.274  18.384  0.00  0.00    +0.002 A 
ATOM     30  C   UNL     1     -10.026  -9.099  17.873  0.00  0.00    +0.019 A 
BRANCH  27  32
ATOM      5  N   UNL     1     -10.537  -6.359  15.751  0.00  0.00    -0.191 NA
ATOM     32  C   UNL     1     -10.078  -7.337  16.177  0.00  0.00    +0.099 C 
ENDBRANCH  27  32
ENDBRANCH  16  19
BRANCH   2  13
ATOM     13  C   UNL     1      -2.804 -10.137  11.135  0.00  0.00    +0.119 C 
BRANCH  13  18
ATOM     18  C   UNL     1      -4.096  -9.581  10.597  0.00  0.00    -0.033 A 
ATOM     20  C   UNL     1      -4.227  -9.314   9.234  0.00  0.00    +0.005 A 
ATOM     21  C   UNL     1      -5.163  -9.333  11.461  0.00  0.00    +0.005 A 
ATOM     22  C   UNL     1      -5.424  -8.799   8.735  0.00  0.00    +0.010 A 
ATOM     23  C   UNL     1      -6.360  -8.817  10.963  0.00  0.00    +0.010 A 
ATOM     26  C   UNL     1      -6.489  -8.550   9.599  0.00  0.00    +0.000 A 
BRANCH  26  29
ATOM      4  N   UNL     1      -8.851  -8.535   9.634  0.00  0.00    -0.255 NA
ATOM     29  C   UNL     1      -7.731  -8.015   9.083  0.00  0.00    +0.071 A 
ATOM     31  C   UNL     1      -7.733  -7.042   8.096  0.00  0.00    +0.028 A 
ATOM     33  C   UNL     1      -8.962  -6.574   7.646  0.00  0.00    +0.004 A 
ATOM     34  C   UNL     1     -10.026  -8.056   9.172  0.00  0.00    +0.111 A 
ATOM     35  C   UNL     1     -10.136  -7.086   8.188  0.00  0.00    +0.020 A 
ENDBRANCH  26  29
ENDBRANCH  13  18
ENDBRANCH   2  13
TORSDOF 5
ENDMDL
MODEL 6
REMARK VINA RESULT:      -7.3     19.652     21.886
REMARK  Name = 40533517
REMARK  5 active torsions:
REMARK  status: ('A' for Active; 'I' for Inactive)
REMARK    1  A    between atoms: N_2  and  C_13
REMARK    2  A    between atoms: C_13  and  C_18
REMARK    3  A    between atoms: C_16  and  C_19
REMARK    4  A    between atoms: C_26  and  C_29
REMARK    5  A    between atoms: C_27  and  C_32
REMARK                            x       y       z     vdW  Elec       q    Type
REMARK                         _______ _______ _______ _____ _____    ______ ____
ROOT
ATOM      1  O   UNL     1     -14.653   9.615  20.171  0.00  0.00    -0.267 OA
ATOM      2  N   UNL     1     -11.524   9.543  16.252  0.00  0.00    -0.297 NA
ATOM      3  N   UNL     1     -12.495   9.551  19.290  0.00  0.00    -0.311 N 
ATOM      6  C   UNL     1     -11.520  11.453  17.875  0.00  0.00    +0.024 C 
ATOM      7  C   UNL     1     -10.163   9.469  18.345  0.00  0.00    +0.050 C 
ATOM      8  C   UNL     1     -10.185  10.993  18.444  0.00  0.00    +0.017 C 
ATOM      9  C   UNL     1     -11.655  10.996  16.407  0.00  0.00    +0.090 C 
ATOM     10  C   UNL     1     -10.282   9.047  16.864  0.00  0.00    +0.094 C 
ATOM     11  C   UNL     1     -12.649  10.915  18.766  0.00  0.00    +0.130 C 
ATOM     12  C   UNL     1     -11.287   8.861  19.163  0.00  0.00    +0.026 A 
ATOM     14  C   UNL     1     -11.133   7.662  19.746  0.00  0.00    +0.022 A 
ATOM     15  C   UNL     1     -13.585   9.023  20.009  0.00  0.00    +0.259 A 
ATOM     16  C   UNL     1     -13.394   7.661  20.621  0.00  0.00    +0.047 A 
ATOM     17  C   UNL     1     -12.206   7.054  20.480  0.00  0.00    +0.015 A 
ENDROOT
BRANCH  16  19
ATOM     19  C   UNL     1     -14.483   6.994  21.357  0.00  0.00    -0.011 A 
ATOM     24  C   UNL     1     -15.362   6.145  20.684  0.00  0.00    +0.027 A 
ATOM     25  C   UNL     1     -14.633   7.211  22.726  0.00  0.00    +0.009 A 
ATOM     27  C   UNL     1     -16.392   5.514  21.382  0.00  0.00    +0.052 A 
ATOM     28  C   UNL     1     -15.662   6.579  23.423  0.00  0.00    +0.002 A 
ATOM     30  C   UNL     1     -16.543   5.730  22.751  0.00  0.00    +0.019 A 
BRANCH  27  32
ATOM      5  N   UNL     1     -18.025   3.938  20.134  0.00  0.00    -0.191 NA
ATOM     32  C   UNL     1     -17.294   4.645  20.693  0.00  0.00    +0.099 C 
ENDBRANCH  27  32
ENDBRANCH  16  19
BRANCH   2  13
ATOM     13  C   UNL     1     -11.604   9.157  14.845  0.00  0.00    +0.119 C 
BRANCH  13  18
ATOM     18  C   UNL     1     -12.830   8.330  14.560  0.00  0.00    -0.033 A 
ATOM     20  C   UNL     1     -12.912   7.587  13.383  0.00  0.00    +0.005 A 
ATOM     21  C   UNL     1     -13.885   8.307  15.473  0.00  0.00    +0.005 A 
ATOM     22  C   UNL     1     -14.047   6.820  13.118  0.00  0.00    +0.010 A 
ATOM     23  C   UNL     1     -15.021   7.542  15.208  0.00  0.00    +0.010 A 
ATOM     26  C   UNL     1     -15.101   6.798  14.030  0.00  0.00    +0.000 A 
BRANCH  26  29
ATOM      4  N   UNL     1     -16.626   5.139  14.735  0.00  0.00    -0.255 NA
ATOM     29  C   UNL     1     -16.280   6.004  13.756  0.00  0.00    +0.071 A 
ATOM     31  C   UNL     1     -16.976   6.148  12.566  0.00  0.00    +0.028 A 
ATOM     33  C   UNL     1     -18.099   5.352  12.369  0.00  0.00    +0.004 A 
ATOM     34  C   UNL     1     -17.722   4.382  14.508  0.00  0.00    +0.111 A 
ATOM     35  C   UNL     1     -18.486   4.450  13.353  0.00  0.00    +0.020 A 
ENDBRANCH  26  29
ENDBRANCH  13  18
ENDBRANCH   2  13
TORSDOF 5
ENDMDL
MODEL 7
REMARK VINA RESULT:      -7.2     24.935     27.271
REMARK  Name = 40533517
REMARK  5 active torsions:
REMARK  status: ('A' for Active; 'I' for Inactive)
REMARK    1  A    between atoms: N_2  and  C_13
REMARK    2  A    between atoms: C_13  and  C_18
REMARK    3  A    between atoms: C_16  and  C_19
REMARK    4  A    between atoms: C_26  and  C_29
REMARK    5  A    between atoms: C_27  and  C_32
REMARK                            x       y       z     vdW  Elec       q    Type
REMARK                         _______ _______ _______ _____ _____    ______ ____
ROOT
ATOM      1  O   UNL     1      12.143   7.687   2.796  0.00  0.00    -0.267 OA
ATOM      2  N   UNL     1      12.905   4.340  -0.861  0.00  0.00    -0.297 NA
ATOM      3  N   UNL     1      12.691   5.534   2.090  0.00  0.00    -0.311 N 
ATOM      6  C   UNL     1      14.766   5.028   0.672  0.00  0.00    +0.024 C 
ATOM      7  C   UNL     1      13.272   3.204   1.334  0.00  0.00    +0.050 C 
ATOM      8  C   UNL     1      14.725   3.672   1.363  0.00  0.00    +0.017 C 
ATOM      9  C   UNL     1      14.260   4.898  -0.781  0.00  0.00    +0.090 C 
ATOM     10  C   UNL     1      12.804   3.067  -0.132  0.00  0.00    +0.094 C 
ATOM     11  C   UNL     1      13.941   6.027   1.495  0.00  0.00    +0.130 C 
ATOM     12  C   UNL     1      12.380   4.172   2.088  0.00  0.00    +0.026 A 
ATOM     14  C   UNL     1      11.289   3.730   2.734  0.00  0.00    +0.022 A 
ATOM     15  C   UNL     1      11.883   6.484   2.744  0.00  0.00    +0.259 A 
ATOM     16  C   UNL     1      10.648   5.963   3.430  0.00  0.00    +0.047 A 
ATOM     17  C   UNL     1      10.410   4.643   3.408  0.00  0.00    +0.015 A 
ENDROOT
BRANCH  16  19
ATOM     19  C   UNL     1       9.709   6.873   4.107  0.00  0.00    -0.011 A 
ATOM     24  C   UNL     1       8.821   7.645   3.357  0.00  0.00    +0.027 A 
ATOM     25  C   UNL     1       9.706   6.962   5.499  0.00  0.00    +0.009 A 
ATOM     27  C   UNL     1       7.931   8.506   3.999  0.00  0.00    +0.052 A 
ATOM     28  C   UNL     1       8.816   7.822   6.141  0.00  0.00    +0.002 A 
ATOM     30  C   UNL     1       7.928   8.595   5.391  0.00  0.00    +0.019 A 
BRANCH  27  32
ATOM      5  N   UNL     1       6.283   9.941   2.608  0.00  0.00    -0.191 NA
ATOM     32  C   UNL     1       7.022   9.297   3.231  0.00  0.00    +0.099 C 
ENDBRANCH  27  32
ENDBRANCH  16  19
BRANCH   2  13
ATOM     13  C   UNL     1      12.484   4.183  -2.251  0.00  0.00    +0.119 C 
BRANCH  13  18
ATOM     18  C   UNL     1      11.113   4.757  -2.490  0.00  0.00    -0.033 A 
ATOM     20  C   UNL     1      10.294   4.216  -3.481  0.00  0.00    +0.005 A 
ATOM     21  C   UNL     1      10.661   5.829  -1.721  0.00  0.00    +0.005 A 
ATOM     22  C   UNL     1       9.023   4.747  -3.702  0.00  0.00    +0.010 A 
ATOM     23  C   UNL     1       9.390   6.361  -1.942  0.00  0.00    +0.010 A 
ATOM     26  C   UNL     1       8.572   5.819  -2.934  0.00  0.00    +0.000 A 
BRANCH  26  29
ATOM      4  N   UNL     1       6.948   7.453  -2.414  0.00  0.00    -0.255 NA
ATOM     29  C   UNL     1       7.254   6.371  -3.164  0.00  0.00    +0.071 A 
ATOM     31  C   UNL     1       6.395   5.804  -4.093  0.00  0.00    +0.028 A 
ATOM     33  C   UNL     1       5.143   6.385  -4.262  0.00  0.00    +0.004 A 
ATOM     34  C   UNL     1       5.724   7.991  -2.606  0.00  0.00    +0.111 A 
ATOM     35  C   UNL     1       4.793   7.500  -3.508  0.00  0.00    +0.020 A 
ENDBRANCH  26  29
ENDBRANCH  13  18
ENDBRANCH   2  13
TORSDOF 5
ENDMDL
MODEL 8
REMARK VINA RESULT:      -7.0     28.569     31.609
REMARK  Name = 40533517
REMARK  5 active torsions:
REMARK  status: ('A' for Active; 'I' for Inactive)
REMARK    1  A    between atoms: N_2  and  C_13
REMARK    2  A    between atoms: C_13  and  C_18
REMARK    3  A    between atoms: C_16  and  C_19
REMARK    4  A    between atoms: C_26  and  C_29
REMARK    5  A    between atoms: C_27  and  C_32
REMARK                            x       y       z     vdW  Elec       q    Type
REMARK                         _______ _______ _______ _____ _____    ______ ____
ROOT
ATOM      1  O   UNL     1      14.110  10.639  23.461  0.00  0.00    -0.267 OA
ATOM      2  N   UNL     1      13.990   7.786  19.338  0.00  0.00    -0.297 NA
ATOM      3  N   UNL     1      13.158  10.061  21.413  0.00  0.00    -0.311 N 
ATOM      6  C   UNL     1      12.094   7.771  20.977  0.00  0.00    +0.024 C 
ATOM      7  C   UNL     1      12.133   9.451  19.196  0.00  0.00    +0.050 C 
ATOM      8  C   UNL     1      11.213   8.532  19.996  0.00  0.00    +0.017 C 
ATOM      9  C   UNL     1      13.155   6.953  20.211  0.00  0.00    +0.090 C 
ATOM     10  C   UNL     1      13.171   8.601  18.429  0.00  0.00    +0.094 C 
ATOM     11  C   UNL     1      12.716   8.771  21.960  0.00  0.00    +0.130 C 
ATOM     12  C   UNL     1      12.829  10.442  20.109  0.00  0.00    +0.026 A 
ATOM     14  C   UNL     1      13.145  11.669  19.667  0.00  0.00    +0.022 A 
ATOM     15  C   UNL     1      13.833  10.926  22.296  0.00  0.00    +0.259 A 
ATOM     16  C   UNL     1      14.205  12.283  21.759  0.00  0.00    +0.047 A 
ATOM     17  C   UNL     1      13.848  12.598  20.505  0.00  0.00    +0.015 A 
ENDROOT
BRANCH  16  19
ATOM     19  C   UNL     1      14.952  13.251  22.582  0.00  0.00    -0.011 A 
ATOM     24  C   UNL     1      16.333  13.120  22.732  0.00  0.00    +0.027 A 
ATOM     25  C   UNL     1      14.278  14.299  23.209  0.00  0.00    +0.009 A 
ATOM     27  C   UNL     1      17.039  14.038  23.510  0.00  0.00    +0.052 A 
ATOM     28  C   UNL     1      14.984  15.216  23.986  0.00  0.00    +0.002 A 
ATOM     30  C   UNL     1      16.365  15.086  24.137  0.00  0.00    +0.019 A 
BRANCH  27  32
ATOM      5  N   UNL     1      19.603  13.797  23.790  0.00  0.00    -0.191 NA
ATOM     32  C   UNL     1      18.454  13.905  23.665  0.00  0.00    +0.099 C 
ENDBRANCH  27  32
ENDBRANCH  16  19
BRANCH   2  13
ATOM     13  C   UNL     1      14.945   6.970  18.592  0.00  0.00    +0.119 C 
BRANCH  13  18
ATOM     18  C   UNL     1      16.230   6.775  19.353  0.00  0.00    -0.033 A 
ATOM     20  C   UNL     1      16.519   7.583  20.453  0.00  0.00    +0.005 A 
ATOM     21  C   UNL     1      17.132   5.788  18.958  0.00  0.00    +0.005 A 
ATOM     22  C   UNL     1      17.709   7.402  21.158  0.00  0.00    +0.010 A 
ATOM     23  C   UNL     1      18.323   5.607  19.662  0.00  0.00    +0.010 A 
ATOM     26  C   UNL     1      18.611   6.415  20.763  0.00  0.00    +0.000 A 
BRANCH  26  29
ATOM      4  N   UNL     1      19.908   6.866  22.684  0.00  0.00    -0.255 NA
ATOM     29  C   UNL     1      19.846   6.228  21.493  0.00  0.00    +0.071 A 
ATOM     31  C   UNL     1      20.867   5.445  20.979  0.00  0.00    +0.028 A 
ATOM     33  C   UNL     1      22.026   5.308  21.735  0.00  0.00    +0.004 A 
ATOM     34  C   UNL     1      21.050   6.710  23.390  0.00  0.00    +0.111 A 
ATOM     35  C   UNL     1      22.128   5.950  22.964  0.00  0.00    +0.020 A 
ENDBRANCH  26  29
ENDBRANCH  13  18
ENDBRANCH   2  13
TORSDOF 5
ENDMDL
MODEL 9
REMARK VINA RESULT:      -7.0     19.827     24.770
REMARK  Name = 40533517
REMARK  5 active torsions:
REMARK  status: ('A' for Active; 'I' for Inactive)
REMARK    1  A    between atoms: N_2  and  C_13
REMARK    2  A    between atoms: C_13  and  C_18
REMARK    3  A    between atoms: C_16  and  C_19
REMARK    4  A    between atoms: C_26  and  C_29
REMARK    5  A    between atoms: C_27  and  C_32
REMARK                            x       y       z     vdW  Elec       q    Type
REMARK                         _______ _______ _______ _____ _____    ______ ____
ROOT
ATOM      1  O   UNL     1      -6.027  10.413   3.873  0.00  0.00    -0.267 OA
ATOM      2  N   UNL     1      -1.504   9.990   1.745  0.00  0.00    -0.297 NA
ATOM      3  N   UNL     1      -3.719  10.122   4.037  0.00  0.00    -0.311 N 
ATOM      6  C   UNL     1      -2.041  11.903   3.275  0.00  0.00    +0.024 C 
ATOM      7  C   UNL     1      -1.230   9.794   4.220  0.00  0.00    +0.050 C 
ATOM      8  C   UNL     1      -1.148  11.313   4.358  0.00  0.00    +0.017 C 
ATOM      9  C   UNL     1      -1.552  11.451   1.882  0.00  0.00    +0.090 C 
ATOM     10  C   UNL     1      -0.718   9.375   2.824  0.00  0.00    +0.094 C 
ATOM     11  C   UNL     1      -3.493  11.491   3.552  0.00  0.00    +0.130 C 
ATOM     12  C   UNL     1      -2.652   9.311   4.432  0.00  0.00    +0.026 A 
ATOM     14  C   UNL     1      -2.887   8.107   4.976  0.00  0.00    +0.022 A 
ATOM     15  C   UNL     1      -5.060   9.714   4.178  0.00  0.00    +0.259 A 
ATOM     16  C   UNL     1      -5.291   8.344   4.759  0.00  0.00    +0.047 A 
ATOM     17  C   UNL     1      -4.228   7.618   5.135  0.00  0.00    +0.015 A 
ENDROOT
BRANCH  16  19
ATOM     19  C   UNL     1      -6.651   7.798   4.910  0.00  0.00    -0.011 A 
ATOM     24  C   UNL     1      -7.047   6.692   4.157  0.00  0.00    +0.027 A 
ATOM     25  C   UNL     1      -7.542   8.386   5.807  0.00  0.00    +0.009 A 
ATOM     27  C   UNL     1      -8.334   6.175   4.302  0.00  0.00    +0.052 A 
ATOM     28  C   UNL     1      -8.829   7.869   5.952  0.00  0.00    +0.002 A 
ATOM     30  C   UNL     1      -9.226   6.763   5.199  0.00  0.00    +0.019 A 
BRANCH  27  32
ATOM      5  N   UNL     1      -9.071   4.122   2.905  0.00  0.00    -0.191 NA
ATOM     32  C   UNL     1      -8.741   5.042   3.531  0.00  0.00    +0.099 C 
ENDBRANCH  27  32
ENDBRANCH  16  19
BRANCH   2  13
ATOM     13  C   UNL     1      -0.988   9.604   0.435  0.00  0.00    +0.119 C 
BRANCH  13  18
ATOM     18  C   UNL     1      -1.943   9.963  -0.673  0.00  0.00    -0.033 A 
ATOM     20  C   UNL     1      -3.269   9.536  -0.616  0.00  0.00    +0.005 A 
ATOM     21  C   UNL     1      -1.501  10.724  -1.756  0.00  0.00    +0.005 A 
ATOM     22  C   UNL     1      -4.154   9.869  -1.642  0.00  0.00    +0.010 A 
ATOM     23  C   UNL     1      -2.386  11.056  -2.782  0.00  0.00    +0.010 A 
ATOM     26  C   UNL     1      -3.713  10.628  -2.724  0.00  0.00    +0.000 A 
BRANCH  26  29
ATOM      4  N   UNL     1      -5.914  10.604  -3.580  0.00  0.00    -0.255 NA
ATOM     29  C   UNL     1      -4.630  10.973  -3.789  0.00  0.00    +0.071 A 
ATOM     31  C   UNL     1      -4.189  11.635  -4.925  0.00  0.00    +0.028 A 
ATOM     33  C   UNL     1      -5.125  11.935  -5.908  0.00  0.00    +0.004 A 
ATOM     34  C   UNL     1      -6.795  10.912  -4.557  0.00  0.00    +0.111 A 
ATOM     35  C   UNL     1      -6.455  11.570  -5.729  0.00  0.00    +0.020 A 
ENDBRANCH  26  29
ENDBRANCH  13  18
ENDBRANCH   2  13
TORSDOF 5
ENDMDL
MODEL 10
REMARK VINA RESULT:      -6.9     30.693     32.278
REMARK  Name = 40533517
REMARK  5 active torsions:
REMARK  status: ('A' for Active; 'I' for Inactive)
REMARK    1  A    between atoms: N_2  and  C_13
REMARK    2  A    between atoms: C_13  and  C_18
REMARK    3  A    between atoms: C_16  and  C_19
REMARK    4  A    between atoms: C_26  and  C_29
REMARK    5  A    between atoms: C_27  and  C_32
REMARK                            x       y       z     vdW  Elec       q    Type
REMARK                         _______ _______ _______ _____ _____    ______ ____
ROOT
ATOM      1  O   UNL     1      -2.488   9.793  39.913  0.00  0.00    -0.267 OA
ATOM      2  N   UNL     1      -3.400  12.214  35.616  0.00  0.00    -0.297 NA
ATOM      3  N   UNL     1      -1.755  11.041  38.084  0.00  0.00    -0.311 N 
ATOM      6  C   UNL     1      -2.551  13.436  37.634  0.00  0.00    +0.024 C 
ATOM      7  C   UNL     1      -0.957  12.377  36.106  0.00  0.00    +0.050 C 
ATOM      8  C   UNL     1      -1.187  13.608  36.980  0.00  0.00    +0.017 C 
ATOM      9  C   UNL     1      -3.646  13.318  36.552  0.00  0.00    +0.090 C 
ATOM     10  C   UNL     1      -2.057  12.300  35.024  0.00  0.00    +0.094 C 
ATOM     11  C   UNL     1      -2.504  12.213  38.560  0.00  0.00    +0.130 C 
ATOM     12  C   UNL     1      -0.947  11.115  36.947  0.00  0.00    +0.026 A 
ATOM     14  C   UNL     1      -0.186  10.067  36.594  0.00  0.00    +0.022 A 
ATOM     15  C   UNL     1      -1.814   9.884  38.885  0.00  0.00    +0.259 A 
ATOM     16  C   UNL     1      -0.975   8.714  38.444  0.00  0.00    +0.047 A 
ATOM     17  C   UNL     1      -0.207   8.849  37.353  0.00  0.00    +0.015 A 
ENDROOT
BRANCH  16  19
ATOM     19  C   UNL     1      -0.994   7.439  39.183  0.00  0.00    -0.011 A 
ATOM     24  C   UNL     1       0.088   7.084  39.989  0.00  0.00    +0.027 A 
ATOM     25  C   UNL     1      -2.094   6.589  39.076  0.00  0.00    +0.009 A 
ATOM     27  C   UNL     1       0.068   5.877  40.689  0.00  0.00    +0.052 A 
ATOM     28  C   UNL     1      -2.114   5.383  39.777  0.00  0.00    +0.002 A 
ATOM     30  C   UNL     1      -1.032   5.026  40.583  0.00  0.00    +0.019 A 
BRANCH  27  32
ATOM      5  N   UNL     1       2.076   5.216  42.186  0.00  0.00    -0.191 NA
ATOM     32  C   UNL     1       1.176   5.512  41.515  0.00  0.00    +0.099 C 
ENDBRANCH  27  32
ENDBRANCH  16  19
BRANCH   2  13
ATOM     13  C   UNL     1      -4.427  12.169  34.578  0.00  0.00    +0.119 C 
BRANCH  13  18
ATOM     18  C   UNL     1      -5.636  11.386  35.019  0.00  0.00    -0.033 A 
ATOM     20  C   UNL     1      -5.486  10.295  35.874  0.00  0.00    +0.005 A 
ATOM     21  C   UNL     1      -6.906  11.751  34.571  0.00  0.00    +0.005 A 
ATOM     22  C   UNL     1      -6.605   9.569  36.283  0.00  0.00    +0.010 A 
ATOM     23  C   UNL     1      -8.025  11.025  34.978  0.00  0.00    +0.010 A 
ATOM     26  C   UNL     1      -7.874   9.934  35.835  0.00  0.00    +0.000 A 
BRANCH  26  29
ATOM      4  N   UNL     1     -10.207   9.585  35.717  0.00  0.00    -0.255 NA
ATOM     29  C   UNL     1      -9.035   9.181  36.258  0.00  0.00    +0.071 A 
ATOM     31  C   UNL     1      -8.917   8.129  37.153  0.00  0.00    +0.028 A 
ATOM     33  C   UNL     1     -10.074   7.450  37.516  0.00  0.00    +0.004 A 
ATOM     34  C   UNL     1     -11.310   8.902  36.093  0.00  0.00    +0.111 A 
ATOM     35  C   UNL     1     -11.298   7.838  36.981  0.00  0.00    +0.020 A 
ENDBRANCH  26  29
ENDBRANCH  13  18
ENDBRANCH   2  13
TORSDOF 5
ENDMDL
