MODEL 1
REMARK VINA RESULT:      -7.3      0.000      0.000
REMARK  Name = 71693202
REMARK  14 active torsions:
REMARK  status: ('A' for Active; 'I' for Inactive)
REMARK    1  A    between atoms: O_2  and  C_27
REMARK    2  A    between atoms: N_4  and  C_19
REMARK    3  A    between atoms: C_7  and  C_16
REMARK    4  A    between atoms: C_7  and  C_18
REMARK    5  A    between atoms: C_8  and  C_17
REMARK    6  A    between atoms: C_9  and  C_19
REMARK    7  A    between atoms: C_13  and  C_22
REMARK    8  A    between atoms: C_16  and  C_23
REMARK    9  A    between atoms: C_17  and  C_24
REMARK   10  A    between atoms: C_17  and  C_25
REMARK   11  A    between atoms: C_18  and  C_27
REMARK   12  A    between atoms: C_20  and  C_26
REMARK   13  A    between atoms: C_22  and  C_28
REMARK   14  A    between atoms: C_31  and  C_35
REMARK                            x       y       z     vdW  Elec       q    Type
REMARK                         _______ _______ _______ _____ _____    ______ ____
ROOT
ATOM      8  C   UNL     1      20.115   9.060  21.975  0.00  0.00    +0.000 C 
ATOM      9  C   UNL     1      18.771   9.038  21.204  0.00  0.00    +0.032 C 
ATOM     12  C   UNL     1      21.154   8.176  21.268  0.00  0.00    +0.012 C 
ATOM     13  C   UNL     1      20.686   6.714  21.144  0.00  0.00    +0.022 C 
ATOM     20  C   UNL     1      19.261   6.619  20.639  0.00  0.00    -0.073 C 
ATOM     21  C   UNL     1      18.425   7.671  20.662  0.00  0.00    -0.022 C 
ATOM     26  C   UNL     1      18.833   5.297  20.065  0.00  0.00    +0.039 C 
ENDROOT
BRANCH   8  17
ATOM     17  C   UNL     1      20.661  10.484  22.124  0.00  0.00    -0.013 C 
ATOM     24  C   UNL     1      21.850  10.500  23.081  0.00  0.00    +0.007 C 
ATOM     25  C   UNL     1      21.054  11.048  20.763  0.00  0.00    +0.007 C 
ENDBRANCH   8  17
BRANCH   9  19
ATOM     19  C   UNL     1      17.622   9.546  22.081  0.00  0.00    +0.112 C 
BRANCH  19   4
ATOM      1  O   UNL     1      14.913  10.222  22.838  0.00  0.00    -0.276 OA
ATOM      4  N   UNL     1      16.447   8.755  21.887  0.00  0.00    -0.315 N 
ATOM     23  C   UNL     1      15.171   9.157  22.283  0.00  0.00    +0.214 C 
ATOM     36  H   UNL     1      16.540   7.878  21.383  0.00  0.00    +0.149 HD
BRANCH  23  16
ATOM     16  C   UNL     1      14.115   8.119  21.948  0.00  0.00    +0.103 C 
BRANCH  16   7
ATOM      7  C   UNL     1      13.363   8.440  20.650  0.00  0.00    -0.011 C 
ATOM     10  C   UNL     1      13.195   7.169  19.786  0.00  0.00    +0.008 C 
ATOM     11  C   UNL     1      14.187   9.417  19.778  0.00  0.00    +0.008 C 
ATOM     14  C   UNL     1      14.238   7.295  18.685  0.00  0.00    +0.001 C 
ATOM     15  C   UNL     1      14.245   8.784  18.393  0.00  0.00    +0.001 C 
BRANCH   7  18
ATOM     18  C   UNL     1      11.993   9.037  20.999  0.00  0.00    +0.127 C 
BRANCH  18  27
ATOM      3  O   UNL     1      10.575   8.523  19.085  0.00  0.00    -0.251 OA
ATOM     27  C   UNL     1      10.890   8.348  20.252  0.00  0.00    +0.305 C 
BRANCH  27   2
ATOM      2  O   UNL     1      10.266   7.471  21.079  0.00  0.00    -0.481 OA
ATOM     38  H   UNL     1      10.906   6.939  21.600  0.00  0.00    +0.295 HD
ENDBRANCH  27   2
ENDBRANCH  18  27
ENDBRANCH   7  18
ENDBRANCH  16   7
ENDBRANCH  23  16
ENDBRANCH  19   4
ENDBRANCH   9  19
BRANCH  13  22
ATOM     22  C   UNL     1      20.848   5.967  22.473  0.00  0.00    +0.082 C 
BRANCH  22  28
ATOM      5  N   UNL     1      22.445   4.551  21.169  0.00  0.00    -0.342 N 
ATOM      6  N   UNL     1      22.018   3.872  23.241  0.00  0.00    -0.232 NA
ATOM     28  C   UNL     1      21.763   4.785  22.330  0.00  0.00    +0.109 A 
ATOM     29  C   UNL     1      23.188   3.412  21.341  0.00  0.00    +0.066 A 
ATOM     30  C   UNL     1      22.904   3.007  22.643  0.00  0.00    +0.092 A 
ATOM     31  C   UNL     1      23.517   1.848  23.149  0.00  0.00    -0.023 A 
ATOM     32  C   UNL     1      24.058   2.722  20.497  0.00  0.00    +0.028 A 
ATOM     33  C   UNL     1      24.393   1.138  22.318  0.00  0.00    +0.005 A 
ATOM     34  C   UNL     1      24.659   1.570  21.016  0.00  0.00    +0.002 A 
ATOM     35  C   UNL     1      23.266   1.346  24.533  0.00  0.00    +0.046 C 
ATOM     37  H   UNL     1      22.409   5.116  20.330  0.00  0.00    +0.167 HD
ENDBRANCH  22  28
ENDBRANCH  13  22
TORSDOF 10
ENDMDL
MODEL 2
REMARK VINA RESULT:      -7.1     28.427     31.513
REMARK  Name = 71693202
REMARK  14 active torsions:
REMARK  status: ('A' for Active; 'I' for Inactive)
REMARK    1  A    between atoms: O_2  and  C_27
REMARK    2  A    between atoms: N_4  and  C_19
REMARK    3  A    between atoms: C_7  and  C_16
REMARK    4  A    between atoms: C_7  and  C_18
REMARK    5  A    between atoms: C_8  and  C_17
REMARK    6  A    between atoms: C_9  and  C_19
REMARK    7  A    between atoms: C_13  and  C_22
REMARK    8  A    between atoms: C_16  and  C_23
REMARK    9  A    between atoms: C_17  and  C_24
REMARK   10  A    between atoms: C_17  and  C_25
REMARK   11  A    between atoms: C_18  and  C_27
REMARK   12  A    between atoms: C_20  and  C_26
REMARK   13  A    between atoms: C_22  and  C_28
REMARK   14  A    between atoms: C_31  and  C_35
REMARK                            x       y       z     vdW  Elec       q    Type
REMARK                         _______ _______ _______ _____ _____    ______ ____
ROOT
ATOM      8  C   UNL     1      -3.600 -12.164  13.583  0.00  0.00    +0.000 C 
ATOM      9  C   UNL     1      -2.186 -11.569  13.802  0.00  0.00    +0.032 C 
ATOM     12  C   UNL     1      -3.881 -12.343  12.084  0.00  0.00    +0.012 C 
ATOM     13  C   UNL     1      -3.785 -11.014  11.310  0.00  0.00    +0.022 C 
ATOM     20  C   UNL     1      -2.537 -10.238  11.677  0.00  0.00    -0.073 C 
ATOM     21  C   UNL     1      -1.829 -10.509  12.787  0.00  0.00    -0.022 C 
ATOM     26  C   UNL     1      -2.096  -9.171  10.714  0.00  0.00    +0.039 C 
ENDROOT
BRANCH   8  17
ATOM     17  C   UNL     1      -3.772 -13.503  14.307  0.00  0.00    -0.013 C 
ATOM     24  C   UNL     1      -5.063 -14.185  13.864  0.00  0.00    +0.007 C 
ATOM     25  C   UNL     1      -2.569 -14.405  14.049  0.00  0.00    +0.007 C 
ENDBRANCH   8  17
BRANCH   9  19
ATOM     19  C   UNL     1      -2.041 -10.994  15.214  0.00  0.00    +0.112 C 
BRANCH  19   4
ATOM      1  O   UNL     1      -3.549 -11.422  17.646  0.00  0.00    -0.276 OA
ATOM      4  N   UNL     1      -3.239 -10.327  15.618  0.00  0.00    -0.315 N 
ATOM     23  C   UNL     1      -3.908 -10.593  16.812  0.00  0.00    +0.214 C 
ATOM     36  H   UNL     1      -3.590  -9.579  15.026  0.00  0.00    +0.149 HD
BRANCH  23  16
ATOM     16  C   UNL     1      -5.147  -9.733  16.977  0.00  0.00    +0.103 C 
BRANCH  16   7
ATOM      7  C   UNL     1      -6.438 -10.561  17.031  0.00  0.00    -0.011 C 
ATOM     10  C   UNL     1      -6.579 -11.437  15.765  0.00  0.00    +0.008 C 
ATOM     11  C   UNL     1      -7.675  -9.633  17.022  0.00  0.00    +0.008 C 
ATOM     14  C   UNL     1      -7.606 -10.721  14.899  0.00  0.00    +0.001 C 
ATOM     15  C   UNL     1      -8.581 -10.164  15.918  0.00  0.00    +0.001 C 
BRANCH   7  18
ATOM     18  C   UNL     1      -6.419 -11.438  18.290  0.00  0.00    +0.127 C 
BRANCH  18  27
ATOM      3  O   UNL     1      -8.351 -11.016  19.715  0.00  0.00    -0.251 OA
ATOM     27  C   UNL     1      -7.187 -10.802  19.410  0.00  0.00    +0.305 C 
BRANCH  27   2
ATOM      2  O   UNL     1      -6.386  -9.924  20.065  0.00  0.00    -0.481 OA
ATOM     38  H   UNL     1      -5.437 -10.164  19.987  0.00  0.00    +0.295 HD
ENDBRANCH  27   2
ENDBRANCH  18  27
ENDBRANCH   7  18
ENDBRANCH  16   7
ENDBRANCH  23  16
ENDBRANCH  19   4
ENDBRANCH   9  19
BRANCH  13  22
ATOM     22  C   UNL     1      -5.042 -10.162  11.518  0.00  0.00    +0.082 C 
BRANCH  22  28
ATOM      5  N   UNL     1      -5.225 -10.301   9.027  0.00  0.00    -0.342 N 
ATOM      6  N   UNL     1      -6.628  -8.895  10.025  0.00  0.00    -0.232 NA
ATOM     28  C   UNL     1      -5.656  -9.761  10.207  0.00  0.00    +0.109 A 
ATOM     29  C   UNL     1      -5.968  -9.746   8.017  0.00  0.00    +0.066 A 
ATOM     30  C   UNL     1      -6.836  -8.871   8.665  0.00  0.00    +0.092 A 
ATOM     31  C   UNL     1      -7.753  -8.126   7.905  0.00  0.00    -0.023 A 
ATOM     32  C   UNL     1      -5.955  -9.927   6.634  0.00  0.00    +0.028 A 
ATOM     33  C   UNL     1      -7.758  -8.292   6.514  0.00  0.00    +0.005 A 
ATOM     34  C   UNL     1      -6.875  -9.177   5.892  0.00  0.00    +0.002 A 
ATOM     35  C   UNL     1      -8.718  -7.168   8.523  0.00  0.00    +0.046 C 
ATOM     37  H   UNL     1      -4.491 -10.987   8.916  0.00  0.00    +0.167 HD
ENDBRANCH  22  28
ENDBRANCH  13  22
TORSDOF 10
ENDMDL
MODEL 3
REMARK VINA RESULT:      -7.0     28.669     31.724
REMARK  Name = 71693202
REMARK  14 active torsions:
REMARK  status: ('A' for Active; 'I' for Inactive)
REMARK    1  A    between atoms: O_2  and  C_27
REMARK    2  A    between atoms: N_4  and  C_19
REMARK    3  A    between atoms: C_7  and  C_16
REMARK    4  A    between atoms: C_7  and  C_18
REMARK    5  A    between atoms: C_8  and  C_17
REMARK    6  A    between atoms: C_9  and  C_19
REMARK    7  A    between atoms: C_13  and  C_22
REMARK    8  A    between atoms: C_16  and  C_23
REMARK    9  A    between atoms: C_17  and  C_24
REMARK   10  A    between atoms: C_17  and  C_25
REMARK   11  A    between atoms: C_18  and  C_27
REMARK   12  A    between atoms: C_20  and  C_26
REMARK   13  A    between atoms: C_22  and  C_28
REMARK   14  A    between atoms: C_31  and  C_35
REMARK                            x       y       z     vdW  Elec       q    Type
REMARK                         _______ _______ _______ _____ _____    ______ ____
ROOT
ATOM      8  C   UNL     1      -3.475 -12.964  12.235  0.00  0.00    +0.000 C 
ATOM      9  C   UNL     1      -2.124 -12.365  12.701  0.00  0.00    +0.032 C 
ATOM     12  C   UNL     1      -3.727 -12.636  10.756  0.00  0.00    +0.012 C 
ATOM     13  C   UNL     1      -3.748 -11.118  10.491  0.00  0.00    +0.022 C 
ATOM     20  C   UNL     1      -2.581 -10.415  11.152  0.00  0.00    -0.073 C 
ATOM     21  C   UNL     1      -1.859 -10.993  12.128  0.00  0.00    -0.022 C 
ATOM     26  C   UNL     1      -2.233  -9.048  10.633  0.00  0.00    +0.039 C 
ENDROOT
BRANCH   8  17
ATOM     17  C   UNL     1      -3.527 -14.481  12.446  0.00  0.00    -0.013 C 
ATOM     24  C   UNL     1      -4.862 -14.885  13.065  0.00  0.00    +0.007 C 
ATOM     25  C   UNL     1      -3.301 -15.209  11.125  0.00  0.00    +0.007 C 
ENDBRANCH   8  17
BRANCH   9  19
ATOM     19  C   UNL     1      -2.044 -12.305  14.229  0.00  0.00    +0.112 C 
BRANCH  19   4
ATOM      1  O   UNL     1      -2.075 -10.811  16.707  0.00  0.00    -0.276 OA
ATOM      4  N   UNL     1      -3.127 -11.541  14.766  0.00  0.00    -0.315 N 
ATOM     23  C   UNL     1      -3.060 -10.847  15.974  0.00  0.00    +0.214 C 
ATOM     36  H   UNL     1      -3.973 -11.456  14.208  0.00  0.00    +0.149 HD
BRANCH  23  16
ATOM     16  C   UNL     1      -4.357 -10.125  16.291  0.00  0.00    +0.103 C 
BRANCH  16   7
ATOM      7  C   UNL     1      -5.322 -10.981  17.122  0.00  0.00    -0.011 C 
ATOM     10  C   UNL     1      -5.138 -10.702  18.631  0.00  0.00    +0.008 C 
ATOM     11  C   UNL     1      -4.998 -12.484  16.945  0.00  0.00    +0.008 C 
ATOM     14  C   UNL     1      -4.341 -11.886  19.161  0.00  0.00    +0.001 C 
ATOM     15  C   UNL     1      -4.887 -13.050  18.355  0.00  0.00    +0.001 C 
BRANCH   7  18
ATOM     18  C   UNL     1      -6.762 -10.675  16.691  0.00  0.00    +0.127 C 
BRANCH  18  27
ATOM      3  O   UNL     1      -8.130 -11.575  18.497  0.00  0.00    -0.251 OA
ATOM     27  C   UNL     1      -7.686 -10.624  17.872  0.00  0.00    +0.305 C 
BRANCH  27   2
ATOM      2  O   UNL     1      -7.974  -9.330  18.163  0.00  0.00    -0.481 OA
ATOM     38  H   UNL     1      -7.472  -8.706  17.595  0.00  0.00    +0.295 HD
ENDBRANCH  27   2
ENDBRANCH  18  27
ENDBRANCH   7  18
ENDBRANCH  16   7
ENDBRANCH  23  16
ENDBRANCH  19   4
ENDBRANCH   9  19
BRANCH  13  22
ATOM     22  C   UNL     1      -5.081 -10.500  10.930  0.00  0.00    +0.082 C 
BRANCH  22  28
ATOM      5  N   UNL     1      -6.556  -8.727   9.962  0.00  0.00    -0.342 N 
ATOM      6  N   UNL     1      -5.758 -10.217   8.519  0.00  0.00    -0.232 NA
ATOM     28  C   UNL     1      -5.785  -9.841   9.779  0.00  0.00    +0.109 A 
ATOM     29  C   UNL     1      -7.061  -8.362   8.741  0.00  0.00    +0.066 A 
ATOM     30  C   UNL     1      -6.549  -9.308   7.857  0.00  0.00    +0.092 A 
ATOM     31  C   UNL     1      -6.878  -9.221   6.493  0.00  0.00    -0.023 A 
ATOM     32  C   UNL     1      -7.897  -7.317   8.345  0.00  0.00    +0.028 A 
ATOM     33  C   UNL     1      -7.716  -8.181   6.073  0.00  0.00    +0.005 A 
ATOM     34  C   UNL     1      -8.215  -7.246   6.984  0.00  0.00    +0.002 A 
ATOM     35  C   UNL     1      -6.370 -10.195   5.481  0.00  0.00    +0.046 C 
ATOM     37  H   UNL     1      -6.726  -8.255  10.840  0.00  0.00    +0.167 HD
ENDBRANCH  22  28
ENDBRANCH  13  22
TORSDOF 10
ENDMDL
MODEL 4
REMARK VINA RESULT:      -6.9     16.138     19.811
REMARK  Name = 71693202
REMARK  14 active torsions:
REMARK  status: ('A' for Active; 'I' for Inactive)
REMARK    1  A    between atoms: O_2  and  C_27
REMARK    2  A    between atoms: N_4  and  C_19
REMARK    3  A    between atoms: C_7  and  C_16
REMARK    4  A    between atoms: C_7  and  C_18
REMARK    5  A    between atoms: C_8  and  C_17
REMARK    6  A    between atoms: C_9  and  C_19
REMARK    7  A    between atoms: C_13  and  C_22
REMARK    8  A    between atoms: C_16  and  C_23
REMARK    9  A    between atoms: C_17  and  C_24
REMARK   10  A    between atoms: C_17  and  C_25
REMARK   11  A    between atoms: C_18  and  C_27
REMARK   12  A    between atoms: C_20  and  C_26
REMARK   13  A    between atoms: C_22  and  C_28
REMARK   14  A    between atoms: C_31  and  C_35
REMARK                            x       y       z     vdW  Elec       q    Type
REMARK                         _______ _______ _______ _____ _____    ______ ____
ROOT
ATOM      8  C   UNL     1       8.641   8.459   5.208  0.00  0.00    +0.000 C 
ATOM      9  C   UNL     1       8.389   7.833   6.603  0.00  0.00    +0.032 C 
ATOM     12  C   UNL     1       8.406   7.418   4.103  0.00  0.00    +0.012 C 
ATOM     13  C   UNL     1       9.318   6.187   4.258  0.00  0.00    +0.022 C 
ATOM     20  C   UNL     1       9.331   5.671   5.681  0.00  0.00    -0.073 C 
ATOM     21  C   UNL     1       8.899   6.415   6.715  0.00  0.00    -0.022 C 
ATOM     26  C   UNL     1       9.808   4.260   5.886  0.00  0.00    +0.039 C 
ENDROOT
BRANCH   8  17
ATOM     17  C   UNL     1       7.753   9.683   4.966  0.00  0.00    -0.013 C 
ATOM     24  C   UNL     1       8.607  10.939   4.818  0.00  0.00    +0.007 C 
ATOM     25  C   UNL     1       6.883   9.473   3.730  0.00  0.00    +0.007 C 
ENDBRANCH   8  17
BRANCH   9  19
ATOM     19  C   UNL     1       9.009   8.688   7.713  0.00  0.00    +0.112 C 
BRANCH  19   4
ATOM      1  O   UNL     1      10.743  10.996   7.520  0.00  0.00    -0.276 OA
ATOM      4  N   UNL     1      10.435   8.693   7.614  0.00  0.00    -0.315 N 
ATOM     23  C   UNL     1      11.200   9.856   7.524  0.00  0.00    +0.214 C 
ATOM     36  H   UNL     1      10.920   7.801   7.668  0.00  0.00    +0.149 HD
BRANCH  23  16
ATOM     16  C   UNL     1      12.686   9.557   7.433  0.00  0.00    +0.103 C 
BRANCH  16   7
ATOM      7  C   UNL     1      13.196   9.537   5.986  0.00  0.00    -0.011 C 
ATOM     10  C   UNL     1      14.010  10.814   5.677  0.00  0.00    +0.008 C 
ATOM     11  C   UNL     1      12.009   9.563   4.995  0.00  0.00    +0.008 C 
ATOM     14  C   UNL     1      13.075  11.694   4.861  0.00  0.00    +0.001 C 
ATOM     15  C   UNL     1      12.313  10.690   4.016  0.00  0.00    +0.001 C 
BRANCH   7  18
ATOM     18  C   UNL     1      14.060   8.286   5.777  0.00  0.00    +0.127 C 
BRANCH  18  27
ATOM      3  O   UNL     1      12.456   6.646   6.602  0.00  0.00    -0.251 OA
ATOM     27  C   UNL     1      13.573   7.140   6.614  0.00  0.00    +0.305 C 
BRANCH  27   2
ATOM      2  O   UNL     1      14.580   6.711   7.417  0.00  0.00    -0.481 OA
ATOM     38  H   UNL     1      14.265   6.511   8.325  0.00  0.00    +0.295 HD
ENDBRANCH  27   2
ENDBRANCH  18  27
ENDBRANCH   7  18
ENDBRANCH  16   7
ENDBRANCH  23  16
ENDBRANCH  19   4
ENDBRANCH   9  19
BRANCH  13  22
ATOM     22  C   UNL     1      10.741   6.489   3.772  0.00  0.00    +0.082 C 
BRANCH  22  28
ATOM      5  N   UNL     1      12.119   4.845   2.485  0.00  0.00    -0.342 N 
ATOM      6  N   UNL     1      10.434   5.776   1.375  0.00  0.00    -0.232 NA
ATOM     28  C   UNL     1      11.069   5.720   2.524  0.00  0.00    +0.109 A 
ATOM     29  C   UNL     1      12.166   4.302   1.227  0.00  0.00    +0.066 A 
ATOM     30  C   UNL     1      11.104   4.900   0.553  0.00  0.00    +0.092 A 
ATOM     31  C   UNL     1      10.864   4.556  -0.789  0.00  0.00    -0.023 A 
ATOM     32  C   UNL     1      13.019   3.369   0.638  0.00  0.00    +0.028 A 
ATOM     33  C   UNL     1      11.708   3.621  -1.400  0.00  0.00    +0.005 A 
ATOM     34  C   UNL     1      12.766   3.039  -0.698  0.00  0.00    +0.002 A 
ATOM     35  C   UNL     1       9.746   5.150  -1.582  0.00  0.00    +0.046 C 
ATOM     37  H   UNL     1      12.751   4.635   3.246  0.00  0.00    +0.167 HD
ENDBRANCH  22  28
ENDBRANCH  13  22
TORSDOF 10
ENDMDL
MODEL 5
REMARK VINA RESULT:      -6.9     28.360     31.519
REMARK  Name = 71693202
REMARK  14 active torsions:
REMARK  status: ('A' for Active; 'I' for Inactive)
REMARK    1  A    between atoms: O_2  and  C_27
REMARK    2  A    between atoms: N_4  and  C_19
REMARK    3  A    between atoms: C_7  and  C_16
REMARK    4  A    between atoms: C_7  and  C_18
REMARK    5  A    between atoms: C_8  and  C_17
REMARK    6  A    between atoms: C_9  and  C_19
REMARK    7  A    between atoms: C_13  and  C_22
REMARK    8  A    between atoms: C_16  and  C_23
REMARK    9  A    between atoms: C_17  and  C_24
REMARK   10  A    between atoms: C_17  and  C_25
REMARK   11  A    between atoms: C_18  and  C_27
REMARK   12  A    between atoms: C_20  and  C_26
REMARK   13  A    between atoms: C_22  and  C_28
REMARK   14  A    between atoms: C_31  and  C_35
REMARK                            x       y       z     vdW  Elec       q    Type
REMARK                         _______ _______ _______ _____ _____    ______ ____
ROOT
ATOM      8  C   UNL     1      -3.136 -12.466  13.499  0.00  0.00    +0.000 C 
ATOM      9  C   UNL     1      -2.034 -11.529  14.053  0.00  0.00    +0.032 C 
ATOM     12  C   UNL     1      -2.937 -12.699  11.994  0.00  0.00    +0.012 C 
ATOM     13  C   UNL     1      -2.966 -11.384  11.192  0.00  0.00    +0.022 C 
ATOM     20  C   UNL     1      -2.105 -10.315  11.832  0.00  0.00    -0.073 C 
ATOM     21  C   UNL     1      -1.687 -10.403  13.106  0.00  0.00    -0.022 C 
ATOM     26  C   UNL     1      -1.696  -9.162  10.957  0.00  0.00    +0.039 C 
ENDROOT
BRANCH   8  17
ATOM     17  C   UNL     1      -3.160 -13.811  14.233  0.00  0.00    -0.013 C 
ATOM     24  C   UNL     1      -4.366 -14.635  13.793  0.00  0.00    +0.007 C 
ATOM     25  C   UNL     1      -1.864 -14.575  13.985  0.00  0.00    +0.007 C 
ENDBRANCH   8  17
BRANCH   9  19
ATOM     19  C   UNL     1      -2.434 -10.948  15.413  0.00  0.00    +0.112 C 
BRANCH  19   4
ATOM      1  O   UNL     1      -4.472 -10.930  17.466  0.00  0.00    -0.276 OA
ATOM      4  N   UNL     1      -3.725 -10.337  15.345  0.00  0.00    -0.315 N 
ATOM     23  C   UNL     1      -4.654 -10.375  16.385  0.00  0.00    +0.214 C 
ATOM     36  H   UNL     1      -3.955  -9.800  14.514  0.00  0.00    +0.149 HD
BRANCH  23  16
ATOM     16  C   UNL     1      -5.935  -9.642  16.033  0.00  0.00    +0.103 C 
BRANCH  16   7
ATOM      7  C   UNL     1      -7.085 -10.596  15.684  0.00  0.00    -0.011 C 
ATOM     10  C   UNL     1      -6.540 -11.911  15.081  0.00  0.00    +0.008 C 
ATOM     11  C   UNL     1      -7.978  -9.982  14.579  0.00  0.00    +0.008 C 
ATOM     14  C   UNL     1      -6.780 -11.791  13.583  0.00  0.00    +0.001 C 
ATOM     15  C   UNL     1      -8.107 -11.059  13.509  0.00  0.00    +0.001 C 
BRANCH   7  18
ATOM     18  C   UNL     1      -7.900 -10.884  16.952  0.00  0.00    +0.127 C 
BRANCH  18  27
ATOM      3  O   UNL     1      -8.782  -8.659  17.413  0.00  0.00    -0.251 OA
ATOM     27  C   UNL     1      -8.128  -9.635  17.750  0.00  0.00    +0.305 C 
BRANCH  27   2
ATOM      2  O   UNL     1      -7.486  -9.738  18.941  0.00  0.00    -0.481 OA
ATOM     38  H   UNL     1      -6.797  -9.047  19.048  0.00  0.00    +0.295 HD
ENDBRANCH  27   2
ENDBRANCH  18  27
ENDBRANCH   7  18
ENDBRANCH  16   7
ENDBRANCH  23  16
ENDBRANCH  19   4
ENDBRANCH   9  19
BRANCH  13  22
ATOM     22  C   UNL     1      -4.404 -10.887  10.999  0.00  0.00    +0.082 C 
BRANCH  22  28
ATOM      5  N   UNL     1      -5.729  -9.976   9.082  0.00  0.00    -0.342 N 
ATOM      6  N   UNL     1      -4.276 -11.581   8.580  0.00  0.00    -0.232 NA
ATOM     28  C   UNL     1      -4.778 -10.843   9.545  0.00  0.00    +0.109 A 
ATOM     29  C   UNL     1      -5.850 -10.169   7.730  0.00  0.00    +0.066 A 
ATOM     30  C   UNL     1      -4.933 -11.176   7.441  0.00  0.00    +0.092 A 
ATOM     31  C   UNL     1      -4.799 -11.622   6.115  0.00  0.00    -0.023 A 
ATOM     32  C   UNL     1      -6.657  -9.568   6.764  0.00  0.00    +0.028 A 
ATOM     33  C   UNL     1      -5.600 -11.033   5.129  0.00  0.00    +0.005 A 
ATOM     34  C   UNL     1      -6.511 -10.024   5.449  0.00  0.00    +0.002 A 
ATOM     35  C   UNL     1      -3.839 -12.697   5.722  0.00  0.00    +0.046 C 
ATOM     37  H   UNL     1      -6.252  -9.311   9.636  0.00  0.00    +0.167 HD
ENDBRANCH  22  28
ENDBRANCH  13  22
TORSDOF 10
ENDMDL
MODEL 6
REMARK VINA RESULT:      -6.9     29.854     32.438
REMARK  Name = 71693202
REMARK  14 active torsions:
REMARK  status: ('A' for Active; 'I' for Inactive)
REMARK    1  A    between atoms: O_2  and  C_27
REMARK    2  A    between atoms: N_4  and  C_19
REMARK    3  A    between atoms: C_7  and  C_16
REMARK    4  A    between atoms: C_7  and  C_18
REMARK    5  A    between atoms: C_8  and  C_17
REMARK    6  A    between atoms: C_9  and  C_19
REMARK    7  A    between atoms: C_13  and  C_22
REMARK    8  A    between atoms: C_16  and  C_23
REMARK    9  A    between atoms: C_17  and  C_24
REMARK   10  A    between atoms: C_17  and  C_25
REMARK   11  A    between atoms: C_18  and  C_27
REMARK   12  A    between atoms: C_20  and  C_26
REMARK   13  A    between atoms: C_22  and  C_28
REMARK   14  A    between atoms: C_31  and  C_35
REMARK                            x       y       z     vdW  Elec       q    Type
REMARK                         _______ _______ _______ _____ _____    ______ ____
ROOT
ATOM      8  C   UNL     1     -10.088  -9.668  16.223  0.00  0.00    +0.000 C 
ATOM      9  C   UNL     1     -10.672 -11.098  16.349  0.00  0.00    +0.032 C 
ATOM     12  C   UNL     1      -9.728  -9.361  14.762  0.00  0.00    +0.012 C 
ATOM     13  C   UNL     1      -8.702 -10.359  14.193  0.00  0.00    +0.022 C 
ATOM     20  C   UNL     1      -9.073 -11.792  14.512  0.00  0.00    -0.073 C 
ATOM     21  C   UNL     1      -9.965 -12.103  15.469  0.00  0.00    -0.022 C 
ATOM     26  C   UNL     1      -8.429 -12.861  13.673  0.00  0.00    +0.039 C 
ENDROOT
BRANCH   8  17
ATOM     17  C   UNL     1     -11.061  -8.609  16.752  0.00  0.00    -0.013 C 
ATOM     24  C   UNL     1     -10.377  -7.247  16.822  0.00  0.00    +0.007 C 
ATOM     25  C   UNL     1     -12.305  -8.544  15.872  0.00  0.00    +0.007 C 
ENDBRANCH   8  17
BRANCH   9  19
ATOM     19  C   UNL     1     -10.642 -11.582  17.802  0.00  0.00    +0.112 C 
BRANCH  19   4
ATOM      1  O   UNL     1      -8.711 -10.911  19.850  0.00  0.00    -0.276 OA
ATOM      4  N   UNL     1      -9.415 -12.257  18.088  0.00  0.00    -0.315 N 
ATOM     23  C   UNL     1      -8.535 -11.867  19.098  0.00  0.00    +0.214 C 
ATOM     36  H   UNL     1      -9.200 -13.100  17.562  0.00  0.00    +0.149 HD
BRANCH  23  16
ATOM     16  C   UNL     1      -7.316 -12.768  19.174  0.00  0.00    +0.103 C 
BRANCH  16   7
ATOM      7  C   UNL     1      -6.316 -12.505  18.040  0.00  0.00    -0.011 C 
ATOM     10  C   UNL     1      -4.875 -12.821  18.498  0.00  0.00    +0.008 C 
ATOM     11  C   UNL     1      -6.304 -11.002  17.671  0.00  0.00    +0.008 C 
ATOM     14  C   UNL     1      -4.237 -11.466  18.771  0.00  0.00    +0.001 C 
ATOM     15  C   UNL     1      -4.839 -10.585  17.693  0.00  0.00    +0.001 C 
BRANCH   7  18
ATOM     18  C   UNL     1      -6.695 -13.365  16.828  0.00  0.00    +0.127 C 
BRANCH  18  27
ATOM      3  O   UNL     1      -4.845 -14.871  16.327  0.00  0.00    -0.251 OA
ATOM     27  C   UNL     1      -5.477 -13.850  16.100  0.00  0.00    +0.305 C 
BRANCH  27   2
ATOM      2  O   UNL     1      -5.159 -12.970  15.117  0.00  0.00    -0.481 OA
ATOM     38  H   UNL     1      -5.928 -12.419  14.855  0.00  0.00    +0.295 HD
ENDBRANCH  27   2
ENDBRANCH  18  27
ENDBRANCH   7  18
ENDBRANCH  16   7
ENDBRANCH  23  16
ENDBRANCH  19   4
ENDBRANCH   9  19
BRANCH  13  22
ATOM     22  C   UNL     1      -7.286 -10.037  14.685  0.00  0.00    +0.082 C 
BRANCH  22  28
ATOM      5  N   UNL     1      -6.610  -9.025  12.500  0.00  0.00    -0.342 N 
ATOM      6  N   UNL     1      -5.173 -10.472  13.383  0.00  0.00    -0.232 NA
ATOM     28  C   UNL     1      -6.331  -9.870  13.538  0.00  0.00    +0.109 A 
ATOM     29  C   UNL     1      -5.562  -9.086  11.617  0.00  0.00    +0.066 A 
ATOM     30  C   UNL     1      -4.679  -9.997  12.190  0.00  0.00    +0.092 A 
ATOM     31  C   UNL     1      -3.476 -10.296  11.528  0.00  0.00    -0.023 A 
ATOM     32  C   UNL     1      -5.319  -8.444  10.403  0.00  0.00    +0.028 A 
ATOM     33  C   UNL     1      -3.211  -9.663  10.307  0.00  0.00    +0.005 A 
ATOM     34  C   UNL     1      -4.117  -8.754   9.756  0.00  0.00    +0.002 A 
ATOM     35  C   UNL     1      -2.476 -11.261  12.076  0.00  0.00    +0.046 C 
ATOM     37  H   UNL     1      -7.439  -8.454  12.399  0.00  0.00    +0.167 HD
ENDBRANCH  22  28
ENDBRANCH  13  22
TORSDOF 10
ENDMDL
MODEL 7
REMARK VINA RESULT:      -6.9     28.510     31.656
REMARK  Name = 71693202
REMARK  14 active torsions:
REMARK  status: ('A' for Active; 'I' for Inactive)
REMARK    1  A    between atoms: O_2  and  C_27
REMARK    2  A    between atoms: N_4  and  C_19
REMARK    3  A    between atoms: C_7  and  C_16
REMARK    4  A    between atoms: C_7  and  C_18
REMARK    5  A    between atoms: C_8  and  C_17
REMARK    6  A    between atoms: C_9  and  C_19
REMARK    7  A    between atoms: C_13  and  C_22
REMARK    8  A    between atoms: C_16  and  C_23
REMARK    9  A    between atoms: C_17  and  C_24
REMARK   10  A    between atoms: C_17  and  C_25
REMARK   11  A    between atoms: C_18  and  C_27
REMARK   12  A    between atoms: C_20  and  C_26
REMARK   13  A    between atoms: C_22  and  C_28
REMARK   14  A    between atoms: C_31  and  C_35
REMARK                            x       y       z     vdW  Elec       q    Type
REMARK                         _______ _______ _______ _____ _____    ______ ____
ROOT
ATOM      8  C   UNL     1      -2.839 -12.612  13.488  0.00  0.00    +0.000 C 
ATOM      9  C   UNL     1      -1.870 -11.451  13.823  0.00  0.00    +0.032 C 
ATOM     12  C   UNL     1      -2.821 -12.908  11.981  0.00  0.00    +0.012 C 
ATOM     13  C   UNL     1      -3.221 -11.681  11.141  0.00  0.00    +0.022 C 
ATOM     20  C   UNL     1      -2.498 -10.429  11.593  0.00  0.00    -0.073 C 
ATOM     21  C   UNL     1      -1.889 -10.349  12.789  0.00  0.00    -0.022 C 
ATOM     26  C   UNL     1      -2.452  -9.285  10.619  0.00  0.00    +0.039 C 
ENDROOT
BRANCH   8  17
ATOM     17  C   UNL     1      -2.496 -13.883  14.271  0.00  0.00    -0.013 C 
ATOM     24  C   UNL     1      -3.741 -14.745  14.458  0.00  0.00    +0.007 C 
ATOM     25  C   UNL     1      -1.398 -14.666  13.559  0.00  0.00    +0.007 C 
ENDBRANCH   8  17
BRANCH   9  19
ATOM     19  C   UNL     1      -2.172 -10.859  15.204  0.00  0.00    +0.112 C 
BRANCH  19   4
ATOM      1  O   UNL     1      -4.279 -11.356  17.124  0.00  0.00    -0.276 OA
ATOM      4  N   UNL     1      -3.474 -10.270  15.231  0.00  0.00    -0.315 N 
ATOM     23  C   UNL     1      -4.436 -10.565  16.197  0.00  0.00    +0.214 C 
ATOM     36  H   UNL     1      -3.688  -9.555  14.541  0.00  0.00    +0.149 HD
BRANCH  23  16
ATOM     16  C   UNL     1      -5.722  -9.789  15.978  0.00  0.00    +0.103 C 
BRANCH  16   7
ATOM      7  C   UNL     1      -6.836 -10.652  15.370  0.00  0.00    -0.011 C 
ATOM     10  C   UNL     1      -7.619 -11.393  16.477  0.00  0.00    +0.008 C 
ATOM     11  C   UNL     1      -6.231 -11.767  14.484  0.00  0.00    +0.008 C 
ATOM     14  C   UNL     1      -7.105 -12.825  16.438  0.00  0.00    +0.001 C 
ATOM     15  C   UNL     1      -6.877 -13.064  14.957  0.00  0.00    +0.001 C 
BRANCH   7  18
ATOM     18  C   UNL     1      -7.777  -9.754  14.555  0.00  0.00    +0.127 C 
BRANCH  18  27
ATOM      3  O   UNL     1      -7.941 -10.620  12.283  0.00  0.00    -0.251 OA
ATOM     27  C   UNL     1      -7.471  -9.831  13.089  0.00  0.00    +0.305 C 
BRANCH  27   2
ATOM      2  O   UNL     1      -6.570  -8.869  12.766  0.00  0.00    -0.481 OA
ATOM     38  H   UNL     1      -6.610  -8.107  13.383  0.00  0.00    +0.295 HD
ENDBRANCH  27   2
ENDBRANCH  18  27
ENDBRANCH   7  18
ENDBRANCH  16   7
ENDBRANCH  23  16
ENDBRANCH  19   4
ENDBRANCH   9  19
BRANCH  13  22
ATOM     22  C   UNL     1      -4.740 -11.472  11.155  0.00  0.00    +0.082 C 
BRANCH  22  28
ATOM      5  N   UNL     1      -6.203 -10.019   9.740  0.00  0.00    -0.342 N 
ATOM      6  N   UNL     1      -4.843 -11.389   8.639  0.00  0.00    -0.232 NA
ATOM     28  C   UNL     1      -5.239 -10.984   9.825  0.00  0.00    +0.109 A 
ATOM     29  C   UNL     1      -6.447  -9.787   8.411  0.00  0.00    +0.066 A 
ATOM     30  C   UNL     1      -5.586 -10.654   7.744  0.00  0.00    +0.092 A 
ATOM     31  C   UNL     1      -5.581 -10.670   6.339  0.00  0.00    -0.023 A 
ATOM     32  C   UNL     1      -7.320  -8.919   7.754  0.00  0.00    +0.028 A 
ATOM     33  C   UNL     1      -6.450  -9.807   5.658  0.00  0.00    +0.005 A 
ATOM     34  C   UNL     1      -7.302  -8.948   6.355  0.00  0.00    +0.002 A 
ATOM     35  C   UNL     1      -4.688 -11.570   5.549  0.00  0.00    +0.046 C 
ATOM     37  H   UNL     1      -6.658  -9.557  10.516  0.00  0.00    +0.167 HD
ENDBRANCH  22  28
ENDBRANCH  13  22
TORSDOF 10
ENDMDL
MODEL 8
REMARK VINA RESULT:      -6.6     16.882     20.409
REMARK  Name = 71693202
REMARK  14 active torsions:
REMARK  status: ('A' for Active; 'I' for Inactive)
REMARK    1  A    between atoms: O_2  and  C_27
REMARK    2  A    between atoms: N_4  and  C_19
REMARK    3  A    between atoms: C_7  and  C_16
REMARK    4  A    between atoms: C_7  and  C_18
REMARK    5  A    between atoms: C_8  and  C_17
REMARK    6  A    between atoms: C_9  and  C_19
REMARK    7  A    between atoms: C_13  and  C_22
REMARK    8  A    between atoms: C_16  and  C_23
REMARK    9  A    between atoms: C_17  and  C_24
REMARK   10  A    between atoms: C_17  and  C_25
REMARK   11  A    between atoms: C_18  and  C_27
REMARK   12  A    between atoms: C_20  and  C_26
REMARK   13  A    between atoms: C_22  and  C_28
REMARK   14  A    between atoms: C_31  and  C_35
REMARK                            x       y       z     vdW  Elec       q    Type
REMARK                         _______ _______ _______ _____ _____    ______ ____
ROOT
ATOM      8  C   UNL     1      14.396   8.291   2.101  0.00  0.00    +0.000 C 
ATOM      9  C   UNL     1      15.903   8.542   1.840  0.00  0.00    +0.032 C 
ATOM     12  C   UNL     1      13.948   9.003   3.386  0.00  0.00    +0.012 C 
ATOM     13  C   UNL     1      14.742   8.534   4.620  0.00  0.00    +0.022 C 
ATOM     20  C   UNL     1      16.232   8.498   4.350  0.00  0.00    -0.073 C 
ATOM     21  C   UNL     1      16.733   8.516   3.102  0.00  0.00    -0.022 C 
ATOM     26  C   UNL     1      17.137   8.488   5.551  0.00  0.00    +0.039 C 
ENDROOT
BRANCH   8  17
ATOM     17  C   UNL     1      13.531   8.751   0.924  0.00  0.00    -0.013 C 
ATOM     24  C   UNL     1      12.076   8.896   1.358  0.00  0.00    +0.007 C 
ATOM     25  C   UNL     1      14.060  10.065   0.357  0.00  0.00    +0.007 C 
ENDBRANCH   8  17
BRANCH   9  19
ATOM     19  C   UNL     1      16.466   7.530   0.838  0.00  0.00    +0.112 C 
BRANCH  19   4
ATOM      1  O   UNL     1      15.403   5.668  -1.106  0.00  0.00    -0.276 OA
ATOM      4  N   UNL     1      15.945   6.222   1.087  0.00  0.00    -0.315 N 
ATOM     23  C   UNL     1      15.448   5.384   0.089  0.00  0.00    +0.214 C 
ATOM     36  H   UNL     1      15.990   5.864   2.037  0.00  0.00    +0.149 HD
BRANCH  23  16
ATOM     16  C   UNL     1      14.964   4.057   0.645  0.00  0.00    +0.103 C 
BRANCH  16   7
ATOM      7  C   UNL     1      13.440   3.903   0.561  0.00  0.00    -0.011 C 
ATOM     10  C   UNL     1      12.741   5.269   0.748  0.00  0.00    +0.008 C 
ATOM     11  C   UNL     1      12.923   3.021   1.722  0.00  0.00    +0.008 C 
ATOM     14  C   UNL     1      12.214   5.254   2.176  0.00  0.00    +0.001 C 
ATOM     15  C   UNL     1      11.791   3.810   2.367  0.00  0.00    +0.001 C 
BRANCH   7  18
ATOM     18  C   UNL     1      13.072   3.294  -0.798  0.00  0.00    +0.127 C 
BRANCH  18  27
ATOM      3  O   UNL     1      12.187   5.048  -2.241  0.00  0.00    -0.251 OA
ATOM     27  C   UNL     1      12.013   4.100  -1.490  0.00  0.00    +0.305 C 
BRANCH  27   2
ATOM      2  O   UNL     1      10.789   3.616  -1.157  0.00  0.00    -0.481 OA
ATOM     38  H   UNL     1      10.276   4.256  -0.618  0.00  0.00    +0.295 HD
ENDBRANCH  27   2
ENDBRANCH  18  27
ENDBRANCH   7  18
ENDBRANCH  16   7
ENDBRANCH  23  16
ENDBRANCH  19   4
ENDBRANCH   9  19
BRANCH  13  22
ATOM     22  C   UNL     1      14.241   7.172   5.114  0.00  0.00    +0.082 C 
BRANCH  22  28
ATOM      5  N   UNL     1      12.001   6.276   5.774  0.00  0.00    -0.342 N 
ATOM      6  N   UNL     1      12.475   8.326   6.491  0.00  0.00    -0.232 NA
ATOM     28  C   UNL     1      12.914   7.293   5.805  0.00  0.00    +0.109 A 
ATOM     29  C   UNL     1      10.900   6.679   6.486  0.00  0.00    +0.066 A 
ATOM     30  C   UNL     1      11.221   7.961   6.922  0.00  0.00    +0.092 A 
ATOM     31  C   UNL     1      10.289   8.674   7.697  0.00  0.00    -0.023 A 
ATOM     32  C   UNL     1       9.689   6.051   6.776  0.00  0.00    +0.028 A 
ATOM     33  C   UNL     1       9.066   8.064   8.000  0.00  0.00    +0.005 A 
ATOM     34  C   UNL     1       8.773   6.775   7.548  0.00  0.00    +0.002 A 
ATOM     35  C   UNL     1      10.556  10.054   8.204  0.00  0.00    +0.046 C 
ATOM     37  H   UNL     1      12.114   5.385   5.310  0.00  0.00    +0.167 HD
ENDBRANCH  22  28
ENDBRANCH  13  22
TORSDOF 10
ENDMDL
MODEL 9
REMARK VINA RESULT:      -6.5     29.455     32.405
REMARK  Name = 71693202
REMARK  14 active torsions:
REMARK  status: ('A' for Active; 'I' for Inactive)
REMARK    1  A    between atoms: O_2  and  C_27
REMARK    2  A    between atoms: N_4  and  C_19
REMARK    3  A    between atoms: C_7  and  C_16
REMARK    4  A    between atoms: C_7  and  C_18
REMARK    5  A    between atoms: C_8  and  C_17
REMARK    6  A    between atoms: C_9  and  C_19
REMARK    7  A    between atoms: C_13  and  C_22
REMARK    8  A    between atoms: C_16  and  C_23
REMARK    9  A    between atoms: C_17  and  C_24
REMARK   10  A    between atoms: C_17  and  C_25
REMARK   11  A    between atoms: C_18  and  C_27
REMARK   12  A    between atoms: C_20  and  C_26
REMARK   13  A    between atoms: C_22  and  C_28
REMARK   14  A    between atoms: C_31  and  C_35
REMARK                            x       y       z     vdW  Elec       q    Type
REMARK                         _______ _______ _______ _____ _____    ______ ____
ROOT
ATOM      8  C   UNL     1      -8.256 -12.640  16.844  0.00  0.00    +0.000 C 
ATOM      9  C   UNL     1      -7.921 -12.866  18.340  0.00  0.00    +0.032 C 
ATOM     12  C   UNL     1      -7.002 -12.831  15.978  0.00  0.00    +0.012 C 
ATOM     13  C   UNL     1      -5.868 -11.867  16.376  0.00  0.00    +0.022 C 
ATOM     20  C   UNL     1      -5.657 -11.833  17.876  0.00  0.00    -0.073 C 
ATOM     21  C   UNL     1      -6.580 -12.296  18.737  0.00  0.00    -0.022 C 
ATOM     26  C   UNL     1      -4.340 -11.296  18.362  0.00  0.00    +0.039 C 
ENDROOT
BRANCH   8  17
ATOM     17  C   UNL     1      -9.366 -13.580  16.362  0.00  0.00    -0.013 C 
ATOM     24  C   UNL     1      -9.719 -13.284  14.907  0.00  0.00    +0.007 C 
ATOM     25  C   UNL     1      -8.942 -15.035  16.531  0.00  0.00    +0.007 C 
ENDBRANCH   8  17
BRANCH   9  19
ATOM     19  C   UNL     1      -9.012 -12.283  19.245  0.00  0.00    +0.112 C 
BRANCH  19   4
ATOM      1  O   UNL     1     -11.499 -11.144  18.302  0.00  0.00    -0.276 OA
ATOM      4  N   UNL     1      -9.267 -10.915  18.916  0.00  0.00    -0.315 N 
ATOM     23  C   UNL     1     -10.501 -10.446  18.466  0.00  0.00    +0.214 C 
ATOM     36  H   UNL     1      -8.524 -10.241  19.073  0.00  0.00    +0.149 HD
BRANCH  23  16
ATOM     16  C   UNL     1     -10.481  -8.952  18.198  0.00  0.00    +0.103 C 
BRANCH  16   7
ATOM      7  C   UNL     1     -10.843  -8.608  16.747  0.00  0.00    -0.011 C 
ATOM     10  C   UNL     1     -10.247  -7.240  16.345  0.00  0.00    +0.008 C 
ATOM     11  C   UNL     1     -12.374  -8.443  16.599  0.00  0.00    +0.008 C 
ATOM     14  C   UNL     1     -11.415  -6.266  16.395  0.00  0.00    +0.001 C 
ATOM     15  C   UNL     1     -12.578  -7.105  15.899  0.00  0.00    +0.001 C 
BRANCH   7  18
ATOM     18  C   UNL     1     -10.318  -9.715  15.824  0.00  0.00    +0.127 C 
BRANCH  18  27
ATOM      3  O   UNL     1     -10.963  -9.054  13.568  0.00  0.00    -0.251 OA
ATOM     27  C   UNL     1     -10.109  -9.208  14.427  0.00  0.00    +0.305 C 
BRANCH  27   2
ATOM      2  O   UNL     1      -8.793  -8.933  14.241  0.00  0.00    -0.481 OA
ATOM     38  H   UNL     1      -8.235  -9.310  14.955  0.00  0.00    +0.295 HD
ENDBRANCH  27   2
ENDBRANCH  18  27
ENDBRANCH   7  18
ENDBRANCH  16   7
ENDBRANCH  23  16
ENDBRANCH  19   4
ENDBRANCH   9  19
BRANCH  13  22
ATOM     22  C   UNL     1      -6.122 -10.458  15.827  0.00  0.00    +0.082 C 
BRANCH  22  28
ATOM      5  N   UNL     1      -6.084  -9.549  13.496  0.00  0.00    -0.342 N 
ATOM      6  N   UNL     1      -4.303 -10.732  14.104  0.00  0.00    -0.232 NA
ATOM     28  C   UNL     1      -5.472 -10.267  14.486  0.00  0.00    +0.109 A 
ATOM     29  C   UNL     1      -5.255  -9.552  12.404  0.00  0.00    +0.066 A 
ATOM     30  C   UNL     1      -4.151 -10.297  12.808  0.00  0.00    +0.092 A 
ATOM     31  C   UNL     1      -3.092 -10.497  11.907  0.00  0.00    -0.023 A 
ATOM     32  C   UNL     1      -5.373  -8.984  11.135  0.00  0.00    +0.028 A 
ATOM     33  C   UNL     1      -3.188  -9.936  10.627  0.00  0.00    +0.005 A 
ATOM     34  C   UNL     1      -4.309  -9.193  10.250  0.00  0.00    +0.002 A 
ATOM     35  C   UNL     1      -1.872 -11.283  12.263  0.00  0.00    +0.046 C 
ATOM     37  H   UNL     1      -6.986  -9.096  13.556  0.00  0.00    +0.167 HD
ENDBRANCH  22  28
ENDBRANCH  13  22
TORSDOF 10
ENDMDL
MODEL 10
REMARK VINA RESULT:      -6.5     16.094     20.051
REMARK  Name = 71693202
REMARK  14 active torsions:
REMARK  status: ('A' for Active; 'I' for Inactive)
REMARK    1  A    between atoms: O_2  and  C_27
REMARK    2  A    between atoms: N_4  and  C_19
REMARK    3  A    between atoms: C_7  and  C_16
REMARK    4  A    between atoms: C_7  and  C_18
REMARK    5  A    between atoms: C_8  and  C_17
REMARK    6  A    between atoms: C_9  and  C_19
REMARK    7  A    between atoms: C_13  and  C_22
REMARK    8  A    between atoms: C_16  and  C_23
REMARK    9  A    between atoms: C_17  and  C_24
REMARK   10  A    between atoms: C_17  and  C_25
REMARK   11  A    between atoms: C_18  and  C_27
REMARK   12  A    between atoms: C_20  and  C_26
REMARK   13  A    between atoms: C_22  and  C_28
REMARK   14  A    between atoms: C_31  and  C_35
REMARK                            x       y       z     vdW  Elec       q    Type
REMARK                         _______ _______ _______ _____ _____    ______ ____
ROOT
ATOM      8  C   UNL     1      11.187   8.959   3.774  0.00  0.00    +0.000 C 
ATOM      9  C   UNL     1      10.190  10.064   4.201  0.00  0.00    +0.032 C 
ATOM     12  C   UNL     1      11.122   8.734   2.256  0.00  0.00    +0.012 C 
ATOM     13  C   UNL     1       9.712   8.327   1.787  0.00  0.00    +0.022 C 
ATOM     20  C   UNL     1       8.641   9.215   2.387  0.00  0.00    -0.073 C 
ATOM     21  C   UNL     1       8.877   9.994   3.457  0.00  0.00    -0.022 C 
ATOM     26  C   UNL     1       7.304   9.221   1.699  0.00  0.00    +0.039 C 
ENDROOT
BRANCH   8  17
ATOM     17  C   UNL     1      12.623   9.298   4.187  0.00  0.00    -0.013 C 
ATOM     24  C   UNL     1      13.593   8.249   3.650  0.00  0.00    +0.007 C 
ATOM     25  C   UNL     1      13.003  10.690   3.693  0.00  0.00    +0.007 C 
ENDBRANCH   8  17
BRANCH   9  19
ATOM     19  C   UNL     1       9.925  10.017   5.709  0.00  0.00    +0.112 C 
BRANCH  19   4
ATOM      1  O   UNL     1      10.429   8.450   8.089  0.00  0.00    -0.276 OA
ATOM      4  N   UNL     1       9.306   8.783   6.079  0.00  0.00    -0.315 N 
ATOM     23  C   UNL     1       9.608   8.087   7.250  0.00  0.00    +0.214 C 
ATOM     36  H   UNL     1       8.568   8.422   5.482  0.00  0.00    +0.149 HD
BRANCH  23  16
ATOM     16  C   UNL     1       8.797   6.811   7.381  0.00  0.00    +0.103 C 
BRANCH  16   7
ATOM      7  C   UNL     1       9.592   5.562   6.978  0.00  0.00    -0.011 C 
ATOM     10  C   UNL     1      11.087   5.902   6.788  0.00  0.00    +0.008 C 
ATOM     11  C   UNL     1       9.116   5.042   5.600  0.00  0.00    +0.008 C 
ATOM     14  C   UNL     1      11.291   5.970   5.281  0.00  0.00    +0.001 C 
ATOM     15  C   UNL     1      10.379   4.874   4.765  0.00  0.00    +0.001 C 
BRANCH   7  18
ATOM     18  C   UNL     1       9.419   4.487   8.059  0.00  0.00    +0.127 C 
BRANCH  18  27
ATOM      3  O   UNL     1      10.812   5.453   9.810  0.00  0.00    -0.251 OA
ATOM     27  C   UNL     1       9.735   5.028   9.422  0.00  0.00    +0.305 C 
BRANCH  27   2
ATOM      2  O   UNL     1       8.620   4.981  10.195  0.00  0.00    -0.481 OA
ATOM     38  H   UNL     1       8.200   4.094  10.178  0.00  0.00    +0.295 HD
ENDBRANCH  27   2
ENDBRANCH  18  27
ENDBRANCH   7  18
ENDBRANCH  16   7
ENDBRANCH  23  16
ENDBRANCH  19   4
ENDBRANCH   9  19
BRANCH  13  22
ATOM     22  C   UNL     1       9.434   6.851   2.091  0.00  0.00    +0.082 C 
BRANCH  22  28
ATOM      5  N   UNL     1       9.944   5.655  -0.046  0.00  0.00    -0.342 N 
ATOM      6  N   UNL     1      11.400   5.352   1.605  0.00  0.00    -0.232 NA
ATOM     28  C   UNL     1      10.285   5.947   1.245  0.00  0.00    +0.109 A 
ATOM     29  C   UNL     1      10.903   4.815  -0.553  0.00  0.00    +0.066 A 
ATOM     30  C   UNL     1      11.800   4.641   0.497  0.00  0.00    +0.092 A 
ATOM     31  C   UNL     1      12.924   3.820   0.308  0.00  0.00    -0.023 A 
ATOM     32  C   UNL     1      11.057   4.212  -1.801  0.00  0.00    +0.028 A 
ATOM     33  C   UNL     1      13.100   3.203  -0.937  0.00  0.00    +0.005 A 
ATOM     34  C   UNL     1      12.182   3.397  -1.972  0.00  0.00    +0.002 A 
ATOM     35  C   UNL     1      13.934   3.581   1.383  0.00  0.00    +0.046 C 
ATOM     37  H   UNL     1       9.131   5.996  -0.542  0.00  0.00    +0.167 HD
ENDBRANCH  22  28
ENDBRANCH  13  22
TORSDOF 10
ENDMDL
