MODEL 1
REMARK VINA RESULT:      -7.0      0.000      0.000
REMARK  Name = 51138105
REMARK  10 active torsions:
REMARK  status: ('A' for Active; 'I' for Inactive)
REMARK    1  A    between atoms: N_4  and  C_8
REMARK    2  A    between atoms: N_5  and  C_25
REMARK    3  A    between atoms: C_7  and  C_18
REMARK    4  A    between atoms: C_9  and  C_19
REMARK    5  A    between atoms: C_18  and  C_21
REMARK    6  A    between atoms: C_21  and  C_27
REMARK    7  A    between atoms: C_21  and  C_28
REMARK    8  A    between atoms: C_25  and  C_29
REMARK    9  A    between atoms: C_30  and  C_32
REMARK   10  A    between atoms: C_31  and  C_33
REMARK                            x       y       z     vdW  Elec       q    Type
REMARK                         _______ _______ _______ _____ _____    ______ ____
ROOT
ATOM      3  N   UNL     1      15.437   8.685  21.235  0.00  0.00    -0.299 NA
ATOM      5  N   UNL     1      20.243   7.137  21.136  0.00  0.00    -0.342 N 
ATOM      7  C   UNL     1      16.250   9.907  21.300  0.00  0.00    +0.085 C 
ATOM      9  C   UNL     1      15.709   7.835  20.085  0.00  0.00    +0.145 C 
ATOM     12  C   UNL     1      16.672   6.704  20.439  0.00  0.00    +0.065 C 
ATOM     13  C   UNL     1      17.758   9.699  21.470  0.00  0.00    -0.021 A 
ATOM     14  C   UNL     1      18.449   8.476  21.232  0.00  0.00    +0.008 A 
ATOM     15  C   UNL     1      18.046   7.168  20.793  0.00  0.00    -0.020 A 
ATOM     20  C   UNL     1      19.837   8.421  21.412  0.00  0.00    +0.050 A 
ATOM     22  C   UNL     1      19.176   6.377  20.758  0.00  0.00    +0.091 A 
ATOM     23  C   UNL     1      18.563  10.814  21.815  0.00  0.00    +0.006 A 
ATOM     24  C   UNL     1      20.605   9.521  21.798  0.00  0.00    +0.026 A 
ATOM     26  C   UNL     1      19.943  10.727  21.984  0.00  0.00    +0.002 A 
ATOM     34  H   UNL     1      15.500   8.159  22.106  0.00  0.00    +0.123 HD
ENDROOT
BRANCH   9  19
ATOM      1  O   UNL     1      14.270   6.436  18.794  0.00  0.00    -0.274 OA
ATOM      4  N   UNL     1      13.350   7.752  20.479  0.00  0.00    -0.311 N 
ATOM     19  C   UNL     1      14.382   7.250  19.706  0.00  0.00    +0.231 C 
ATOM     35  H   UNL     1      13.567   8.397  21.234  0.00  0.00    +0.149 HD
BRANCH   4   8
ATOM      8  C   UNL     1      11.971   7.366  20.300  0.00  0.00    +0.073 C 
ATOM     10  C   UNL     1      11.368   6.799  21.580  0.00  0.00    +0.022 C 
ATOM     11  C   UNL     1      11.083   8.571  20.014  0.00  0.00    +0.022 C 
ATOM     16  C   UNL     1      10.935   8.021  22.387  0.00  0.00    +0.002 C 
ATOM     17  C   UNL     1      10.793   9.169  21.387  0.00  0.00    +0.002 C 
ENDBRANCH   4   8
ENDBRANCH   9  19
BRANCH   7  18
ATOM     18  C   UNL     1      15.634  10.723  22.451  0.00  0.00    +0.026 C 
BRANCH  18  21
ATOM     21  C   UNL     1      14.109  10.826  22.362  0.00  0.00    -0.015 C 
ATOM     27  C   UNL     1      13.731  11.710  21.171  0.00  0.00    +0.007 C 
ATOM     28  C   UNL     1      13.480  11.385  23.639  0.00  0.00    +0.007 C 
ENDBRANCH  18  21
ENDBRANCH   7  18
BRANCH   5  25
ATOM     25  C   UNL     1      21.604   6.650  21.210  0.00  0.00    +0.162 C 
BRANCH  25  29
ATOM      2  O   UNL     1      22.094   3.808  23.524  0.00  0.00    -0.359 OA
ATOM      6  N   UNL     1      22.217   4.855  24.430  0.00  0.00    -0.083 NA
ATOM     29  C   UNL     1      21.830   5.680  22.342  0.00  0.00    +0.037 A 
ATOM     30  C   UNL     1      21.864   4.311  22.285  0.00  0.00    +0.139 A 
ATOM     31  C   UNL     1      22.056   5.962  23.701  0.00  0.00    +0.086 A 
ATOM     32  C   UNL     1      21.709   3.332  21.201  0.00  0.00    +0.089 C 
ATOM     33  C   UNL     1      22.126   7.280  24.354  0.00  0.00    +0.069 C 
ENDBRANCH  25  29
ENDBRANCH   5  25
TORSDOF 6
ENDMDL
MODEL 2
REMARK VINA RESULT:      -6.8     29.650     33.147
REMARK  Name = 51138105
REMARK  10 active torsions:
REMARK  status: ('A' for Active; 'I' for Inactive)
REMARK    1  A    between atoms: N_4  and  C_8
REMARK    2  A    between atoms: N_5  and  C_25
REMARK    3  A    between atoms: C_7  and  C_18
REMARK    4  A    between atoms: C_9  and  C_19
REMARK    5  A    between atoms: C_18  and  C_21
REMARK    6  A    between atoms: C_21  and  C_27
REMARK    7  A    between atoms: C_21  and  C_28
REMARK    8  A    between atoms: C_25  and  C_29
REMARK    9  A    between atoms: C_30  and  C_32
REMARK   10  A    between atoms: C_31  and  C_33
REMARK                            x       y       z     vdW  Elec       q    Type
REMARK                         _______ _______ _______ _____ _____    ______ ____
ROOT
ATOM      3  N   UNL     1     -13.284   9.638  33.421  0.00  0.00    -0.299 NA
ATOM      5  N   UNL     1     -15.430   5.164  32.485  0.00  0.00    -0.342 N 
ATOM      7  C   UNL     1     -12.818   8.742  34.487  0.00  0.00    +0.085 C 
ATOM      9  C   UNL     1     -13.002   9.173  32.070  0.00  0.00    +0.145 C 
ATOM     12  C   UNL     1     -14.207   8.461  31.459  0.00  0.00    +0.065 C 
ATOM     13  C   UNL     1     -13.475   7.359  34.535  0.00  0.00    -0.021 A 
ATOM     14  C   UNL     1     -14.217   6.766  33.473  0.00  0.00    +0.008 A 
ATOM     15  C   UNL     1     -14.564   7.183  32.141  0.00  0.00    -0.020 A 
ATOM     20  C   UNL     1     -14.758   5.486  33.639  0.00  0.00    +0.050 A 
ATOM     22  C   UNL     1     -15.316   6.173  31.576  0.00  0.00    +0.091 A 
ATOM     23  C   UNL     1     -13.282   6.554  35.687  0.00  0.00    +0.006 A 
ATOM     24  C   UNL     1     -14.594   4.728  34.801  0.00  0.00    +0.026 A 
ATOM     26  C   UNL     1     -13.832   5.281  35.821  0.00  0.00    +0.002 A 
ATOM     34  H   UNL     1     -14.273   9.857  33.536  0.00  0.00    +0.123 HD
ENDROOT
BRANCH   9  19
ATOM      1  O   UNL     1     -12.736  11.528  31.795  0.00  0.00    -0.274 OA
ATOM      4  N   UNL     1     -12.450  10.138  29.950  0.00  0.00    -0.311 N 
ATOM     19  C   UNL     1     -12.712  10.414  31.281  0.00  0.00    +0.231 C 
ATOM     35  H   UNL     1     -12.421   9.170  29.643  0.00  0.00    +0.149 HD
BRANCH   4   8
ATOM      8  C   UNL     1     -12.163  11.162  28.974  0.00  0.00    +0.073 C 
ATOM     10  C   UNL     1     -10.794  10.969  28.334  0.00  0.00    +0.022 C 
ATOM     11  C   UNL     1     -13.108  11.081  27.781  0.00  0.00    +0.022 C 
ATOM     16  C   UNL     1     -11.020   9.951  27.218  0.00  0.00    +0.002 C 
ATOM     17  C   UNL     1     -12.513   9.993  26.894  0.00  0.00    +0.002 C 
ENDBRANCH   4   8
ENDBRANCH   9  19
BRANCH   7  18
ATOM     18  C   UNL     1     -13.028   9.541  35.786  0.00  0.00    +0.026 C 
BRANCH  18  21
ATOM     21  C   UNL     1     -11.715   9.900  36.487  0.00  0.00    -0.015 C 
ATOM     27  C   UNL     1     -10.540   9.532  35.577  0.00  0.00    +0.007 C 
ATOM     28  C   UNL     1     -11.558   9.202  37.839  0.00  0.00    +0.007 C 
ENDBRANCH  18  21
ENDBRANCH   7  18
BRANCH   5  25
ATOM     25  C   UNL     1     -16.144   3.927  32.243  0.00  0.00    +0.162 C 
BRANCH  25  29
ATOM      2  O   UNL     1     -13.997   1.074  31.283  0.00  0.00    -0.359 OA
ATOM      6  N   UNL     1     -14.174   1.649  30.031  0.00  0.00    -0.083 NA
ATOM     29  C   UNL     1     -15.292   2.861  31.603  0.00  0.00    +0.037 A 
ATOM     30  C   UNL     1     -14.667   1.804  32.211  0.00  0.00    +0.139 A 
ATOM     31  C   UNL     1     -14.950   2.715  30.247  0.00  0.00    +0.086 A 
ATOM     32  C   UNL     1     -14.585   1.330  33.598  0.00  0.00    +0.089 C 
ATOM     33  C   UNL     1     -15.344   3.571  29.115  0.00  0.00    +0.069 C 
ENDBRANCH  25  29
ENDBRANCH   5  25
TORSDOF 6
ENDMDL
MODEL 3
REMARK VINA RESULT:      -6.8     28.656     31.026
REMARK  Name = 51138105
REMARK  10 active torsions:
REMARK  status: ('A' for Active; 'I' for Inactive)
REMARK    1  A    between atoms: N_4  and  C_8
REMARK    2  A    between atoms: N_5  and  C_25
REMARK    3  A    between atoms: C_7  and  C_18
REMARK    4  A    between atoms: C_9  and  C_19
REMARK    5  A    between atoms: C_18  and  C_21
REMARK    6  A    between atoms: C_21  and  C_27
REMARK    7  A    between atoms: C_21  and  C_28
REMARK    8  A    between atoms: C_25  and  C_29
REMARK    9  A    between atoms: C_30  and  C_32
REMARK   10  A    between atoms: C_31  and  C_33
REMARK                            x       y       z     vdW  Elec       q    Type
REMARK                         _______ _______ _______ _____ _____    ______ ____
ROOT
ATOM      3  N   UNL     1      -7.112 -10.885  16.283  0.00  0.00    -0.299 NA
ATOM      5  N   UNL     1      -4.545 -10.155  11.997  0.00  0.00    -0.342 N 
ATOM      7  C   UNL     1      -5.714 -10.687  16.686  0.00  0.00    +0.085 C 
ATOM      9  C   UNL     1      -7.677  -9.801  15.491  0.00  0.00    +0.145 C 
ATOM     12  C   UNL     1      -7.614 -10.108  13.996  0.00  0.00    +0.065 C 
ATOM     13  C   UNL     1      -4.691 -10.625  15.547  0.00  0.00    -0.021 A 
ATOM     14  C   UNL     1      -5.005 -10.406  14.174  0.00  0.00    +0.008 A 
ATOM     15  C   UNL     1      -6.227 -10.179  13.451  0.00  0.00    -0.020 A 
ATOM     20  C   UNL     1      -3.973 -10.358  13.229  0.00  0.00    +0.050 A 
ATOM     22  C   UNL     1      -5.897 -10.040  12.118  0.00  0.00    +0.091 A 
ATOM     23  C   UNL     1      -3.312 -10.713  15.866  0.00  0.00    +0.006 A 
ATOM     24  C   UNL     1      -2.623 -10.494  13.559  0.00  0.00    +0.026 A 
ATOM     26  C   UNL     1      -2.308 -10.659  14.901  0.00  0.00    +0.002 A 
ATOM     34  H   UNL     1      -7.233 -11.784  15.817  0.00  0.00    +0.123 HD
ENDROOT
BRANCH   9  19
ATOM      1  O   UNL     1      -9.591 -10.483  16.741  0.00  0.00    -0.274 OA
ATOM      4  N   UNL     1      -9.789  -8.701  15.256  0.00  0.00    -0.311 N 
ATOM     19  C   UNL     1      -9.111  -9.712  15.915  0.00  0.00    +0.231 C 
ATOM     35  H   UNL     1      -9.278  -8.099  14.617  0.00  0.00    +0.149 HD
BRANCH   4   8
ATOM      8  C   UNL     1     -11.189  -8.422  15.469  0.00  0.00    +0.073 C 
ATOM     10  C   UNL     1     -11.426  -7.669  16.773  0.00  0.00    +0.022 C 
ATOM     11  C   UNL     1     -11.736  -7.461  14.420  0.00  0.00    +0.022 C 
ATOM     16  C   UNL     1     -11.171  -6.202  16.434  0.00  0.00    +0.002 C 
ATOM     17  C   UNL     1     -11.329  -6.077  14.918  0.00  0.00    +0.002 C 
ENDBRANCH   4   8
ENDBRANCH   9  19
BRANCH   7  18
ATOM     18  C   UNL     1      -5.427 -11.831  17.674  0.00  0.00    +0.026 C 
BRANCH  18  21
ATOM     21  C   UNL     1      -4.908 -11.336  19.028  0.00  0.00    -0.015 C 
ATOM     27  C   UNL     1      -3.728 -12.207  19.464  0.00  0.00    +0.007 C 
ATOM     28  C   UNL     1      -5.987 -11.347  20.112  0.00  0.00    +0.007 C 
ENDBRANCH  18  21
ENDBRANCH   7  18
BRANCH   5  25
ATOM     25  C   UNL     1      -3.829 -10.053  10.742  0.00  0.00    +0.162 C 
BRANCH  25  29
ATOM      2  O   UNL     1      -4.271 -13.240   8.921  0.00  0.00    -0.359 OA
ATOM      6  N   UNL     1      -4.758 -12.365   7.957  0.00  0.00    -0.083 NA
ATOM     29  C   UNL     1      -4.106 -11.199   9.802  0.00  0.00    +0.037 A 
ATOM     30  C   UNL     1      -3.886 -12.535  10.015  0.00  0.00    +0.139 A 
ATOM     31  C   UNL     1      -4.649 -11.152   8.506  0.00  0.00    +0.086 A 
ATOM     32  C   UNL     1      -3.344 -13.313  11.136  0.00  0.00    +0.089 C 
ATOM     33  C   UNL     1      -5.082  -9.968   7.746  0.00  0.00    +0.069 C 
ENDBRANCH  25  29
ENDBRANCH   5  25
TORSDOF 6
ENDMDL
MODEL 4
REMARK VINA RESULT:      -6.7     19.207     22.158
REMARK  Name = 51138105
REMARK  10 active torsions:
REMARK  status: ('A' for Active; 'I' for Inactive)
REMARK    1  A    between atoms: N_4  and  C_8
REMARK    2  A    between atoms: N_5  and  C_25
REMARK    3  A    between atoms: C_7  and  C_18
REMARK    4  A    between atoms: C_9  and  C_19
REMARK    5  A    between atoms: C_18  and  C_21
REMARK    6  A    between atoms: C_21  and  C_27
REMARK    7  A    between atoms: C_21  and  C_28
REMARK    8  A    between atoms: C_25  and  C_29
REMARK    9  A    between atoms: C_30  and  C_32
REMARK   10  A    between atoms: C_31  and  C_33
REMARK                            x       y       z     vdW  Elec       q    Type
REMARK                         _______ _______ _______ _____ _____    ______ ____
ROOT
ATOM      3  N   UNL     1      10.242   5.408  -0.568  0.00  0.00    -0.299 NA
ATOM      5  N   UNL     1       9.557   6.263   4.361  0.00  0.00    -0.342 N 
ATOM      7  C   UNL     1      10.104   6.864  -0.433  0.00  0.00    +0.085 C 
ATOM      9  C   UNL     1      11.305   4.821   0.237  0.00  0.00    +0.145 C 
ATOM     12  C   UNL     1      10.766   4.252   1.548  0.00  0.00    +0.065 C 
ATOM     13  C   UNL     1       9.701   7.372   0.956  0.00  0.00    -0.021 A 
ATOM     14  C   UNL     1       9.784   6.616   2.161  0.00  0.00    +0.008 A 
ATOM     15  C   UNL     1      10.227   5.286   2.480  0.00  0.00    -0.020 A 
ATOM     20  C   UNL     1       9.396   7.203   3.372  0.00  0.00    +0.050 A 
ATOM     22  C   UNL     1      10.061   5.110   3.838  0.00  0.00    +0.091 A 
ATOM     23  C   UNL     1       9.283   8.720   1.092  0.00  0.00    +0.006 A 
ATOM     24  C   UNL     1       8.941   8.519   3.476  0.00  0.00    +0.026 A 
ATOM     26  C   UNL     1       8.905   9.275   2.312  0.00  0.00    +0.002 A 
ATOM     34  H   UNL     1       9.352   4.940  -0.401  0.00  0.00    +0.123 HD
ENDROOT
BRANCH   9  19
ATOM      1  O   UNL     1      12.965   3.223  -0.382  0.00  0.00    -0.274 OA
ATOM      4  N   UNL     1      10.985   3.323  -1.602  0.00  0.00    -0.311 N 
ATOM     19  C   UNL     1      11.855   3.703  -0.595  0.00  0.00    +0.231 C 
ATOM     35  H   UNL     1      10.074   3.768  -1.661  0.00  0.00    +0.149 HD
BRANCH   4   8
ATOM      8  C   UNL     1      11.289   2.283  -2.555  0.00  0.00    +0.073 C 
ATOM     10  C   UNL     1      10.027   1.613  -3.086  0.00  0.00    +0.022 C 
ATOM     11  C   UNL     1      11.927   2.847  -3.819  0.00  0.00    +0.022 C 
ATOM     16  C   UNL     1       9.541   2.522  -4.213  0.00  0.00    +0.002 C 
ATOM     17  C   UNL     1      10.752   3.345  -4.654  0.00  0.00    +0.002 C 
ENDBRANCH   4   8
ENDBRANCH   9  19
BRANCH   7  18
ATOM     18  C   UNL     1       9.092   7.262  -1.522  0.00  0.00    +0.026 C 
BRANCH  18  21
ATOM     21  C   UNL     1       9.106   6.316  -2.726  0.00  0.00    -0.015 C 
ATOM     27  C   UNL     1       9.960   6.929  -3.839  0.00  0.00    +0.007 C 
ATOM     28  C   UNL     1       7.704   6.017  -3.258  0.00  0.00    +0.007 C 
ENDBRANCH  18  21
ENDBRANCH   7  18
BRANCH   5  25
ATOM     25  C   UNL     1       9.260   6.459   5.765  0.00  0.00    +0.162 C 
BRANCH  25  29
ATOM      2  O   UNL     1      11.824   5.675   8.311  0.00  0.00    -0.359 OA
ATOM      6  N   UNL     1      12.573   6.513   7.493  0.00  0.00    -0.083 NA
ATOM     29  C   UNL     1      10.465   6.299   6.658  0.00  0.00    +0.037 A 
ATOM     30  C   UNL     1      10.571   5.554   7.804  0.00  0.00    +0.139 A 
ATOM     31  C   UNL     1      11.740   6.872   6.513  0.00  0.00    +0.086 A 
ATOM     32  C   UNL     1       9.643   4.697   8.552  0.00  0.00    +0.089 C 
ATOM     33  C   UNL     1      12.213   7.775   5.450  0.00  0.00    +0.069 C 
ENDBRANCH  25  29
ENDBRANCH   5  25
TORSDOF 6
ENDMDL
MODEL 5
REMARK VINA RESULT:      -6.7     28.622     31.173
REMARK  Name = 51138105
REMARK  10 active torsions:
REMARK  status: ('A' for Active; 'I' for Inactive)
REMARK    1  A    between atoms: N_4  and  C_8
REMARK    2  A    between atoms: N_5  and  C_25
REMARK    3  A    between atoms: C_7  and  C_18
REMARK    4  A    between atoms: C_9  and  C_19
REMARK    5  A    between atoms: C_18  and  C_21
REMARK    6  A    between atoms: C_21  and  C_27
REMARK    7  A    between atoms: C_21  and  C_28
REMARK    8  A    between atoms: C_25  and  C_29
REMARK    9  A    between atoms: C_30  and  C_32
REMARK   10  A    between atoms: C_31  and  C_33
REMARK                            x       y       z     vdW  Elec       q    Type
REMARK                         _______ _______ _______ _____ _____    ______ ____
ROOT
ATOM      3  N   UNL     1      -6.945 -10.924  16.293  0.00  0.00    -0.299 NA
ATOM      5  N   UNL     1      -4.488 -10.170  11.947  0.00  0.00    -0.342 N 
ATOM      7  C   UNL     1      -5.537 -10.728  16.661  0.00  0.00    +0.085 C 
ATOM      9  C   UNL     1      -7.530  -9.836  15.522  0.00  0.00    +0.145 C 
ATOM     12  C   UNL     1      -7.505 -10.134  14.024  0.00  0.00    +0.065 C 
ATOM     13  C   UNL     1      -4.544 -10.660  15.497  0.00  0.00    -0.021 A 
ATOM     14  C   UNL     1      -4.892 -10.433  14.134  0.00  0.00    +0.008 A 
ATOM     15  C   UNL     1      -6.132 -10.203  13.443  0.00  0.00    -0.020 A 
ATOM     20  C   UNL     1      -3.885 -10.380  13.163  0.00  0.00    +0.050 A 
ATOM     22  C   UNL     1      -5.837 -10.056  12.103  0.00  0.00    +0.091 A 
ATOM     23  C   UNL     1      -3.157 -10.750  15.780  0.00  0.00    +0.006 A 
ATOM     24  C   UNL     1      -2.527 -10.519  13.458  0.00  0.00    +0.026 A 
ATOM     26  C   UNL     1      -2.178 -10.692  14.791  0.00  0.00    +0.002 A 
ATOM     34  H   UNL     1      -7.078 -11.820  15.825  0.00  0.00    +0.123 HD
ENDROOT
BRANCH   9  19
ATOM      1  O   UNL     1      -9.734  -8.923  15.517  0.00  0.00    -0.274 OA
ATOM      4  N   UNL     1      -9.239 -10.669  16.974  0.00  0.00    -0.311 N 
ATOM     19  C   UNL     1      -8.953  -9.748  15.982  0.00  0.00    +0.231 C 
ATOM     35  H   UNL     1      -8.521 -11.330  17.256  0.00  0.00    +0.149 HD
BRANCH   4   8
ATOM      8  C   UNL     1     -10.534 -10.774  17.602  0.00  0.00    +0.073 C 
ATOM     10  C   UNL     1     -10.779 -12.167  18.171  0.00  0.00    +0.022 C 
ATOM     11  C   UNL     1     -10.634  -9.885  18.836  0.00  0.00    +0.022 C 
ATOM     16  C   UNL     1     -10.100 -12.160  19.539  0.00  0.00    +0.002 C 
ATOM     17  C   UNL     1      -9.970 -10.692  19.946  0.00  0.00    +0.002 C 
ENDBRANCH   4   8
ENDBRANCH   9  19
BRANCH   7  18
ATOM     18  C   UNL     1      -5.225 -11.878  17.636  0.00  0.00    +0.026 C 
BRANCH  18  21
ATOM     21  C   UNL     1      -4.794 -11.388  19.021  0.00  0.00    -0.015 C 
ATOM     27  C   UNL     1      -3.652 -12.268  19.534  0.00  0.00    +0.007 C 
ATOM     28  C   UNL     1      -5.942 -11.391  20.031  0.00  0.00    +0.007 C 
ENDBRANCH  18  21
ENDBRANCH   7  18
BRANCH   5  25
ATOM     25  C   UNL     1      -3.804 -10.061  10.675  0.00  0.00    +0.162 C 
BRANCH  25  29
ATOM      2  O   UNL     1      -4.365 -13.211   8.820  0.00  0.00    -0.359 OA
ATOM      6  N   UNL     1      -4.842 -12.310   7.876  0.00  0.00    -0.083 NA
ATOM     29  C   UNL     1      -4.128 -11.187   9.725  0.00  0.00    +0.037 A 
ATOM     30  C   UNL     1      -3.943 -12.531   9.917  0.00  0.00    +0.139 A 
ATOM     31  C   UNL     1      -4.690 -11.108   8.439  0.00  0.00    +0.086 A 
ATOM     32  C   UNL     1      -3.406 -13.339  11.019  0.00  0.00    +0.089 C 
ATOM     33  C   UNL     1      -5.101  -9.902   7.701  0.00  0.00    +0.069 C 
ENDBRANCH  25  29
ENDBRANCH   5  25
TORSDOF 6
ENDMDL
MODEL 6
REMARK VINA RESULT:      -6.6     27.355     31.778
REMARK  Name = 51138105
REMARK  10 active torsions:
REMARK  status: ('A' for Active; 'I' for Inactive)
REMARK    1  A    between atoms: N_4  and  C_8
REMARK    2  A    between atoms: N_5  and  C_25
REMARK    3  A    between atoms: C_7  and  C_18
REMARK    4  A    between atoms: C_9  and  C_19
REMARK    5  A    between atoms: C_18  and  C_21
REMARK    6  A    between atoms: C_21  and  C_27
REMARK    7  A    between atoms: C_21  and  C_28
REMARK    8  A    between atoms: C_25  and  C_29
REMARK    9  A    between atoms: C_30  and  C_32
REMARK   10  A    between atoms: C_31  and  C_33
REMARK                            x       y       z     vdW  Elec       q    Type
REMARK                         _______ _______ _______ _____ _____    ______ ____
ROOT
ATOM      3  N   UNL     1      -5.325  -9.922  14.959  0.00  0.00    -0.299 NA
ATOM      5  N   UNL     1      -8.518 -10.641  18.803  0.00  0.00    -0.342 N 
ATOM      7  C   UNL     1      -4.605 -10.766  15.920  0.00  0.00    +0.085 C 
ATOM      9  C   UNL     1      -6.600 -10.462  14.510  0.00  0.00    +0.145 C 
ATOM     12  C   UNL     1      -7.767  -9.875  15.300  0.00  0.00    +0.065 C 
ATOM     13  C   UNL     1      -5.296 -10.981  17.271  0.00  0.00    -0.021 A 
ATOM     14  C   UNL     1      -6.673 -10.730  17.536  0.00  0.00    +0.008 A 
ATOM     15  C   UNL     1      -7.776 -10.259  16.742  0.00  0.00    -0.020 A 
ATOM     20  C   UNL     1      -7.187 -10.981  18.814  0.00  0.00    +0.050 A 
ATOM     22  C   UNL     1      -8.884 -10.211  17.563  0.00  0.00    +0.091 A 
ATOM     23  C   UNL     1      -4.548 -11.546  18.335  0.00  0.00    +0.006 A 
ATOM     24  C   UNL     1      -6.420 -11.494  19.863  0.00  0.00    +0.026 A 
ATOM     26  C   UNL     1      -5.090 -11.786  19.596  0.00  0.00    +0.002 A 
ATOM     34  H   UNL     1      -5.432  -8.973  15.316  0.00  0.00    +0.123 HD
ENDROOT
BRANCH   9  19
ATOM      1  O   UNL     1      -7.753  -9.558  12.627  0.00  0.00    -0.274 OA
ATOM      4  N   UNL     1      -5.564 -10.301  12.358  0.00  0.00    -0.311 N 
ATOM     19  C   UNL     1      -6.720 -10.046  13.075  0.00  0.00    +0.231 C 
ATOM     35  H   UNL     1      -4.754 -10.676  12.845  0.00  0.00    +0.149 HD
BRANCH   4   8
ATOM      8  C   UNL     1      -5.429 -10.014  10.951  0.00  0.00    +0.073 C 
ATOM     10  C   UNL     1      -4.334  -8.988  10.682  0.00  0.00    +0.022 C 
ATOM     11  C   UNL     1      -4.948 -11.232  10.172  0.00  0.00    +0.022 C 
ATOM     16  C   UNL     1      -3.037  -9.794  10.656  0.00  0.00    +0.002 C 
ATOM     17  C   UNL     1      -3.436 -11.242  10.370  0.00  0.00    +0.002 C 
ENDBRANCH   4   8
ENDBRANCH   9  19
BRANCH   7  18
ATOM     18  C   UNL     1      -3.223 -10.103  16.064  0.00  0.00    +0.026 C 
BRANCH  18  21
ATOM     21  C   UNL     1      -2.085 -10.968  15.516  0.00  0.00    -0.015 C 
ATOM     27  C   UNL     1      -0.754 -10.244  15.728  0.00  0.00    +0.007 C 
ATOM     28  C   UNL     1      -2.260 -11.301  14.033  0.00  0.00    +0.007 C 
ENDBRANCH  18  21
ENDBRANCH   7  18
BRANCH   5  25
ATOM     25  C   UNL     1      -9.422 -10.738  19.930  0.00  0.00    +0.162 C 
BRANCH  25  29
ATOM      2  O   UNL     1     -11.425 -13.841  19.744  0.00  0.00    -0.359 OA
ATOM      6  N   UNL     1     -12.407 -12.922  19.395  0.00  0.00    -0.083 NA
ATOM     29  C   UNL     1     -10.441 -11.841  19.785  0.00  0.00    +0.037 A 
ATOM     30  C   UNL     1     -10.259 -13.186  19.974  0.00  0.00    +0.139 A 
ATOM     31  C   UNL     1     -11.796 -11.735  19.426  0.00  0.00    +0.086 A 
ATOM     32  C   UNL     1      -9.109 -14.015  20.357  0.00  0.00    +0.089 C 
ATOM     33  C   UNL     1     -12.556 -10.516  19.103  0.00  0.00    +0.069 C 
ENDBRANCH  25  29
ENDBRANCH   5  25
TORSDOF 6
ENDMDL
MODEL 7
REMARK VINA RESULT:      -6.5     16.728     20.189
REMARK  Name = 51138105
REMARK  10 active torsions:
REMARK  status: ('A' for Active; 'I' for Inactive)
REMARK    1  A    between atoms: N_4  and  C_8
REMARK    2  A    between atoms: N_5  and  C_25
REMARK    3  A    between atoms: C_7  and  C_18
REMARK    4  A    between atoms: C_9  and  C_19
REMARK    5  A    between atoms: C_18  and  C_21
REMARK    6  A    between atoms: C_21  and  C_27
REMARK    7  A    between atoms: C_21  and  C_28
REMARK    8  A    between atoms: C_25  and  C_29
REMARK    9  A    between atoms: C_30  and  C_32
REMARK   10  A    between atoms: C_31  and  C_33
REMARK                            x       y       z     vdW  Elec       q    Type
REMARK                         _______ _______ _______ _____ _____    ______ ____
ROOT
ATOM      3  N   UNL     1      14.617   7.096   1.499  0.00  0.00    -0.299 NA
ATOM      5  N   UNL     1      10.943   5.584   4.615  0.00  0.00    -0.342 N 
ATOM      7  C   UNL     1      13.587   6.501   0.639  0.00  0.00    +0.085 C 
ATOM      9  C   UNL     1      14.148   8.181   2.350  0.00  0.00    +0.145 C 
ATOM     12  C   UNL     1      13.817   7.687   3.757  0.00  0.00    +0.065 C 
ATOM     13  C   UNL     1      12.436   5.795   1.364  0.00  0.00    -0.021 A 
ATOM     14  C   UNL     1      12.112   5.958   2.742  0.00  0.00    +0.008 A 
ATOM     15  C   UNL     1      12.660   6.747   3.812  0.00  0.00    -0.020 A 
ATOM     20  C   UNL     1      11.023   5.264   3.281  0.00  0.00    +0.050 A 
ATOM     22  C   UNL     1      11.918   6.478   4.944  0.00  0.00    +0.091 A 
ATOM     23  C   UNL     1      11.563   4.969   0.611  0.00  0.00    +0.006 A 
ATOM     24  C   UNL     1      10.203   4.418   2.531  0.00  0.00    +0.026 A 
ATOM     26  C   UNL     1      10.485   4.293   1.178  0.00  0.00    +0.002 A 
ATOM     34  H   UNL     1      15.095   6.380   2.045  0.00  0.00    +0.123 HD
ENDROOT
BRANCH   9  19
ATOM      1  O   UNL     1      15.562   9.901   1.494  0.00  0.00    -0.274 OA
ATOM      4  N   UNL     1      15.981   9.050   3.620  0.00  0.00    -0.311 N 
ATOM     19  C   UNL     1      15.292   9.146   2.424  0.00  0.00    +0.231 C 
ATOM     35  H   UNL     1      15.643   8.411   4.334  0.00  0.00    +0.149 HD
BRANCH   4   8
ATOM      8  C   UNL     1      17.137   9.855   3.930  0.00  0.00    +0.073 C 
ATOM     10  C   UNL     1      17.328  10.021   5.434  0.00  0.00    +0.022 C 
ATOM     11  C   UNL     1      18.429   9.170   3.501  0.00  0.00    +0.022 C 
ATOM     16  C   UNL     1      18.067   8.761   5.880  0.00  0.00    +0.002 C 
ATOM     17  C   UNL     1      18.739   8.192   4.630  0.00  0.00    +0.002 C 
ENDBRANCH   4   8
ENDBRANCH   9  19
BRANCH   7  18
ATOM     18  C   UNL     1      14.360   5.557  -0.299  0.00  0.00    +0.026 C 
BRANCH  18  21
ATOM     21  C   UNL     1      15.506   4.823   0.403  0.00  0.00    -0.015 C 
ATOM     27  C   UNL     1      16.508   4.332  -0.645  0.00  0.00    +0.007 C 
ATOM     28  C   UNL     1      15.021   3.642   1.245  0.00  0.00    +0.007 C 
ENDBRANCH  18  21
ENDBRANCH   7  18
BRANCH   5  25
ATOM     25  C   UNL     1       9.961   5.072   5.548  0.00  0.00    +0.162 C 
BRANCH  25  29
ATOM      2  O   UNL     1       8.086   7.938   6.944  0.00  0.00    -0.359 OA
ATOM      6  N   UNL     1       8.588   7.404   8.125  0.00  0.00    -0.083 NA
ATOM     29  C   UNL     1       9.284   6.152   6.355  0.00  0.00    +0.037 A 
ATOM     30  C   UNL     1       8.507   7.184   5.896  0.00  0.00    +0.139 A 
ATOM     31  C   UNL     1       9.300   6.339   7.748  0.00  0.00    +0.086 A 
ATOM     32  C   UNL     1       8.064   7.612   4.564  0.00  0.00    +0.089 C 
ATOM     33  C   UNL     1       9.983   5.523   8.765  0.00  0.00    +0.069 C 
ENDBRANCH  25  29
ENDBRANCH   5  25
TORSDOF 6
ENDMDL
MODEL 8
REMARK VINA RESULT:      -6.5     18.419     22.410
REMARK  Name = 51138105
REMARK  10 active torsions:
REMARK  status: ('A' for Active; 'I' for Inactive)
REMARK    1  A    between atoms: N_4  and  C_8
REMARK    2  A    between atoms: N_5  and  C_25
REMARK    3  A    between atoms: C_7  and  C_18
REMARK    4  A    between atoms: C_9  and  C_19
REMARK    5  A    between atoms: C_18  and  C_21
REMARK    6  A    between atoms: C_21  and  C_27
REMARK    7  A    between atoms: C_21  and  C_28
REMARK    8  A    between atoms: C_25  and  C_29
REMARK    9  A    between atoms: C_30  and  C_32
REMARK   10  A    between atoms: C_31  and  C_33
REMARK                            x       y       z     vdW  Elec       q    Type
REMARK                         _______ _______ _______ _____ _____    ______ ____
ROOT
ATOM      3  N   UNL     1      11.037   5.614   3.867  0.00  0.00    -0.299 NA
ATOM      5  N   UNL     1       8.307   9.006   1.309  0.00  0.00    -0.342 N 
ATOM      7  C   UNL     1      10.018   6.096   4.809  0.00  0.00    +0.085 C 
ATOM      9  C   UNL     1      10.507   5.061   2.629  0.00  0.00    +0.145 C 
ATOM     12  C   UNL     1      10.520   6.093   1.503  0.00  0.00    +0.065 C 
ATOM     13  C   UNL     1       9.168   7.277   4.328  0.00  0.00    -0.021 A 
ATOM     14  C   UNL     1       9.050   7.706   2.974  0.00  0.00    +0.008 A 
ATOM     15  C   UNL     1       9.599   7.245   1.728  0.00  0.00    -0.020 A 
ATOM     20  C   UNL     1       8.227   8.795   2.664  0.00  0.00    +0.050 A 
ATOM     22  C   UNL     1       9.124   8.078   0.735  0.00  0.00    +0.091 A 
ATOM     23  C   UNL     1       8.366   7.966   5.273  0.00  0.00    +0.006 A 
ATOM     24  C   UNL     1       7.481   9.490   3.619  0.00  0.00    +0.026 A 
ATOM     26  C   UNL     1       7.554   9.046   4.932  0.00  0.00    +0.002 A 
ATOM     34  H   UNL     1      11.731   6.337   3.680  0.00  0.00    +0.123 HD
ENDROOT
BRANCH   9  19
ATOM      1  O   UNL     1      11.396   2.859   2.864  0.00  0.00    -0.274 OA
ATOM      4  N   UNL     1      12.303   4.275   1.255  0.00  0.00    -0.311 N 
ATOM     19  C   UNL     1      11.431   3.936   2.275  0.00  0.00    +0.231 C 
ATOM     35  H   UNL     1      12.216   5.187   0.815  0.00  0.00    +0.149 HD
BRANCH   4   8
ATOM      8  C   UNL     1      13.309   3.375   0.745  0.00  0.00    +0.073 C 
ATOM     10  C   UNL     1      13.610   3.635  -0.726  0.00  0.00    +0.022 C 
ATOM     11  C   UNL     1      14.659   3.605   1.411  0.00  0.00    +0.022 C 
ATOM     16  C   UNL     1      14.618   4.783  -0.726  0.00  0.00    +0.002 C 
ATOM     17  C   UNL     1      15.261   4.789   0.661  0.00  0.00    +0.002 C 
ENDBRANCH   4   8
ENDBRANCH   9  19
BRANCH   7  18
ATOM     18  C   UNL     1      10.798   6.417   6.097  0.00  0.00    +0.026 C 
BRANCH  18  21
ATOM     21  C   UNL     1      10.368   5.554   7.287  0.00  0.00    -0.015 C 
ATOM     27  C   UNL     1       9.711   4.272   6.769  0.00  0.00    +0.007 C 
ATOM     28  C   UNL     1       9.407   6.284   8.227  0.00  0.00    +0.007 C 
ENDBRANCH  18  21
ENDBRANCH   7  18
BRANCH   5  25
ATOM     25  C   UNL     1       7.615  10.045   0.576  0.00  0.00    +0.162 C 
BRANCH  25  29
ATOM      2  O   UNL     1       4.214   9.033  -0.466  0.00  0.00    -0.359 OA
ATOM      6  N   UNL     1       4.905   8.724  -1.632  0.00  0.00    -0.083 NA
ATOM     29  C   UNL     1       6.345   9.566  -0.082  0.00  0.00    +0.037 A 
ATOM     30  C   UNL     1       5.082   9.534   0.449  0.00  0.00    +0.139 A 
ATOM     31  C   UNL     1       6.174   9.051  -1.378  0.00  0.00    +0.086 A 
ATOM     32  C   UNL     1       4.512   9.916   1.748  0.00  0.00    +0.089 C 
ATOM     33  C   UNL     1       7.199   8.850  -2.417  0.00  0.00    +0.069 C 
ENDBRANCH  25  29
ENDBRANCH   5  25
TORSDOF 6
ENDMDL
MODEL 9
REMARK VINA RESULT:      -6.4      2.004      8.070
REMARK  Name = 51138105
REMARK  10 active torsions:
REMARK  status: ('A' for Active; 'I' for Inactive)
REMARK    1  A    between atoms: N_4  and  C_8
REMARK    2  A    between atoms: N_5  and  C_25
REMARK    3  A    between atoms: C_7  and  C_18
REMARK    4  A    between atoms: C_9  and  C_19
REMARK    5  A    between atoms: C_18  and  C_21
REMARK    6  A    between atoms: C_21  and  C_27
REMARK    7  A    between atoms: C_21  and  C_28
REMARK    8  A    between atoms: C_25  and  C_29
REMARK    9  A    between atoms: C_30  and  C_32
REMARK   10  A    between atoms: C_31  and  C_33
REMARK                            x       y       z     vdW  Elec       q    Type
REMARK                         _______ _______ _______ _____ _____    ______ ____
ROOT
ATOM      3  N   UNL     1      19.315   8.787  21.619  0.00  0.00    -0.299 NA
ATOM      5  N   UNL     1      15.114   7.470  19.147  0.00  0.00    -0.342 N 
ATOM      7  C   UNL     1      18.436   9.962  21.676  0.00  0.00    +0.085 C 
ATOM      9  C   UNL     1      18.732   7.564  22.154  0.00  0.00    +0.145 C 
ATOM     12  C   UNL     1      18.147   6.690  21.047  0.00  0.00    +0.065 C 
ATOM     13  C   UNL     1      17.158   9.882  20.834  0.00  0.00    -0.021 A 
ATOM     14  C   UNL     1      16.602   8.685  20.298  0.00  0.00    +0.008 A 
ATOM     15  C   UNL     1      16.974   7.297  20.353  0.00  0.00    -0.020 A 
ATOM     20  C   UNL     1      15.417   8.746  19.555  0.00  0.00    +0.050 A 
ATOM     22  C   UNL     1      16.039   6.590  19.625  0.00  0.00    +0.091 A 
ATOM     23  C   UNL     1      16.410  11.068  20.621  0.00  0.00    +0.006 A 
ATOM     24  C   UNL     1      14.720   9.933  19.317  0.00  0.00    +0.026 A 
ATOM     26  C   UNL     1      15.232  11.096  19.878  0.00  0.00    +0.002 A 
ATOM     34  H   UNL     1      19.671   8.642  20.675  0.00  0.00    +0.123 HD
ENDROOT
BRANCH   9  19
ATOM      1  O   UNL     1      19.903   6.637  24.015  0.00  0.00    -0.274 OA
ATOM      4  N   UNL     1      20.843   6.466  21.893  0.00  0.00    -0.311 N 
ATOM     19  C   UNL     1      19.870   6.838  22.804  0.00  0.00    +0.231 C 
ATOM     35  H   UNL     1      20.691   6.654  20.906  0.00  0.00    +0.149 HD
BRANCH   4   8
ATOM      8  C   UNL     1      22.052   5.774  22.268  0.00  0.00    +0.073 C 
ATOM     10  C   UNL     1      21.827   4.274  22.412  0.00  0.00    +0.022 C 
ATOM     11  C   UNL     1      23.108   5.853  21.172  0.00  0.00    +0.022 C 
ATOM     16  C   UNL     1      21.934   3.720  20.992  0.00  0.00    +0.002 C 
ATOM     17  C   UNL     1      22.721   4.755  20.186  0.00  0.00    +0.002 C 
ENDBRANCH   4   8
ENDBRANCH   9  19
BRANCH   7  18
ATOM     18  C   UNL     1      19.337  11.142  21.270  0.00  0.00    +0.026 C 
BRANCH  18  21
ATOM     21  C   UNL     1      19.860  11.935  22.471  0.00  0.00    -0.015 C 
ATOM     27  C   UNL     1      18.683  12.334  23.364  0.00  0.00    +0.007 C 
ATOM     28  C   UNL     1      20.641  13.184  22.058  0.00  0.00    +0.007 C 
ENDBRANCH  18  21
ENDBRANCH   7  18
BRANCH   5  25
ATOM     25  C   UNL     1      13.970   7.091  18.344  0.00  0.00    +0.162 C 
BRANCH  25  29
ATOM      2  O   UNL     1      10.664   8.566  19.099  0.00  0.00    -0.359 OA
ATOM      6  N   UNL     1      10.946   8.007  20.340  0.00  0.00    -0.083 NA
ATOM     29  C   UNL     1      12.660   7.592  18.898  0.00  0.00    +0.037 A 
ATOM     30  C   UNL     1      11.691   8.312  18.249  0.00  0.00    +0.139 A 
ATOM     31  C   UNL     1      12.143   7.431  20.195  0.00  0.00    +0.086 A 
ATOM     32  C   UNL     1      11.553   8.836  16.884  0.00  0.00    +0.089 C 
ATOM     33  C   UNL     1      12.757   6.732  21.336  0.00  0.00    +0.069 C 
ENDBRANCH  25  29
ENDBRANCH   5  25
TORSDOF 6
ENDMDL
MODEL 10
REMARK VINA RESULT:      -6.3     22.015     24.794
REMARK  Name = 51138105
REMARK  10 active torsions:
REMARK  status: ('A' for Active; 'I' for Inactive)
REMARK    1  A    between atoms: N_4  and  C_8
REMARK    2  A    between atoms: N_5  and  C_25
REMARK    3  A    between atoms: C_7  and  C_18
REMARK    4  A    between atoms: C_9  and  C_19
REMARK    5  A    between atoms: C_18  and  C_21
REMARK    6  A    between atoms: C_21  and  C_27
REMARK    7  A    between atoms: C_21  and  C_28
REMARK    8  A    between atoms: C_25  and  C_29
REMARK    9  A    between atoms: C_30  and  C_32
REMARK   10  A    between atoms: C_31  and  C_33
REMARK                            x       y       z     vdW  Elec       q    Type
REMARK                         _______ _______ _______ _____ _____    ______ ____
ROOT
ATOM      3  N   UNL     1       6.047  -8.149  34.734  0.00  0.00    -0.299 NA
ATOM      5  N   UNL     1       6.791 -12.448  32.192  0.00  0.00    -0.342 N 
ATOM      7  C   UNL     1       6.019  -7.781  33.313  0.00  0.00    +0.085 C 
ATOM      9  C   UNL     1       5.088  -9.177  35.115  0.00  0.00    +0.145 C 
ATOM     12  C   UNL     1       5.733 -10.561  35.148  0.00  0.00    +0.065 C 
ATOM     13  C   UNL     1       6.405  -8.887  32.326  0.00  0.00    -0.021 A 
ATOM     14  C   UNL     1       6.451 -10.279  32.632  0.00  0.00    +0.008 A 
ATOM     15  C   UNL     1       6.178 -11.054  33.811  0.00  0.00    -0.020 A 
ATOM     20  C   UNL     1       6.808 -11.193  31.633  0.00  0.00    +0.050 A 
ATOM     22  C   UNL     1       6.408 -12.378  33.498  0.00  0.00    +0.091 A 
ATOM     23  C   UNL     1       6.667  -8.535  30.978  0.00  0.00    +0.006 A 
ATOM     24  C   UNL     1       7.108 -10.819  30.321  0.00  0.00    +0.026 A 
ATOM     26  C   UNL     1       7.018  -9.470  30.006  0.00  0.00    +0.002 A 
ATOM     34  H   UNL     1       6.991  -8.399  35.027  0.00  0.00    +0.123 HD
ENDROOT
BRANCH   9  19
ATOM      1  O   UNL     1       3.766  -9.433  37.085  0.00  0.00    -0.274 OA
ATOM      4  N   UNL     1       5.319  -7.701  36.985  0.00  0.00    -0.311 N 
ATOM     19  C   UNL     1       4.645  -8.808  36.498  0.00  0.00    +0.231 C 
ATOM     35  H   UNL     1       6.056  -7.286  36.423  0.00  0.00    +0.149 HD
BRANCH   4   8
ATOM      8  C   UNL     1       5.061  -7.131  38.285  0.00  0.00    +0.073 C 
ATOM     10  C   UNL     1       6.330  -7.032  39.124  0.00  0.00    +0.022 C 
ATOM     11  C   UNL     1       4.612  -5.678  38.182  0.00  0.00    +0.022 C 
ATOM     16  C   UNL     1       7.002  -5.737  38.674  0.00  0.00    +0.002 C 
ATOM     17  C   UNL     1       5.906  -4.886  38.031  0.00  0.00    +0.002 C 
ENDBRANCH   4   8
ENDBRANCH   9  19
BRANCH   7  18
ATOM     18  C   UNL     1       6.941  -6.552  33.210  0.00  0.00    +0.026 C 
BRANCH  18  21
ATOM     21  C   UNL     1       7.998  -6.504  34.317  0.00  0.00    -0.015 C 
ATOM     27  C   UNL     1       8.037  -5.097  34.918  0.00  0.00    +0.007 C 
ATOM     28  C   UNL     1       9.391  -6.891  33.817  0.00  0.00    +0.007 C 
ENDBRANCH  18  21
ENDBRANCH   7  18
BRANCH   5  25
ATOM     25  C   UNL     1       7.109 -13.681  31.503  0.00  0.00    +0.162 C 
BRANCH  25  29
ATOM      2  O   UNL     1       4.184 -14.545  29.411  0.00  0.00    -0.359 OA
ATOM      6  N   UNL     1       5.181 -14.636  28.447  0.00  0.00    -0.083 NA
ATOM     29  C   UNL     1       6.095 -14.056  30.451  0.00  0.00    +0.037 A 
ATOM     30  C   UNL     1       4.740 -14.198  30.600  0.00  0.00    +0.139 A 
ATOM     31  C   UNL     1       6.313 -14.341  29.092  0.00  0.00    +0.086 A 
ATOM     32  C   UNL     1       3.819 -14.057  31.735  0.00  0.00    +0.089 C 
ATOM     33  C   UNL     1       7.590 -14.343  28.358  0.00  0.00    +0.069 C 
ENDBRANCH  25  29
ENDBRANCH   5  25
TORSDOF 6
ENDMDL
