MODEL 1
REMARK VINA RESULT:      -7.4      0.000      0.000
REMARK  Name = 40777982
REMARK  10 active torsions:
REMARK  status: ('A' for Active; 'I' for Inactive)
REMARK    1  A    between atoms: O_2  and  C_11
REMARK    2  A    between atoms: O_3  and  C_12
REMARK    3  A    between atoms: O_6  and  C_33
REMARK    4  A    between atoms: O_6  and  C_34
REMARK    5  A    between atoms: N_8  and  C_21
REMARK    6  A    between atoms: N_9  and  C_15
REMARK    7  A    between atoms: C_10  and  C_14
REMARK    8  A    between atoms: C_13  and  C_15
REMARK    9  A    between atoms: C_14  and  C_16
REMARK   10  A    between atoms: C_22  and  C_25
REMARK                            x       y       z     vdW  Elec       q    Type
REMARK                         _______ _______ _______ _____ _____    ______ ____
ROOT
ATOM      1  O   UNL     1      -3.881 -11.687  18.344  0.00  0.00    -0.366 OA
ATOM     10  C   UNL     1      -5.204 -12.123  18.732  0.00  0.00    +0.159 C 
ATOM     11  C   UNL     1      -5.836 -12.738  17.488  0.00  0.00    +0.175 C 
ATOM     12  C   UNL     1      -5.145 -11.976  16.376  0.00  0.00    +0.176 C 
ATOM     13  C   UNL     1      -3.734 -11.849  16.923  0.00  0.00    +0.167 C 
ENDROOT
BRANCH  11   2
ATOM      2  O   UNL     1      -5.474 -14.117  17.443  0.00  0.00    -0.387 OA
ATOM     35  H   UNL     1      -6.235 -14.628  17.764  0.00  0.00    +0.210 HD
ENDBRANCH  11   2
BRANCH  12   3
ATOM      3  O   UNL     1      -5.175 -12.649  15.135  0.00  0.00    -0.387 OA
ATOM     36  H   UNL     1      -4.715 -13.498  15.252  0.00  0.00    +0.210 HD
ENDBRANCH  12   3
BRANCH  10  14
ATOM     14  C   UNL     1      -5.963 -10.908  19.248  0.00  0.00    +0.130 C 
BRANCH  14  16
ATOM      4  O   UNL     1      -7.799 -12.145  20.104  0.00  0.00    -0.276 OA
ATOM      7  N   UNL     1      -8.297 -10.448  18.595  0.00  0.00    -0.298 N 
ATOM      8  N   UNL     1     -10.193  -8.749  17.218  0.00  0.00    -0.327 N 
ATOM     16  C   UNL     1      -7.432 -11.230  19.363  0.00  0.00    +0.218 C 
ATOM     17  C   UNL     1      -7.859  -9.361  17.716  0.00  0.00    +0.126 C 
ATOM     18  C   UNL     1      -9.736 -10.693  18.658  0.00  0.00    +0.126 C 
ATOM     19  C   UNL     1      -8.881  -9.031  16.630  0.00  0.00    +0.124 C 
ATOM     20  C   UNL     1     -10.542  -9.409  18.479  0.00  0.00    +0.124 C 
BRANCH   8  21
ATOM     21  C   UNL     1     -11.101  -7.906  16.582  0.00  0.00    +0.030 A 
ATOM     23  C   UNL     1     -12.454  -8.244  16.538  0.00  0.00    +0.023 A 
ATOM     24  C   UNL     1     -10.657  -6.724  15.988  0.00  0.00    +0.023 A 
ATOM     26  C   UNL     1     -13.363  -7.398  15.901  0.00  0.00    +0.002 A 
ATOM     27  C   UNL     1     -11.566  -5.879  15.352  0.00  0.00    +0.002 A 
ATOM     28  C   UNL     1     -12.919  -6.216  15.310  0.00  0.00    +0.000 A 
ENDBRANCH   8  21
ENDBRANCH  14  16
ENDBRANCH  10  14
BRANCH  13  15
ATOM     15  C   UNL     1      -2.969 -10.670  16.349  0.00  0.00    +0.138 C 
BRANCH  15   9
ATOM      5  O   UNL     1      -1.710 -11.436  13.884  0.00  0.00    -0.270 OA
ATOM      9  N   UNL     1      -3.418 -10.358  15.024  0.00  0.00    -0.309 N 
ATOM     22  C   UNL     1      -2.744 -10.772  13.880  0.00  0.00    +0.244 C 
ATOM     37  H   UNL     1      -4.298  -9.857  14.947  0.00  0.00    +0.149 HD
BRANCH  22  25
ATOM     25  C   UNL     1      -3.325 -10.343  12.582  0.00  0.00    +0.037 A 
ATOM     29  C   UNL     1      -4.710 -10.285  12.422  0.00  0.00    +0.016 A 
ATOM     30  C   UNL     1      -2.486  -9.999  11.522  0.00  0.00    +0.016 A 
ATOM     31  C   UNL     1      -5.254  -9.883  11.203  0.00  0.00    +0.046 A 
ATOM     32  C   UNL     1      -3.031  -9.595  10.303  0.00  0.00    +0.046 A 
ATOM     33  C   UNL     1      -4.416  -9.538  10.144  0.00  0.00    +0.120 A 
BRANCH  33   6
ATOM      6  O   UNL     1      -4.948  -9.145   8.953  0.00  0.00    -0.495 OA
ATOM     34  C   UNL     1      -5.088 -10.144   7.945  0.00  0.00    +0.277 C 
ENDBRANCH  33   6
ENDBRANCH  22  25
ENDBRANCH  15   9
ENDBRANCH  13  15
TORSDOF 9
ENDMDL
MODEL 2
REMARK VINA RESULT:      -7.2      2.427      7.824
REMARK  Name = 40777982
REMARK  10 active torsions:
REMARK  status: ('A' for Active; 'I' for Inactive)
REMARK    1  A    between atoms: O_2  and  C_11
REMARK    2  A    between atoms: O_3  and  C_12
REMARK    3  A    between atoms: O_6  and  C_33
REMARK    4  A    between atoms: O_6  and  C_34
REMARK    5  A    between atoms: N_8  and  C_21
REMARK    6  A    between atoms: N_9  and  C_15
REMARK    7  A    between atoms: C_10  and  C_14
REMARK    8  A    between atoms: C_13  and  C_15
REMARK    9  A    between atoms: C_14  and  C_16
REMARK   10  A    between atoms: C_22  and  C_25
REMARK                            x       y       z     vdW  Elec       q    Type
REMARK                         _______ _______ _______ _____ _____    ______ ____
ROOT
ATOM      1  O   UNL     1      -8.060 -12.319  18.862  0.00  0.00    -0.366 OA
ATOM     10  C   UNL     1      -6.646 -12.018  18.849  0.00  0.00    +0.159 C 
ATOM     11  C   UNL     1      -6.530 -10.504  18.719  0.00  0.00    +0.175 C 
ATOM     12  C   UNL     1      -7.797 -10.155  17.966  0.00  0.00    +0.176 C 
ATOM     13  C   UNL     1      -8.797 -11.114  18.589  0.00  0.00    +0.167 C 
ENDROOT
BRANCH  11   2
ATOM      2  O   UNL     1      -6.563  -9.943  20.030  0.00  0.00    -0.387 OA
ATOM     35  H   UNL     1      -6.392  -8.990  19.943  0.00  0.00    +0.210 HD
ENDBRANCH  11   2
BRANCH  12   3
ATOM      3  O   UNL     1      -8.188  -8.808  18.123  0.00  0.00    -0.387 OA
ATOM     36  H   UNL     1      -9.080  -8.716  17.747  0.00  0.00    +0.210 HD
ENDBRANCH  12   3
BRANCH  10  14
ATOM     14  C   UNL     1      -6.022 -12.767  17.679  0.00  0.00    +0.130 C 
BRANCH  14  16
ATOM      4  O   UNL     1      -3.767 -12.109  18.021  0.00  0.00    -0.276 OA
ATOM      7  N   UNL     1      -4.745 -11.473  16.011  0.00  0.00    -0.298 N 
ATOM      8  N   UNL     1      -4.579 -10.349  13.349  0.00  0.00    -0.327 N 
ATOM     16  C   UNL     1      -4.739 -12.092  17.263  0.00  0.00    +0.218 C 
ATOM     17  C   UNL     1      -5.900 -11.454  15.111  0.00  0.00    +0.126 C 
ATOM     18  C   UNL     1      -3.538 -10.804  15.533  0.00  0.00    +0.126 C 
ATOM     19  C   UNL     1      -5.839 -10.314  14.095  0.00  0.00    +0.124 C 
ATOM     20  C   UNL     1      -3.395 -10.899  14.016  0.00  0.00    +0.124 C 
BRANCH   8  21
ATOM     21  C   UNL     1      -4.495  -9.843  12.054  0.00  0.00    +0.030 A 
ATOM     23  C   UNL     1      -5.544  -9.085  11.533  0.00  0.00    +0.023 A 
ATOM     24  C   UNL     1      -3.361 -10.092  11.280  0.00  0.00    +0.023 A 
ATOM     26  C   UNL     1      -5.458  -8.577  10.236  0.00  0.00    +0.002 A 
ATOM     27  C   UNL     1      -3.277  -9.584   9.984  0.00  0.00    +0.002 A 
ATOM     28  C   UNL     1      -4.325  -8.826   9.463  0.00  0.00    +0.000 A 
ENDBRANCH   8  21
ENDBRANCH  14  16
ENDBRANCH  10  14
BRANCH  13  15
ATOM     15  C   UNL     1      -9.976 -11.428  17.686  0.00  0.00    +0.138 C 
BRANCH  15   9
ATOM      5  O   UNL     1     -11.973  -9.580  18.602  0.00  0.00    -0.270 OA
ATOM      9  N   UNL     1     -10.432 -10.253  17.004  0.00  0.00    -0.309 N 
ATOM     22  C   UNL     1     -11.409  -9.409  17.524  0.00  0.00    +0.244 C 
ATOM     37  H   UNL     1      -9.967 -10.022  16.132  0.00  0.00    +0.149 HD
BRANCH  22  25
ATOM     25  C   UNL     1     -11.790  -8.246  16.683  0.00  0.00    +0.037 A 
ATOM     29  C   UNL     1     -10.990  -7.103  16.667  0.00  0.00    +0.016 A 
ATOM     30  C   UNL     1     -12.948  -8.296  15.907  0.00  0.00    +0.016 A 
ATOM     31  C   UNL     1     -11.348  -6.012  15.877  0.00  0.00    +0.046 A 
ATOM     32  C   UNL     1     -13.306  -7.205  15.115  0.00  0.00    +0.046 A 
ATOM     33  C   UNL     1     -12.506  -6.062  15.102  0.00  0.00    +0.120 A 
BRANCH  33   6
ATOM      6  O   UNL     1     -12.856  -4.996  14.330  0.00  0.00    -0.495 OA
ATOM     34  C   UNL     1     -12.296  -4.933  13.019  0.00  0.00    +0.277 C 
ENDBRANCH  33   6
ENDBRANCH  22  25
ENDBRANCH  15   9
ENDBRANCH  13  15
TORSDOF 9
ENDMDL
MODEL 3
REMARK VINA RESULT:      -7.0     24.306     26.933
REMARK  Name = 40777982
REMARK  10 active torsions:
REMARK  status: ('A' for Active; 'I' for Inactive)
REMARK    1  A    between atoms: O_2  and  C_11
REMARK    2  A    between atoms: O_3  and  C_12
REMARK    3  A    between atoms: O_6  and  C_33
REMARK    4  A    between atoms: O_6  and  C_34
REMARK    5  A    between atoms: N_8  and  C_21
REMARK    6  A    between atoms: N_9  and  C_15
REMARK    7  A    between atoms: C_10  and  C_14
REMARK    8  A    between atoms: C_13  and  C_15
REMARK    9  A    between atoms: C_14  and  C_16
REMARK   10  A    between atoms: C_22  and  C_25
REMARK                            x       y       z     vdW  Elec       q    Type
REMARK                         _______ _______ _______ _____ _____    ______ ____
ROOT
ATOM      1  O   UNL     1      11.117   6.829   7.320  0.00  0.00    -0.366 OA
ATOM     10  C   UNL     1      10.077   6.298   8.173  0.00  0.00    +0.159 C 
ATOM     11  C   UNL     1       9.681   4.951   7.581  0.00  0.00    +0.175 C 
ATOM     12  C   UNL     1       9.985   5.153   6.110  0.00  0.00    +0.176 C 
ATOM     13  C   UNL     1      11.261   5.975   6.172  0.00  0.00    +0.167 C 
ENDROOT
BRANCH  11   2
ATOM      2  O   UNL     1      10.542   3.954   8.131  0.00  0.00    -0.387 OA
ATOM     35  H   UNL     1      10.150   3.088   7.930  0.00  0.00    +0.210 HD
ENDBRANCH  11   2
BRANCH  12   3
ATOM      3  O   UNL     1      10.168   3.943   5.406  0.00  0.00    -0.387 OA
ATOM     36  H   UNL     1      11.049   3.601   5.636  0.00  0.00    +0.210 HD
ENDBRANCH  12   3
BRANCH  10  14
ATOM     14  C   UNL     1       8.932   7.301   8.192  0.00  0.00    +0.130 C 
BRANCH  14  16
ATOM      4  O   UNL     1      10.103   9.348   8.465  0.00  0.00    -0.276 OA
ATOM      7  N   UNL     1       9.046   9.015   6.421  0.00  0.00    -0.298 N 
ATOM      8  N   UNL     1       8.516   9.783   3.681  0.00  0.00    -0.327 N 
ATOM     16  C   UNL     1       9.419   8.647   7.715  0.00  0.00    +0.218 C 
ATOM     17  C   UNL     1       8.234   8.181   5.533  0.00  0.00    +0.126 C 
ATOM     18  C   UNL     1       9.485  10.301   5.884  0.00  0.00    +0.126 C 
ATOM     19  C   UNL     1       7.543   8.987   4.434  0.00  0.00    +0.124 C 
ATOM     20  C   UNL     1       9.722  10.239   4.377  0.00  0.00    +0.124 C 
BRANCH   8  21
ATOM     21  C   UNL     1       8.287  10.130   2.352  0.00  0.00    +0.030 A 
ATOM     23  C   UNL     1       7.652   9.229   1.496  0.00  0.00    +0.023 A 
ATOM     24  C   UNL     1       8.693  11.377   1.877  0.00  0.00    +0.023 A 
ATOM     26  C   UNL     1       7.423   9.577   0.164  0.00  0.00    +0.002 A 
ATOM     27  C   UNL     1       8.463  11.724   0.546  0.00  0.00    +0.002 A 
ATOM     28  C   UNL     1       7.827  10.825  -0.310  0.00  0.00    +0.000 A 
ENDBRANCH   8  21
ENDBRANCH  14  16
ENDBRANCH  10  14
BRANCH  13  15
ATOM     15  C   UNL     1      11.494   6.820   4.932  0.00  0.00    +0.138 C 
BRANCH  15   9
ATOM      5  O   UNL     1       9.955   6.595   2.519  0.00  0.00    -0.270 OA
ATOM      9  N   UNL     1      11.796   5.998   3.797  0.00  0.00    -0.309 N 
ATOM     22  C   UNL     1      10.991   5.951   2.663  0.00  0.00    +0.244 C 
ATOM     37  H   UNL     1      12.669   5.480   3.828  0.00  0.00    +0.149 HD
BRANCH  22  25
ATOM     25  C   UNL     1      11.428   5.029   1.583  0.00  0.00    +0.037 A 
ATOM     29  C   UNL     1      10.799   5.063   0.339  0.00  0.00    +0.016 A 
ATOM     30  C   UNL     1      12.469   4.129   1.814  0.00  0.00    +0.016 A 
ATOM     31  C   UNL     1      11.210   4.198  -0.674  0.00  0.00    +0.046 A 
ATOM     32  C   UNL     1      12.881   3.264   0.800  0.00  0.00    +0.046 A 
ATOM     33  C   UNL     1      12.250   3.299  -0.444  0.00  0.00    +0.120 A 
BRANCH  33   6
ATOM      6  O   UNL     1      12.652   2.453  -1.434  0.00  0.00    -0.495 OA
ATOM     34  C   UNL     1      11.679   2.091  -2.411  0.00  0.00    +0.277 C 
ENDBRANCH  33   6
ENDBRANCH  22  25
ENDBRANCH  15   9
ENDBRANCH  13  15
TORSDOF 9
ENDMDL
MODEL 4
REMARK VINA RESULT:      -6.9     28.570     31.176
REMARK  Name = 40777982
REMARK  10 active torsions:
REMARK  status: ('A' for Active; 'I' for Inactive)
REMARK    1  A    between atoms: O_2  and  C_11
REMARK    2  A    between atoms: O_3  and  C_12
REMARK    3  A    between atoms: O_6  and  C_33
REMARK    4  A    between atoms: O_6  and  C_34
REMARK    5  A    between atoms: N_8  and  C_21
REMARK    6  A    between atoms: N_9  and  C_15
REMARK    7  A    between atoms: C_10  and  C_14
REMARK    8  A    between atoms: C_13  and  C_15
REMARK    9  A    between atoms: C_14  and  C_16
REMARK   10  A    between atoms: C_22  and  C_25
REMARK                            x       y       z     vdW  Elec       q    Type
REMARK                         _______ _______ _______ _____ _____    ______ ____
ROOT
ATOM      1  O   UNL     1      11.315  13.411  23.434  0.00  0.00    -0.366 OA
ATOM     10  C   UNL     1      10.912  12.023  23.421  0.00  0.00    +0.159 C 
ATOM     11  C   UNL     1      11.597  11.365  24.614  0.00  0.00    +0.175 C 
ATOM     12  C   UNL     1      12.845  12.210  24.764  0.00  0.00    +0.176 C 
ATOM     13  C   UNL     1      12.314  13.598  24.451  0.00  0.00    +0.167 C 
ENDROOT
BRANCH  11   2
ATOM      2  O   UNL     1      10.752  11.524  25.752  0.00  0.00    -0.387 OA
ATOM     35  H   UNL     1      11.225  12.085  26.390  0.00  0.00    +0.210 HD
ENDBRANCH  11   2
BRANCH  12   3
ATOM      3  O   UNL     1      13.417  12.140  26.053  0.00  0.00    -0.387 OA
ATOM     36  H   UNL     1      14.368  12.319  25.961  0.00  0.00    +0.210 HD
ENDBRANCH  12   3
BRANCH  10  14
ATOM     14  C   UNL     1      11.338  11.427  22.086  0.00  0.00    +0.130 C 
BRANCH  14  16
ATOM      4  O   UNL     1      10.296   9.339  22.521  0.00  0.00    -0.276 OA
ATOM      7  N   UNL     1      12.514   9.274  21.829  0.00  0.00    -0.298 N 
ATOM      8  N   UNL     1      14.857   7.823  20.942  0.00  0.00    -0.327 N 
ATOM     16  C   UNL     1      11.324   9.921  22.167  0.00  0.00    +0.218 C 
ATOM     17  C   UNL     1      13.734   9.967  21.409  0.00  0.00    +0.126 C 
ATOM     18  C   UNL     1      12.578   7.815  21.876  0.00  0.00    +0.126 C 
ATOM     19  C   UNL     1      14.992   9.122  21.607  0.00  0.00    +0.124 C 
ATOM     20  C   UNL     1      13.514   7.250  20.809  0.00  0.00    +0.124 C 
BRANCH   8  21
ATOM     21  C   UNL     1      15.974   7.132  20.480  0.00  0.00    +0.030 A 
ATOM     23  C   UNL     1      15.945   6.518  19.227  0.00  0.00    +0.023 A 
ATOM     24  C   UNL     1      17.122   7.054  21.270  0.00  0.00    +0.023 A 
ATOM     26  C   UNL     1      17.065   5.826  18.765  0.00  0.00    +0.002 A 
ATOM     27  C   UNL     1      18.240   6.362  20.806  0.00  0.00    +0.002 A 
ATOM     28  C   UNL     1      18.212   5.749  19.554  0.00  0.00    +0.000 A 
ENDBRANCH   8  21
ENDBRANCH  14  16
ENDBRANCH  10  14
BRANCH  13  15
ATOM     15  C   UNL     1      13.382  14.554  23.949  0.00  0.00    +0.138 C 
BRANCH  15   9
ATOM      5  O   UNL     1      13.901  13.862  21.210  0.00  0.00    -0.270 OA
ATOM      9  N   UNL     1      14.519  13.840  23.446  0.00  0.00    -0.309 N 
ATOM     22  C   UNL     1      14.691  13.547  22.096  0.00  0.00    +0.244 C 
ATOM     37  H   UNL     1      15.239  13.596  24.119  0.00  0.00    +0.149 HD
BRANCH  22  25
ATOM     25  C   UNL     1      15.911  12.777  21.740  0.00  0.00    +0.037 A 
ATOM     29  C   UNL     1      16.712  12.234  22.745  0.00  0.00    +0.016 A 
ATOM     30  C   UNL     1      16.255  12.596  20.400  0.00  0.00    +0.016 A 
ATOM     31  C   UNL     1      17.857  11.512  22.410  0.00  0.00    +0.046 A 
ATOM     32  C   UNL     1      17.399  11.872  20.065  0.00  0.00    +0.046 A 
ATOM     33  C   UNL     1      18.200  11.331  21.071  0.00  0.00    +0.120 A 
BRANCH  33   6
ATOM      6  O   UNL     1      19.318  10.625  20.743  0.00  0.00    -0.495 OA
ATOM     34  C   UNL     1      20.509  10.922  21.472  0.00  0.00    +0.277 C 
ENDBRANCH  33   6
ENDBRANCH  22  25
ENDBRANCH  15   9
ENDBRANCH  13  15
TORSDOF 9
ENDMDL
MODEL 5
REMARK VINA RESULT:      -6.9      2.151      4.438
REMARK  Name = 40777982
REMARK  10 active torsions:
REMARK  status: ('A' for Active; 'I' for Inactive)
REMARK    1  A    between atoms: O_2  and  C_11
REMARK    2  A    between atoms: O_3  and  C_12
REMARK    3  A    between atoms: O_6  and  C_33
REMARK    4  A    between atoms: O_6  and  C_34
REMARK    5  A    between atoms: N_8  and  C_21
REMARK    6  A    between atoms: N_9  and  C_15
REMARK    7  A    between atoms: C_10  and  C_14
REMARK    8  A    between atoms: C_13  and  C_15
REMARK    9  A    between atoms: C_14  and  C_16
REMARK   10  A    between atoms: C_22  and  C_25
REMARK                            x       y       z     vdW  Elec       q    Type
REMARK                         _______ _______ _______ _____ _____    ______ ____
ROOT
ATOM      1  O   UNL     1      -8.724 -10.669  19.710  0.00  0.00    -0.366 OA
ATOM     10  C   UNL     1      -9.866 -10.800  18.833  0.00  0.00    +0.159 C 
ATOM     11  C   UNL     1      -9.489 -11.846  17.790  0.00  0.00    +0.175 C 
ATOM     12  C   UNL     1      -7.983 -11.692  17.720  0.00  0.00    +0.176 C 
ATOM     13  C   UNL     1      -7.634 -11.441  19.177  0.00  0.00    +0.167 C 
ENDROOT
BRANCH  11   2
ATOM      2  O   UNL     1      -9.831 -13.131  18.307  0.00  0.00    -0.387 OA
ATOM     35  H   UNL     1     -10.756 -13.087  18.604  0.00  0.00    +0.210 HD
ENDBRANCH  11   2
BRANCH  12   3
ATOM      3  O   UNL     1      -7.328 -12.832  17.207  0.00  0.00    -0.387 OA
ATOM     36  H   UNL     1      -6.406 -12.802  17.515  0.00  0.00    +0.210 HD
ENDBRANCH  12   3
BRANCH  10  14
ATOM     14  C   UNL     1     -10.148  -9.431  18.228  0.00  0.00    +0.130 C 
BRANCH  14  16
ATOM      4  O   UNL     1     -12.439 -10.004  18.470  0.00  0.00    -0.276 OA
ATOM      7  N   UNL     1     -11.926  -8.422  16.847  0.00  0.00    -0.298 N 
ATOM      8  N   UNL     1     -12.717  -6.438  14.894  0.00  0.00    -0.327 N 
ATOM     16  C   UNL     1     -11.609  -9.319  17.869  0.00  0.00    +0.218 C 
ATOM     17  C   UNL     1     -10.938  -7.609  16.134  0.00  0.00    +0.126 C 
ATOM     18  C   UNL     1     -13.320  -8.252  16.445  0.00  0.00    +0.126 C 
ATOM     19  C   UNL     1     -11.436  -7.138  14.768  0.00  0.00    +0.124 C 
ATOM     20  C   UNL     1     -13.612  -6.825  15.988  0.00  0.00    +0.124 C 
BRANCH   8  21
ATOM     21  C   UNL     1     -13.094  -5.457  13.980  0.00  0.00    +0.030 A 
ATOM     23  C   UNL     1     -14.446  -5.218  13.732  0.00  0.00    +0.023 A 
ATOM     24  C   UNL     1     -12.120  -4.712  13.315  0.00  0.00    +0.023 A 
ATOM     26  C   UNL     1     -14.823  -4.234  12.817  0.00  0.00    +0.002 A 
ATOM     27  C   UNL     1     -12.497  -3.729  12.401  0.00  0.00    +0.002 A 
ATOM     28  C   UNL     1     -13.849  -3.489  12.153  0.00  0.00    +0.000 A 
ENDBRANCH   8  21
ENDBRANCH  14  16
ENDBRANCH  10  14
BRANCH  13  15
ATOM     15  C   UNL     1      -6.331 -10.684  19.363  0.00  0.00    +0.138 C 
BRANCH  15   9
ATOM      5  O   UNL     1      -3.736 -11.777  18.802  0.00  0.00    -0.270 OA
ATOM      9  N   UNL     1      -5.609 -10.587  18.128  0.00  0.00    -0.309 N 
ATOM     22  C   UNL     1      -4.351 -11.150  17.943  0.00  0.00    +0.244 C 
ATOM     37  H   UNL     1      -6.084 -10.127  17.357  0.00  0.00    +0.149 HD
BRANCH  22  25
ATOM     25  C   UNL     1      -3.724 -10.938  16.613  0.00  0.00    +0.037 A 
ATOM     29  C   UNL     1      -2.341 -10.788  16.508  0.00  0.00    +0.016 A 
ATOM     30  C   UNL     1      -4.519 -10.889  15.467  0.00  0.00    +0.016 A 
ATOM     31  C   UNL     1      -1.754 -10.590  15.259  0.00  0.00    +0.046 A 
ATOM     32  C   UNL     1      -3.931 -10.691  14.218  0.00  0.00    +0.046 A 
ATOM     33  C   UNL     1      -2.548 -10.541  14.115  0.00  0.00    +0.120 A 
BRANCH  33   6
ATOM      6  O   UNL     1      -1.975 -10.347  12.895  0.00  0.00    -0.495 OA
ATOM     34  C   UNL     1      -2.726 -10.755  11.753  0.00  0.00    +0.277 C 
ENDBRANCH  33   6
ENDBRANCH  22  25
ENDBRANCH  15   9
ENDBRANCH  13  15
TORSDOF 9
ENDMDL
MODEL 6
REMARK VINA RESULT:      -6.9     25.102     29.817
REMARK  Name = 40777982
REMARK  10 active torsions:
REMARK  status: ('A' for Active; 'I' for Inactive)
REMARK    1  A    between atoms: O_2  and  C_11
REMARK    2  A    between atoms: O_3  and  C_12
REMARK    3  A    between atoms: O_6  and  C_33
REMARK    4  A    between atoms: O_6  and  C_34
REMARK    5  A    between atoms: N_8  and  C_21
REMARK    6  A    between atoms: N_9  and  C_15
REMARK    7  A    between atoms: C_10  and  C_14
REMARK    8  A    between atoms: C_13  and  C_15
REMARK    9  A    between atoms: C_14  and  C_16
REMARK   10  A    between atoms: C_22  and  C_25
REMARK                            x       y       z     vdW  Elec       q    Type
REMARK                         _______ _______ _______ _____ _____    ______ ____
ROOT
ATOM      1  O   UNL     1      11.311   6.666   6.577  0.00  0.00    -0.366 OA
ATOM     10  C   UNL     1      11.502   8.096   6.473  0.00  0.00    +0.159 C 
ATOM     11  C   UNL     1      10.141   8.731   6.733  0.00  0.00    +0.175 C 
ATOM     12  C   UNL     1       9.193   7.650   6.258  0.00  0.00    +0.176 C 
ATOM     13  C   UNL     1       9.907   6.392   6.723  0.00  0.00    +0.167 C 
ENDROOT
BRANCH  11   2
ATOM      2  O   UNL     1      10.005   8.926   8.140  0.00  0.00    -0.387 OA
ATOM     35  H   UNL     1       9.977   8.047   8.553  0.00  0.00    +0.210 HD
ENDBRANCH  11   2
BRANCH  12   3
ATOM      3  O   UNL     1       7.899   7.759   6.810  0.00  0.00    -0.387 OA
ATOM     36  H   UNL     1       7.948   8.391   7.547  0.00  0.00    +0.210 HD
ENDBRANCH  12   3
BRANCH  10  14
ATOM     14  C   UNL     1      12.042   8.393   5.080  0.00  0.00    +0.130 C 
BRANCH  14  16
ATOM      4  O   UNL     1      12.588  10.700   5.200  0.00  0.00    -0.276 OA
ATOM      7  N   UNL     1      14.370   9.209   5.122  0.00  0.00    -0.298 N 
ATOM      8  N   UNL     1      17.197   8.618   5.308  0.00  0.00    -0.327 N 
ATOM     16  C   UNL     1      13.015   9.544   5.141  0.00  0.00    +0.218 C 
ATOM     17  C   UNL     1      14.874   7.836   5.052  0.00  0.00    +0.126 C 
ATOM     18  C   UNL     1      15.374  10.268   5.185  0.00  0.00    +0.126 C 
ATOM     19  C   UNL     1      16.306   7.758   4.524  0.00  0.00    +0.124 C 
ATOM     20  C   UNL     1      16.631   9.820   5.927  0.00  0.00    +0.124 C 
BRANCH   8  21
ATOM     21  C   UNL     1      18.553   8.325   5.433  0.00  0.00    +0.030 A 
ATOM     23  C   UNL     1      19.203   8.540   6.649  0.00  0.00    +0.023 A 
ATOM     24  C   UNL     1      19.260   7.816   4.344  0.00  0.00    +0.023 A 
ATOM     26  C   UNL     1      20.561   8.245   6.774  0.00  0.00    +0.002 A 
ATOM     27  C   UNL     1      20.617   7.522   4.470  0.00  0.00    +0.002 A 
ATOM     28  C   UNL     1      21.267   7.736   5.685  0.00  0.00    +0.000 A 
ENDBRANCH   8  21
ENDBRANCH  14  16
ENDBRANCH  10  14
BRANCH  13  15
ATOM     15  C   UNL     1       9.540   5.158   5.917  0.00  0.00    +0.138 C 
BRANCH  15   9
ATOM      5  O   UNL     1       9.645   6.075   3.198  0.00  0.00    -0.270 OA
ATOM      9  N   UNL     1      10.552   4.853   4.949  0.00  0.00    -0.309 N 
ATOM     22  C   UNL     1      10.524   5.343   3.647  0.00  0.00    +0.244 C 
ATOM     37  H   UNL     1      11.339   4.297   5.270  0.00  0.00    +0.149 HD
BRANCH  22  25
ATOM     25  C   UNL     1      11.634   4.914   2.758  0.00  0.00    +0.037 A 
ATOM     29  C   UNL     1      11.733   3.580   2.359  0.00  0.00    +0.016 A 
ATOM     30  C   UNL     1      12.578   5.844   2.321  0.00  0.00    +0.016 A 
ATOM     31  C   UNL     1      12.775   3.178   1.525  0.00  0.00    +0.046 A 
ATOM     32  C   UNL     1      13.619   5.441   1.485  0.00  0.00    +0.046 A 
ATOM     33  C   UNL     1      13.718   4.107   1.088  0.00  0.00    +0.120 A 
BRANCH  33   6
ATOM      6  O   UNL     1      14.736   3.714   0.273  0.00  0.00    -0.495 OA
ATOM     34  C   UNL     1      15.898   4.540   0.243  0.00  0.00    +0.277 C 
ENDBRANCH  33   6
ENDBRANCH  22  25
ENDBRANCH  15   9
ENDBRANCH  13  15
TORSDOF 9
ENDMDL
MODEL 7
REMARK VINA RESULT:      -6.8     28.937     32.619
REMARK  Name = 40777982
REMARK  10 active torsions:
REMARK  status: ('A' for Active; 'I' for Inactive)
REMARK    1  A    between atoms: O_2  and  C_11
REMARK    2  A    between atoms: O_3  and  C_12
REMARK    3  A    between atoms: O_6  and  C_33
REMARK    4  A    between atoms: O_6  and  C_34
REMARK    5  A    between atoms: N_8  and  C_21
REMARK    6  A    between atoms: N_9  and  C_15
REMARK    7  A    between atoms: C_10  and  C_14
REMARK    8  A    between atoms: C_13  and  C_15
REMARK    9  A    between atoms: C_14  and  C_16
REMARK   10  A    between atoms: C_22  and  C_25
REMARK                            x       y       z     vdW  Elec       q    Type
REMARK                         _______ _______ _______ _____ _____    ______ ____
ROOT
ATOM      1  O   UNL     1      20.454   5.491  22.309  0.00  0.00    -0.366 OA
ATOM     10  C   UNL     1      21.443   6.129  23.149  0.00  0.00    +0.159 C 
ATOM     11  C   UNL     1      20.842   7.461  23.584  0.00  0.00    +0.175 C 
ATOM     12  C   UNL     1      19.920   7.783  22.426  0.00  0.00    +0.176 C 
ATOM     13  C   UNL     1      19.372   6.409  22.080  0.00  0.00    +0.167 C 
ENDROOT
BRANCH  11   2
ATOM      2  O   UNL     1      20.084   7.237  24.772  0.00  0.00    -0.387 OA
ATOM     35  H   UNL     1      20.663   6.777  25.404  0.00  0.00    +0.210 HD
ENDBRANCH  11   2
BRANCH  12   3
ATOM      3  O   UNL     1      18.894   8.693  22.764  0.00  0.00    -0.387 OA
ATOM     36  H   UNL     1      18.907   9.405  22.103  0.00  0.00    +0.210 HD
ENDBRANCH  12   3
BRANCH  10  14
ATOM     14  C   UNL     1      22.716   6.290  22.329  0.00  0.00    +0.130 C 
BRANCH  14  16
ATOM      4  O   UNL     1      22.462   5.355  20.162  0.00  0.00    -0.276 OA
ATOM      7  N   UNL     1      23.346   3.964  21.801  0.00  0.00    -0.298 N 
ATOM      8  N   UNL     1      24.609   1.494  22.625  0.00  0.00    -0.327 N 
ATOM     16  C   UNL     1      22.826   5.170  21.325  0.00  0.00    +0.218 C 
ATOM     17  C   UNL     1      23.778   3.746  23.183  0.00  0.00    +0.126 C 
ATOM     18  C   UNL     1      23.490   2.833  20.888  0.00  0.00    +0.126 C 
ATOM     19  C   UNL     1      23.798   2.268  23.570  0.00  0.00    +0.124 C 
ATOM     20  C   UNL     1      24.697   1.966  21.241  0.00  0.00    +0.124 C 
BRANCH   8  21
ATOM     21  C   UNL     1      25.249   0.322  23.019  0.00  0.00    +0.030 A 
ATOM     23  C   UNL     1      25.175  -0.101  24.347  0.00  0.00    +0.023 A 
ATOM     24  C   UNL     1      25.964  -0.430  22.087  0.00  0.00    +0.023 A 
ATOM     26  C   UNL     1      25.817  -1.275  24.741  0.00  0.00    +0.002 A 
ATOM     27  C   UNL     1      26.605  -1.604  22.482  0.00  0.00    +0.002 A 
ATOM     28  C   UNL     1      26.530  -2.027  23.809  0.00  0.00    +0.000 A 
ENDBRANCH   8  21
ENDBRANCH  14  16
ENDBRANCH  10  14
BRANCH  13  15
ATOM     15  C   UNL     1      18.898   6.293  20.643  0.00  0.00    +0.138 C 
BRANCH  15   9
ATOM      5  O   UNL     1      17.090   5.519  18.551  0.00  0.00    -0.270 OA
ATOM      9  N   UNL     1      17.518   6.663  20.522  0.00  0.00    -0.309 N 
ATOM     22  C   UNL     1      16.712   6.240  19.470  0.00  0.00    +0.244 C 
ATOM     37  H   UNL     1      17.126   7.214  21.279  0.00  0.00    +0.149 HD
BRANCH  22  25
ATOM     25  C   UNL     1      15.310   6.732  19.476  0.00  0.00    +0.037 A 
ATOM     29  C   UNL     1      14.541   6.635  20.636  0.00  0.00    +0.016 A 
ATOM     30  C   UNL     1      14.762   7.291  18.322  0.00  0.00    +0.016 A 
ATOM     31  C   UNL     1      13.225   7.097  20.641  0.00  0.00    +0.046 A 
ATOM     32  C   UNL     1      13.447   7.754  18.327  0.00  0.00    +0.046 A 
ATOM     33  C   UNL     1      12.678   7.656  19.487  0.00  0.00    +0.120 A 
BRANCH  33   6
ATOM      6  O   UNL     1      11.393   8.108  19.492  0.00  0.00    -0.495 OA
ATOM     34  C   UNL     1      10.730   8.163  20.754  0.00  0.00    +0.277 C 
ENDBRANCH  33   6
ENDBRANCH  22  25
ENDBRANCH  15   9
ENDBRANCH  13  15
TORSDOF 9
ENDMDL
MODEL 8
REMARK VINA RESULT:      -6.7      2.531      5.185
REMARK  Name = 40777982
REMARK  10 active torsions:
REMARK  status: ('A' for Active; 'I' for Inactive)
REMARK    1  A    between atoms: O_2  and  C_11
REMARK    2  A    between atoms: O_3  and  C_12
REMARK    3  A    between atoms: O_6  and  C_33
REMARK    4  A    between atoms: O_6  and  C_34
REMARK    5  A    between atoms: N_8  and  C_21
REMARK    6  A    between atoms: N_9  and  C_15
REMARK    7  A    between atoms: C_10  and  C_14
REMARK    8  A    between atoms: C_13  and  C_15
REMARK    9  A    between atoms: C_14  and  C_16
REMARK   10  A    between atoms: C_22  and  C_25
REMARK                            x       y       z     vdW  Elec       q    Type
REMARK                         _______ _______ _______ _____ _____    ______ ____
ROOT
ATOM      1  O   UNL     1      -8.377 -10.962  19.818  0.00  0.00    -0.366 OA
ATOM     10  C   UNL     1      -9.412 -11.279  18.860  0.00  0.00    +0.159 C 
ATOM     11  C   UNL     1      -8.932 -12.511  18.101  0.00  0.00    +0.175 C 
ATOM     12  C   UNL     1      -7.427 -12.358  18.175  0.00  0.00    +0.176 C 
ATOM     13  C   UNL     1      -7.244 -11.814  19.581  0.00  0.00    +0.167 C 
ENDROOT
BRANCH  11   2
ATOM      2  O   UNL     1      -9.349 -13.667  18.824  0.00  0.00    -0.387 OA
ATOM     35  H   UNL     1     -10.129 -14.029  18.371  0.00  0.00    +0.210 HD
ENDBRANCH  11   2
BRANCH  12   3
ATOM      3  O   UNL     1      -6.732 -13.572  17.982  0.00  0.00    -0.387 OA
ATOM     36  H   UNL     1      -6.604 -13.978  18.856  0.00  0.00    +0.210 HD
ENDBRANCH  12   3
BRANCH  10  14
ATOM     14  C   UNL     1      -9.605 -10.063  17.963  0.00  0.00    +0.130 C 
BRANCH  14  16
ATOM      4  O   UNL     1     -11.378 -10.973  16.673  0.00  0.00    -0.276 OA
ATOM      7  N   UNL     1      -9.492 -10.275  15.508  0.00  0.00    -0.298 N 
ATOM      8  N   UNL     1      -8.105  -9.695  13.034  0.00  0.00    -0.327 N 
ATOM     16  C   UNL     1     -10.248 -10.480  16.664  0.00  0.00    +0.218 C 
ATOM     17  C   UNL     1      -8.150  -9.689  15.499  0.00  0.00    +0.126 C 
ATOM     18  C   UNL     1     -10.048 -10.646  14.209  0.00  0.00    +0.126 C 
ATOM     19  C   UNL     1      -7.356 -10.049  14.243  0.00  0.00    +0.124 C 
ATOM     20  C   UNL     1      -9.569  -9.717  13.096  0.00  0.00    +0.124 C 
BRANCH   8  21
ATOM     21  C   UNL     1      -7.447  -9.381  11.848  0.00  0.00    +0.030 A 
ATOM     23  C   UNL     1      -6.128  -8.926  11.881  0.00  0.00    +0.023 A 
ATOM     24  C   UNL     1      -8.107  -9.521  10.626  0.00  0.00    +0.023 A 
ATOM     26  C   UNL     1      -5.470  -8.612  10.691  0.00  0.00    +0.002 A 
ATOM     27  C   UNL     1      -7.448  -9.207   9.438  0.00  0.00    +0.002 A 
ATOM     28  C   UNL     1      -6.130  -8.753   9.471  0.00  0.00    +0.000 A 
ENDBRANCH   8  21
ENDBRANCH  14  16
ENDBRANCH  10  14
BRANCH  13  15
ATOM     15  C   UNL     1      -5.961 -11.022  19.759  0.00  0.00    +0.138 C 
BRANCH  15   9
ATOM      5  O   UNL     1      -3.377 -12.053  19.047  0.00  0.00    -0.270 OA
ATOM      9  N   UNL     1      -5.284 -10.847  18.508  0.00  0.00    -0.309 N 
ATOM     22  C   UNL     1      -4.027 -11.385  18.247  0.00  0.00    +0.244 C 
ATOM     37  H   UNL     1      -5.789 -10.350  17.781  0.00  0.00    +0.149 HD
BRANCH  22  25
ATOM     25  C   UNL     1      -3.450 -11.091  16.910  0.00  0.00    +0.037 A 
ATOM     29  C   UNL     1      -4.281 -11.013  15.793  0.00  0.00    +0.016 A 
ATOM     30  C   UNL     1      -2.076 -10.893  16.772  0.00  0.00    +0.016 A 
ATOM     31  C   UNL     1      -3.738 -10.738  14.538  0.00  0.00    +0.046 A 
ATOM     32  C   UNL     1      -1.533 -10.616  15.518  0.00  0.00    +0.046 A 
ATOM     33  C   UNL     1      -2.365 -10.539  14.400  0.00  0.00    +0.120 A 
BRANCH  33   6
ATOM      6  O   UNL     1      -1.835 -10.270  13.175  0.00  0.00    -0.495 OA
ATOM     34  C   UNL     1      -2.615 -10.634  12.037  0.00  0.00    +0.277 C 
ENDBRANCH  33   6
ENDBRANCH  22  25
ENDBRANCH  15   9
ENDBRANCH  13  15
TORSDOF 9
ENDMDL
MODEL 9
REMARK VINA RESULT:      -6.6      2.365      7.709
REMARK  Name = 40777982
REMARK  10 active torsions:
REMARK  status: ('A' for Active; 'I' for Inactive)
REMARK    1  A    between atoms: O_2  and  C_11
REMARK    2  A    between atoms: O_3  and  C_12
REMARK    3  A    between atoms: O_6  and  C_33
REMARK    4  A    between atoms: O_6  and  C_34
REMARK    5  A    between atoms: N_8  and  C_21
REMARK    6  A    between atoms: N_9  and  C_15
REMARK    7  A    between atoms: C_10  and  C_14
REMARK    8  A    between atoms: C_13  and  C_15
REMARK    9  A    between atoms: C_14  and  C_16
REMARK   10  A    between atoms: C_22  and  C_25
REMARK                            x       y       z     vdW  Elec       q    Type
REMARK                         _______ _______ _______ _____ _____    ______ ____
ROOT
ATOM      1  O   UNL     1      -6.360 -12.229  17.771  0.00  0.00    -0.366 OA
ATOM     10  C   UNL     1      -5.494 -11.184  18.269  0.00  0.00    +0.159 C 
ATOM     11  C   UNL     1      -6.246 -10.509  19.410  0.00  0.00    +0.175 C 
ATOM     12  C   UNL     1      -7.690 -10.726  19.006  0.00  0.00    +0.176 C 
ATOM     13  C   UNL     1      -7.637 -12.127  18.423  0.00  0.00    +0.167 C 
ENDROOT
BRANCH  11   2
ATOM      2  O   UNL     1      -5.956 -11.221  20.612  0.00  0.00    -0.387 OA
ATOM     35  H   UNL     1      -5.329 -11.929  20.388  0.00  0.00    +0.210 HD
ENDBRANCH  11   2
BRANCH  12   3
ATOM      3  O   UNL     1      -8.592 -10.635  20.087  0.00  0.00    -0.387 OA
ATOM     36  H   UNL     1      -8.406  -9.803  20.555  0.00  0.00    +0.210 HD
ENDBRANCH  12   3
BRANCH  10  14
ATOM     14  C   UNL     1      -5.193 -10.239  17.113  0.00  0.00    +0.130 C 
BRANCH  14  16
ATOM      4  O   UNL     1      -2.962 -11.045  17.009  0.00  0.00    -0.276 OA
ATOM      7  N   UNL     1      -4.049 -10.718  14.980  0.00  0.00    -0.298 N 
ATOM      8  N   UNL     1      -4.190 -10.989  12.102  0.00  0.00    -0.327 N 
ATOM     16  C   UNL     1      -3.963 -10.706  16.374  0.00  0.00    +0.218 C 
ATOM     17  C   UNL     1      -5.239 -10.315  14.228  0.00  0.00    +0.126 C 
ATOM     18  C   UNL     1      -2.902 -11.165  14.193  0.00  0.00    +0.126 C 
ATOM     19  C   UNL     1      -4.921  -9.919  12.786  0.00  0.00    +0.124 C 
ATOM     20  C   UNL     1      -3.331 -11.864  12.905  0.00  0.00    +0.124 C 
BRANCH   8  21
ATOM     21  C   UNL     1      -4.277 -11.151  10.721  0.00  0.00    +0.030 A 
ATOM     23  C   UNL     1      -4.115 -12.416  10.156  0.00  0.00    +0.023 A 
ATOM     24  C   UNL     1      -4.528 -10.048   9.904  0.00  0.00    +0.023 A 
ATOM     26  C   UNL     1      -4.204 -12.577   8.773  0.00  0.00    +0.002 A 
ATOM     27  C   UNL     1      -4.617 -10.211   8.522  0.00  0.00    +0.002 A 
ATOM     28  C   UNL     1      -4.455 -11.475   7.957  0.00  0.00    +0.000 A 
ENDBRANCH   8  21
ENDBRANCH  14  16
ENDBRANCH  10  14
BRANCH  13  15
ATOM     15  C   UNL     1      -8.746 -12.407  17.424  0.00  0.00    +0.138 C 
BRANCH  15   9
ATOM      5  O   UNL     1      -8.425 -10.983  14.951  0.00  0.00    -0.270 OA
ATOM      9  N   UNL     1      -9.412 -11.198  17.039  0.00  0.00    -0.309 N 
ATOM     22  C   UNL     1      -9.196 -10.573  15.815  0.00  0.00    +0.244 C 
ATOM     37  H   UNL     1     -10.105 -10.833  17.685  0.00  0.00    +0.149 HD
BRANCH  22  25
ATOM     25  C   UNL     1      -9.945  -9.312  15.578  0.00  0.00    +0.037 A 
ATOM     29  C   UNL     1      -9.756  -8.219  16.424  0.00  0.00    +0.016 A 
ATOM     30  C   UNL     1     -10.836  -9.220  14.509  0.00  0.00    +0.016 A 
ATOM     31  C   UNL     1     -10.460  -7.035  16.202  0.00  0.00    +0.046 A 
ATOM     32  C   UNL     1     -11.539  -8.036  14.286  0.00  0.00    +0.046 A 
ATOM     33  C   UNL     1     -11.350  -6.944  15.133  0.00  0.00    +0.120 A 
BRANCH  33   6
ATOM      6  O   UNL     1     -12.037  -5.788  14.915  0.00  0.00    -0.495 OA
ATOM     34  C   UNL     1     -13.459  -5.884  14.838  0.00  0.00    +0.277 C 
ENDBRANCH  33   6
ENDBRANCH  22  25
ENDBRANCH  15   9
ENDBRANCH  13  15
TORSDOF 9
ENDMDL
MODEL 10
REMARK VINA RESULT:      -6.5      3.651      7.606
REMARK  Name = 40777982
REMARK  10 active torsions:
REMARK  status: ('A' for Active; 'I' for Inactive)
REMARK    1  A    between atoms: O_2  and  C_11
REMARK    2  A    between atoms: O_3  and  C_12
REMARK    3  A    between atoms: O_6  and  C_33
REMARK    4  A    between atoms: O_6  and  C_34
REMARK    5  A    between atoms: N_8  and  C_21
REMARK    6  A    between atoms: N_9  and  C_15
REMARK    7  A    between atoms: C_10  and  C_14
REMARK    8  A    between atoms: C_13  and  C_15
REMARK    9  A    between atoms: C_14  and  C_16
REMARK   10  A    between atoms: C_22  and  C_25
REMARK                            x       y       z     vdW  Elec       q    Type
REMARK                         _______ _______ _______ _____ _____    ______ ____
ROOT
ATOM      1  O   UNL     1      -8.590  -9.661   7.563  0.00  0.00    -0.366 OA
ATOM     10  C   UNL     1      -9.278  -9.286   8.778  0.00  0.00    +0.159 C 
ATOM     11  C   UNL     1      -8.882  -7.843   9.069  0.00  0.00    +0.175 C 
ATOM     12  C   UNL     1      -7.505  -7.763   8.443  0.00  0.00    +0.176 C 
ATOM     13  C   UNL     1      -7.688  -8.605   7.192  0.00  0.00    +0.167 C 
ENDROOT
BRANCH  11   2
ATOM      2  O   UNL     1      -9.790  -6.987   8.377  0.00  0.00    -0.387 OA
ATOM     35  H   UNL     1     -10.411  -7.555   7.890  0.00  0.00    +0.210 HD
ENDBRANCH  11   2
BRANCH  12   3
ATOM      3  O   UNL     1      -7.104  -6.444   8.141  0.00  0.00    -0.387 OA
ATOM     36  H   UNL     1      -7.493  -6.210   7.281  0.00  0.00    +0.210 HD
ENDBRANCH  12   3
BRANCH  10  14
ATOM     14  C   UNL     1      -8.850 -10.254   9.874  0.00  0.00    +0.130 C 
BRANCH  14  16
ATOM      4  O   UNL     1     -10.648  -9.486  11.220  0.00  0.00    -0.276 OA
ATOM      7  N   UNL     1      -8.639  -9.914  12.308  0.00  0.00    -0.298 N 
ATOM      8  N   UNL     1      -7.073 -10.217  14.724  0.00  0.00    -0.327 N 
ATOM     16  C   UNL     1      -9.470  -9.849  11.188  0.00  0.00    +0.218 C 
ATOM     17  C   UNL     1      -7.240 -10.346  12.268  0.00  0.00    +0.126 C 
ATOM     18  C   UNL     1      -9.169  -9.545  13.619  0.00  0.00    +0.126 C 
ATOM     19  C   UNL     1      -6.431  -9.839  13.462  0.00  0.00    +0.124 C 
ATOM     20  C   UNL     1      -8.532 -10.361  14.742  0.00  0.00    +0.124 C 
BRANCH   8  21
ATOM     21  C   UNL     1      -6.326 -10.399  15.884  0.00  0.00    +0.030 A 
ATOM     23  C   UNL     1      -6.969 -10.504  17.118  0.00  0.00    +0.023 A 
ATOM     24  C   UNL     1      -4.935 -10.478  15.814  0.00  0.00    +0.023 A 
ATOM     26  C   UNL     1      -6.220 -10.688  18.281  0.00  0.00    +0.002 A 
ATOM     27  C   UNL     1      -4.187 -10.662  16.976  0.00  0.00    +0.002 A 
ATOM     28  C   UNL     1      -4.830 -10.767  18.210  0.00  0.00    +0.000 A 
ENDBRANCH   8  21
ENDBRANCH  14  16
ENDBRANCH  10  14
BRANCH  13  15
ATOM     15  C   UNL     1      -6.392  -9.198   6.669  0.00  0.00    +0.138 C 
BRANCH  15   9
ATOM      5  O   UNL     1      -6.049 -11.706   8.025  0.00  0.00    -0.270 OA
ATOM      9  N   UNL     1      -5.481  -9.475   7.741  0.00  0.00    -0.309 N 
ATOM     22  C   UNL     1      -5.380 -10.726   8.342  0.00  0.00    +0.244 C 
ATOM     37  H   UNL     1      -4.858  -8.722   8.016  0.00  0.00    +0.149 HD
BRANCH  22  25
ATOM     25  C   UNL     1      -4.406 -10.843   9.457  0.00  0.00    +0.037 A 
ATOM     29  C   UNL     1      -3.708  -9.717   9.896  0.00  0.00    +0.016 A 
ATOM     30  C   UNL     1      -4.188 -12.079  10.066  0.00  0.00    +0.016 A 
ATOM     31  C   UNL     1      -2.794  -9.828  10.943  0.00  0.00    +0.046 A 
ATOM     32  C   UNL     1      -3.274 -12.190  11.114  0.00  0.00    +0.046 A 
ATOM     33  C   UNL     1      -2.576 -11.064  11.552  0.00  0.00    +0.120 A 
BRANCH  33   6
ATOM      6  O   UNL     1      -1.683 -11.172  12.574  0.00  0.00    -0.495 OA
ATOM     34  C   UNL     1      -1.862 -10.297  13.687  0.00  0.00    +0.277 C 
ENDBRANCH  33   6
ENDBRANCH  22  25
ENDBRANCH  15   9
ENDBRANCH  13  15
TORSDOF 9
ENDMDL
