REMARK  Name = 26744106
REMARK  7 active torsions:
REMARK  status: ('A' for Active; 'I' for Inactive)
REMARK    1  A    between atoms: O_1  and  C_8
REMARK    2  A    between atoms: N_3  and  C_10
REMARK    3  A    between atoms: C_6  and  C_11
REMARK    4  A    between atoms: C_10  and  C_12
REMARK    5  A    between atoms: C_15  and  C_16
REMARK    6  A    between atoms: C_16  and  C_20
REMARK    7  A    between atoms: C_19  and  C_21
REMARK                            x       y       z     vdW  Elec       q    Type
REMARK                         _______ _______ _______ _____ _____    ______ ____
ROOT
ATOM      3  N   UNL     1       2.755   0.575   0.632  0.00  0.00    -0.285 NA
ATOM      6  C   UNL     1       2.827  -0.237  -0.600  0.00  0.00    +0.149 C 
ATOM      7  C   UNL     1       3.864  -1.333  -0.289  0.00  0.00    +0.061 C 
ATOM      8  C   UNL     1       4.350  -1.027   1.122  0.00  0.00    +0.130 C 
ATOM      9  C   UNL     1       4.057   0.453   1.286  0.00  0.00    +0.116 C 
ENDROOT
BRANCH   6  11
ATOM      2  O   UNL     1       1.039  -0.477  -2.248  0.00  0.00    -0.336 OA
ATOM      4  N   UNL     1       0.665  -1.567  -0.328  0.00  0.00    -0.194 NA
ATOM      5  N   UNL     1      -0.206  -1.103  -2.392  0.00  0.00    -0.061 NA
ATOM     11  C   UNL     1       1.482  -0.801  -1.006  0.00  0.00    +0.245 A 
ATOM     15  C   UNL     1      -0.356  -1.725  -1.219  0.00  0.00    +0.176 A 
BRANCH  15  16
ATOM     16  C   UNL     1      -1.546  -2.526  -0.911  0.00  0.00    +0.114 C 
BRANCH  16  20
ATOM     20  C   UNL     1      -2.567  -1.836  -0.012  0.00  0.00    -0.040 A 
ATOM     22  C   UNL     1      -2.365  -1.793   1.368  0.00  0.00    +0.004 A 
ATOM     23  C   UNL     1      -3.701  -1.247  -0.569  0.00  0.00    +0.004 A 
ATOM     24  C   UNL     1      -3.299  -1.161   2.190  0.00  0.00    +0.000 A 
ATOM     25  C   UNL     1      -4.635  -0.615   0.253  0.00  0.00    +0.000 A 
ATOM     26  C   UNL     1      -4.434  -0.573   1.632  0.00  0.00    +0.000 A 
ENDBRANCH  16  20
ENDBRANCH  15  16
ENDBRANCH   6  11
BRANCH   8   1
ATOM      1  O   UNL     1       5.731  -1.305   1.248  0.00  0.00    -0.390 OA
ATOM     27  H   UNL     1       5.857  -2.250   1.058  0.00  0.00    +0.210 HD
ENDBRANCH   8   1
BRANCH   3  10
ATOM     10  C   UNL     1       2.394   1.965   0.384  0.00  0.00    +0.120 C 
BRANCH  10  12
ATOM     12  C   UNL     1       0.913   2.131   0.174  0.00  0.00    -0.033 A 
ATOM     13  C   UNL     1       0.435   2.678  -1.017  0.00  0.00    +0.005 A 
ATOM     14  C   UNL     1       0.019   1.740   1.171  0.00  0.00    +0.005 A 
ATOM     17  C   UNL     1      -0.938   2.834  -1.211  0.00  0.00    +0.003 A 
ATOM     18  C   UNL     1      -1.354   1.896   0.976  0.00  0.00    +0.003 A 
ATOM     19  C   UNL     1      -1.832   2.443  -0.214  0.00  0.00    -0.050 A 
ATOM     21  C   UNL     1      -3.299   2.611  -0.422  0.00  0.00    +0.044 C 
ENDBRANCH  10  12
ENDBRANCH   3  10
TORSDOF 6
