MODEL 1
REMARK VINA RESULT:      -6.4      0.000      0.000
REMARK  Name = 28962241
REMARK  11 active torsions:
REMARK  status: ('A' for Active; 'I' for Inactive)
REMARK    1  A    between atoms: O_2  and  C_10
REMARK    2  A    between atoms: O_3  and  C_16
REMARK    3  A    between atoms: N_5  and  C_8
REMARK    4  A    between atoms: N_5  and  C_17
REMARK    5  A    between atoms: N_5  and  C_21
REMARK    6  A    between atoms: N_6  and  C_12
REMARK    7  A    between atoms: C_9  and  C_12
REMARK    8  A    between atoms: C_11  and  C_16
REMARK    9  A    between atoms: C_13  and  C_20
REMARK   10  A    between atoms: C_17  and  C_22
REMARK   11  A    between atoms: C_22  and  C_23
REMARK                            x       y       z     vdW  Elec       q    Type
REMARK                         _______ _______ _______ _____ _____    ______ ____
ROOT
ATOM      1  O   UNL     1      12.380   8.277  22.274  0.00  0.00    -0.365 OA
ATOM      8  C   UNL     1      13.165   7.731  20.095  0.00  0.00    +0.118 C 
ATOM      9  C   UNL     1      13.378   8.656  21.300  0.00  0.00    +0.155 C 
ATOM     10  C   UNL     1      11.695   7.359  20.203  0.00  0.00    +0.165 C 
ATOM     11  C   UNL     1      11.545   7.246  21.715  0.00  0.00    +0.174 C 
ENDROOT
BRANCH  10   2
ATOM      2  O   UNL     1      10.858   8.393  19.699  0.00  0.00    -0.388 OA
ATOM     29  H   UNL     1      10.833   8.305  18.731  0.00  0.00    +0.210 HD
ENDBRANCH  10   2
BRANCH   8   5
ATOM      5  N   UNL     1      13.579   8.254  18.804  0.00  0.00    -0.297 NA
ATOM     21  C   UNL     1      12.935   7.518  17.713  0.00  0.00    +0.105 C 
BRANCH   5  17
ATOM     17  C   UNL     1      15.037   8.192  18.659  0.00  0.00    +0.090 C 
BRANCH  17  22
ATOM     22  C   UNL     1      15.567   6.813  19.054  0.00  0.00    +0.071 C 
BRANCH  22  23
ATOM      7  N   UNL     1      16.926   7.924  20.742  0.00  0.00    -0.260 NA
ATOM     23  C   UNL     1      16.847   6.918  19.843  0.00  0.00    +0.042 A 
ATOM     24  C   UNL     1      17.859   5.998  19.619  0.00  0.00    +0.023 A 
ATOM     25  C   UNL     1      19.027   6.121  20.364  0.00  0.00    +0.003 A 
ATOM     26  C   UNL     1      18.075   8.012  21.447  0.00  0.00    +0.111 A 
ATOM     27  C   UNL     1      19.145   7.145  21.298  0.00  0.00    +0.020 A 
ENDBRANCH  22  23
ENDBRANCH  17  22
ENDBRANCH   5  17
ENDBRANCH   8   5
BRANCH   9  12
ATOM     12  C   UNL     1      13.222  10.152  21.051  0.00  0.00    +0.137 C 
BRANCH  12   6
ATOM      4  O   UNL     1      12.942  12.824  22.150  0.00  0.00    -0.276 OA
ATOM      6  N   UNL     1      12.107  10.682  21.775  0.00  0.00    -0.313 N 
ATOM     20  C   UNL     1      12.056  11.981  22.269  0.00  0.00    +0.216 C 
ATOM     28  H   UNL     1      11.313  10.066  21.927  0.00  0.00    +0.149 HD
BRANCH  20  13
ATOM     13  C   UNL     1      10.765  12.286  22.965  0.00  0.00    +0.075 C 
ATOM     14  C   UNL     1      10.643  13.792  23.226  0.00  0.00    +0.013 C 
ATOM     15  C   UNL     1      10.718  11.608  24.336  0.00  0.00    +0.013 C 
ATOM     18  C   UNL     1      10.428  13.937  24.729  0.00  0.00    +0.001 C 
ATOM     19  C   UNL     1      11.092  12.707  25.319  0.00  0.00    +0.001 C 
ENDBRANCH  20  13
ENDBRANCH  12   6
ENDBRANCH   9  12
BRANCH  11  16
ATOM     16  C   UNL     1      10.131   7.406  22.245  0.00  0.00    +0.190 C 
BRANCH  16   3
ATOM      3  O   UNL     1       9.836   8.789  22.356  0.00  0.00    -0.392 OA
ATOM     30  H   UNL     1       8.868   8.874  22.393  0.00  0.00    +0.210 HD
ENDBRANCH  16   3
ENDBRANCH  11  16
TORSDOF 10
ENDMDL
MODEL 2
REMARK VINA RESULT:      -6.1      1.744      7.631
REMARK  Name = 28962241
REMARK  11 active torsions:
REMARK  status: ('A' for Active; 'I' for Inactive)
REMARK    1  A    between atoms: O_2  and  C_10
REMARK    2  A    between atoms: O_3  and  C_16
REMARK    3  A    between atoms: N_5  and  C_8
REMARK    4  A    between atoms: N_5  and  C_17
REMARK    5  A    between atoms: N_5  and  C_21
REMARK    6  A    between atoms: N_6  and  C_12
REMARK    7  A    between atoms: C_9  and  C_12
REMARK    8  A    between atoms: C_11  and  C_16
REMARK    9  A    between atoms: C_13  and  C_20
REMARK   10  A    between atoms: C_17  and  C_22
REMARK   11  A    between atoms: C_22  and  C_23
REMARK                            x       y       z     vdW  Elec       q    Type
REMARK                         _______ _______ _______ _____ _____    ______ ____
ROOT
ATOM      1  O   UNL     1      13.871   9.178  19.722  0.00  0.00    -0.365 OA
ATOM      8  C   UNL     1      11.971   9.064  21.151  0.00  0.00    +0.118 C 
ATOM      9  C   UNL     1      13.466   9.403  21.090  0.00  0.00    +0.155 C 
ATOM     10  C   UNL     1      11.798   8.073  20.011  0.00  0.00    +0.165 C 
ATOM     11  C   UNL     1      12.750   8.663  18.978  0.00  0.00    +0.174 C 
ENDROOT
BRANCH  10   2
ATOM      2  O   UNL     1      12.223   6.768  20.386  0.00  0.00    -0.388 OA
ATOM     29  H   UNL     1      12.996   6.865  20.967  0.00  0.00    +0.210 HD
ENDBRANCH  10   2
BRANCH   8   5
ATOM      5  N   UNL     1      11.465   8.622  22.439  0.00  0.00    -0.297 NA
ATOM     21  C   UNL     1      10.240   7.835  22.275  0.00  0.00    +0.105 C 
BRANCH   5  17
ATOM     17  C   UNL     1      11.213   9.766  23.320  0.00  0.00    +0.090 C 
BRANCH  17  22
ATOM     22  C   UNL     1      11.095  11.061  22.516  0.00  0.00    +0.071 C 
BRANCH  22  23
ATOM      7  N   UNL     1      10.895  12.027  24.742  0.00  0.00    -0.260 NA
ATOM     23  C   UNL     1      10.836  12.247  23.410  0.00  0.00    +0.042 A 
ATOM     24  C   UNL     1      10.559  13.478  22.839  0.00  0.00    +0.023 A 
ATOM     25  C   UNL     1      10.325  14.553  23.691  0.00  0.00    +0.003 A 
ATOM     26  C   UNL     1      10.663  13.094  25.538  0.00  0.00    +0.111 A 
ATOM     27  C   UNL     1      10.377  14.365  25.068  0.00  0.00    +0.020 A 
ENDBRANCH  22  23
ENDBRANCH  17  22
ENDBRANCH   5  17
ENDBRANCH   8   5
BRANCH   9  12
ATOM     12  C   UNL     1      14.392   8.579  21.977  0.00  0.00    +0.137 C 
BRANCH  12   6
ATOM      4  O   UNL     1      15.351   6.243  20.546  0.00  0.00    -0.276 OA
ATOM      6  N   UNL     1      15.672   8.401  21.362  0.00  0.00    -0.313 N 
ATOM     20  C   UNL     1      16.051   7.242  20.693  0.00  0.00    +0.216 C 
ATOM     28  H   UNL     1      16.331   9.172  21.422  0.00  0.00    +0.149 HD
BRANCH  20  13
ATOM     13  C   UNL     1      17.434   7.329  20.123  0.00  0.00    +0.075 C 
ATOM     14  C   UNL     1      17.939   5.934  19.736  0.00  0.00    +0.013 C 
ATOM     15  C   UNL     1      18.416   7.866  21.165  0.00  0.00    +0.013 C 
ATOM     18  C   UNL     1      19.252   5.743  20.489  0.00  0.00    +0.001 C 
ATOM     19  C   UNL     1      19.108   6.627  21.714  0.00  0.00    +0.001 C 
ENDBRANCH  20  13
ENDBRANCH  12   6
ENDBRANCH   9  12
BRANCH  11  16
ATOM     16  C   UNL     1      13.252   7.694  17.923  0.00  0.00    +0.190 C 
BRANCH  16   3
ATOM      3  O   UNL     1      12.159   6.919  17.455  0.00  0.00    -0.392 OA
ATOM     30  H   UNL     1      11.913   6.309  18.171  0.00  0.00    +0.210 HD
ENDBRANCH  16   3
ENDBRANCH  11  16
TORSDOF 10
ENDMDL
MODEL 3
REMARK VINA RESULT:      -5.9     26.704     30.193
REMARK  Name = 28962241
REMARK  11 active torsions:
REMARK  status: ('A' for Active; 'I' for Inactive)
REMARK    1  A    between atoms: O_2  and  C_10
REMARK    2  A    between atoms: O_3  and  C_16
REMARK    3  A    between atoms: N_5  and  C_8
REMARK    4  A    between atoms: N_5  and  C_17
REMARK    5  A    between atoms: N_5  and  C_21
REMARK    6  A    between atoms: N_6  and  C_12
REMARK    7  A    between atoms: C_9  and  C_12
REMARK    8  A    between atoms: C_11  and  C_16
REMARK    9  A    between atoms: C_13  and  C_20
REMARK   10  A    between atoms: C_17  and  C_22
REMARK   11  A    between atoms: C_22  and  C_23
REMARK                            x       y       z     vdW  Elec       q    Type
REMARK                         _______ _______ _______ _____ _____    ______ ____
ROOT
ATOM      1  O   UNL     1     -17.373   4.947  23.143  0.00  0.00    -0.365 OA
ATOM      8  C   UNL     1     -17.411   3.137  24.688  0.00  0.00    +0.118 C 
ATOM      9  C   UNL     1     -16.769   4.495  24.375  0.00  0.00    +0.155 C 
ATOM     10  C   UNL     1     -17.830   2.631  23.317  0.00  0.00    +0.165 C 
ATOM     11  C   UNL     1     -18.275   3.933  22.661  0.00  0.00    +0.174 C 
ENDROOT
BRANCH  10   2
ATOM      2  O   UNL     1     -16.730   2.072  22.610  0.00  0.00    -0.388 OA
ATOM     29  H   UNL     1     -16.125   1.686  23.265  0.00  0.00    +0.210 HD
ENDBRANCH  10   2
BRANCH   8   5
ATOM      5  N   UNL     1     -16.609   2.213  25.472  0.00  0.00    -0.297 NA
ATOM     21  C   UNL     1     -17.253   0.899  25.547  0.00  0.00    +0.105 C 
BRANCH   5  17
ATOM     17  C   UNL     1     -16.378   2.738  26.821  0.00  0.00    +0.090 C 
BRANCH  17  22
ATOM     22  C   UNL     1     -16.946   1.792  27.880  0.00  0.00    +0.071 C 
BRANCH  22  23
ATOM      7  N   UNL     1     -15.978   0.252  29.499  0.00  0.00    -0.260 NA
ATOM     23  C   UNL     1     -15.930   1.486  28.951  0.00  0.00    +0.042 A 
ATOM     24  C   UNL     1     -15.012   2.460  29.313  0.00  0.00    +0.023 A 
ATOM     25  C   UNL     1     -14.087   2.146  30.303  0.00  0.00    +0.003 A 
ATOM     26  C   UNL     1     -15.064  -0.017  30.457  0.00  0.00    +0.111 A 
ATOM     27  C   UNL     1     -14.107   0.886  30.891  0.00  0.00    +0.020 A 
ENDBRANCH  22  23
ENDBRANCH  17  22
ENDBRANCH   5  17
ENDBRANCH   8   5
BRANCH   9  12
ATOM     12  C   UNL     1     -15.258   4.506  24.168  0.00  0.00    +0.137 C 
BRANCH  12   6
ATOM      4  O   UNL     1     -12.647   4.672  22.912  0.00  0.00    -0.276 OA
ATOM      6  N   UNL     1     -14.904   5.241  22.991  0.00  0.00    -0.313 N 
ATOM     20  C   UNL     1     -13.621   5.265  22.455  0.00  0.00    +0.216 C 
ATOM     28  H   UNL     1     -15.641   5.768  22.530  0.00  0.00    +0.149 HD
BRANCH  20  13
ATOM     13  C   UNL     1     -13.530   6.092  21.209  0.00  0.00    +0.075 C 
ATOM     14  C   UNL     1     -12.088   6.564  20.988  0.00  0.00    +0.013 C 
ATOM     15  C   UNL     1     -14.380   7.357  21.337  0.00  0.00    +0.013 C 
ATOM     18  C   UNL     1     -12.158   8.085  20.893  0.00  0.00    +0.001 C 
ATOM     19  C   UNL     1     -13.387   8.450  21.704  0.00  0.00    +0.001 C 
ENDBRANCH  20  13
ENDBRANCH  12   6
ENDBRANCH   9  12
BRANCH  11  16
ATOM     16  C   UNL     1     -18.267   3.935  21.143  0.00  0.00    +0.190 C 
BRANCH  16   3
ATOM      3  O   UNL     1     -16.989   4.356  20.692  0.00  0.00    -0.392 OA
ATOM     30  H   UNL     1     -17.132   5.081  20.061  0.00  0.00    +0.210 HD
ENDBRANCH  16   3
ENDBRANCH  11  16
TORSDOF 10
ENDMDL
MODEL 4
REMARK VINA RESULT:      -5.7     27.366     28.579
REMARK  Name = 28962241
REMARK  11 active torsions:
REMARK  status: ('A' for Active; 'I' for Inactive)
REMARK    1  A    between atoms: O_2  and  C_10
REMARK    2  A    between atoms: O_3  and  C_16
REMARK    3  A    between atoms: N_5  and  C_8
REMARK    4  A    between atoms: N_5  and  C_17
REMARK    5  A    between atoms: N_5  and  C_21
REMARK    6  A    between atoms: N_6  and  C_12
REMARK    7  A    between atoms: C_9  and  C_12
REMARK    8  A    between atoms: C_11  and  C_16
REMARK    9  A    between atoms: C_13  and  C_20
REMARK   10  A    between atoms: C_17  and  C_22
REMARK   11  A    between atoms: C_22  and  C_23
REMARK                            x       y       z     vdW  Elec       q    Type
REMARK                         _______ _______ _______ _____ _____    ______ ____
ROOT
ATOM      1  O   UNL     1      -5.531 -10.296  18.271  0.00  0.00    -0.365 OA
ATOM      8  C   UNL     1      -4.540 -11.703  16.627  0.00  0.00    +0.118 C 
ATOM      9  C   UNL     1      -4.945 -10.259  16.951  0.00  0.00    +0.155 C 
ATOM     10  C   UNL     1      -5.494 -12.526  17.479  0.00  0.00    +0.165 C 
ATOM     11  C   UNL     1      -5.571 -11.660  18.730  0.00  0.00    +0.174 C 
ENDROOT
BRANCH  10   2
ATOM      2  O   UNL     1      -6.775 -12.632  16.871  0.00  0.00    -0.388 OA
ATOM     29  H   UNL     1      -7.380 -13.018  17.526  0.00  0.00    +0.210 HD
ENDBRANCH  10   2
BRANCH   8   5
ATOM      5  N   UNL     1      -4.502 -12.058  15.219  0.00  0.00    -0.297 NA
ATOM     21  C   UNL     1      -4.187 -13.479  15.048  0.00  0.00    +0.105 C 
BRANCH   5  17
ATOM     17  C   UNL     1      -3.523 -11.237  14.500  0.00  0.00    +0.090 C 
BRANCH  17  22
ATOM     22  C   UNL     1      -3.365 -11.713  13.055  0.00  0.00    +0.071 C 
BRANCH  22  23
ATOM      7  N   UNL     1      -4.937 -10.029  12.266  0.00  0.00    -0.260 NA
ATOM     23  C   UNL     1      -3.744 -10.635  12.072  0.00  0.00    +0.042 A 
ATOM     24  C   UNL     1      -2.873 -10.320  11.042  0.00  0.00    +0.023 A 
ATOM     25  C   UNL     1      -3.251  -9.320  10.153  0.00  0.00    +0.003 A 
ATOM     26  C   UNL     1      -5.270  -9.063  11.383  0.00  0.00    +0.111 A 
ATOM     27  C   UNL     1      -4.472  -8.674  10.319  0.00  0.00    +0.020 A 
ENDBRANCH  22  23
ENDBRANCH  17  22
ENDBRANCH   5  17
ENDBRANCH   8   5
BRANCH   9  12
ATOM     12  C   UNL     1      -5.964  -9.609  16.022  0.00  0.00    +0.137 C 
BRANCH  12   6
ATOM      4  O   UNL     1      -8.747 -10.416  15.862  0.00  0.00    -0.276 OA
ATOM      6  N   UNL     1      -7.068  -9.075  16.760  0.00  0.00    -0.313 N 
ATOM     20  C   UNL     1      -8.377  -9.523  16.620  0.00  0.00    +0.216 C 
ATOM     28  H   UNL     1      -6.871  -8.330  17.422  0.00  0.00    +0.149 HD
BRANCH  20  13
ATOM     13  C   UNL     1      -9.333  -8.811  17.528  0.00  0.00    +0.075 C 
ATOM     14  C   UNL     1     -10.478  -9.747  17.935  0.00  0.00    +0.013 C 
ATOM     15  C   UNL     1      -9.981  -7.627  16.809  0.00  0.00    +0.013 C 
ATOM     18  C   UNL     1     -11.763  -9.031  17.529  0.00  0.00    +0.001 C 
ATOM     19  C   UNL     1     -11.344  -8.145  16.371  0.00  0.00    +0.001 C 
ENDBRANCH  20  13
ENDBRANCH  12   6
ENDBRANCH   9  12
BRANCH  11  16
ATOM     16  C   UNL     1      -6.805 -11.863  19.590  0.00  0.00    +0.190 C 
BRANCH  16   3
ATOM      3  O   UNL     1      -7.429 -10.607  19.801  0.00  0.00    -0.392 OA
ATOM     30  H   UNL     1      -6.723  -9.945  19.878  0.00  0.00    +0.210 HD
ENDBRANCH  16   3
ENDBRANCH  11  16
TORSDOF 10
ENDMDL
MODEL 5
REMARK VINA RESULT:      -5.6     13.549     16.854
REMARK  Name = 28962241
REMARK  11 active torsions:
REMARK  status: ('A' for Active; 'I' for Inactive)
REMARK    1  A    between atoms: O_2  and  C_10
REMARK    2  A    between atoms: O_3  and  C_16
REMARK    3  A    between atoms: N_5  and  C_8
REMARK    4  A    between atoms: N_5  and  C_17
REMARK    5  A    between atoms: N_5  and  C_21
REMARK    6  A    between atoms: N_6  and  C_12
REMARK    7  A    between atoms: C_9  and  C_12
REMARK    8  A    between atoms: C_11  and  C_16
REMARK    9  A    between atoms: C_13  and  C_20
REMARK   10  A    between atoms: C_17  and  C_22
REMARK   11  A    between atoms: C_22  and  C_23
REMARK                            x       y       z     vdW  Elec       q    Type
REMARK                         _______ _______ _______ _____ _____    ______ ____
ROOT
ATOM      1  O   UNL     1      11.089   5.536   8.441  0.00  0.00    -0.365 OA
ATOM      8  C   UNL     1      10.073   5.965   6.332  0.00  0.00    +0.118 C 
ATOM      9  C   UNL     1      11.332   6.195   7.179  0.00  0.00    +0.155 C 
ATOM     10  C   UNL     1       8.987   5.770   7.378  0.00  0.00    +0.165 C 
ATOM     11  C   UNL     1       9.756   4.991   8.439  0.00  0.00    +0.174 C 
ENDROOT
BRANCH  10   2
ATOM      2  O   UNL     1       8.541   7.014   7.904  0.00  0.00    -0.388 OA
ATOM     29  H   UNL     1       7.889   6.823   8.599  0.00  0.00    +0.210 HD
ENDBRANCH  10   2
BRANCH   8   5
ATOM      5  N   UNL     1       9.788   6.970   5.322  0.00  0.00    -0.297 NA
ATOM     21  C   UNL     1       8.370   6.948   4.952  0.00  0.00    +0.105 C 
BRANCH   5  17
ATOM     17  C   UNL     1      10.620   6.765   4.132  0.00  0.00    +0.090 C 
BRANCH  17  22
ATOM     22  C   UNL     1      10.426   5.358   3.565  0.00  0.00    +0.071 C 
BRANCH  22  23
ATOM      7  N   UNL     1      11.653   3.610   2.395  0.00  0.00    -0.260 NA
ATOM     23  C   UNL     1      11.633   4.904   2.784  0.00  0.00    +0.042 A 
ATOM     24  C   UNL     1      12.640   5.814   2.504  0.00  0.00    +0.023 A 
ATOM     25  C   UNL     1      13.740   5.365   1.781  0.00  0.00    +0.003 A 
ATOM     26  C   UNL     1      12.737   3.210   1.694  0.00  0.00    +0.111 A 
ATOM     27  C   UNL     1      13.797   4.039   1.364  0.00  0.00    +0.020 A 
ENDBRANCH  22  23
ENDBRANCH  17  22
ENDBRANCH   5  17
ENDBRANCH   8   5
BRANCH   9  12
ATOM     12  C   UNL     1      11.695   7.643   7.487  0.00  0.00    +0.137 C 
BRANCH  12   6
ATOM      4  O   UNL     1      12.241   9.662   5.475  0.00  0.00    -0.276 OA
ATOM      6  N   UNL     1      12.965   7.988   6.924  0.00  0.00    -0.313 N 
ATOM     20  C   UNL     1      13.137   8.974   5.958  0.00  0.00    +0.216 C 
ATOM     28  H   UNL     1      13.778   7.479   7.258  0.00  0.00    +0.149 HD
BRANCH  20  13
ATOM     13  C   UNL     1      14.570   9.150   5.559  0.00  0.00    +0.075 C 
ATOM     14  C   UNL     1      14.682   9.324   4.039  0.00  0.00    +0.013 C 
ATOM     15  C   UNL     1      15.385   7.903   5.908  0.00  0.00    +0.013 C 
ATOM     18  C   UNL     1      15.639   8.234   3.565  0.00  0.00    +0.001 C 
ATOM     19  C   UNL     1      15.489   7.134   4.600  0.00  0.00    +0.001 C 
ENDBRANCH  20  13
ENDBRANCH  12   6
ENDBRANCH   9  12
BRANCH  11  16
ATOM     16  C   UNL     1       9.183   5.061   9.843  0.00  0.00    +0.190 C 
BRANCH  16   3
ATOM      3  O   UNL     1      10.146   4.559  10.756  0.00  0.00    -0.392 OA
ATOM     30  H   UNL     1       9.662   4.239  11.536  0.00  0.00    +0.210 HD
ENDBRANCH  16   3
ENDBRANCH  11  16
TORSDOF 10
ENDMDL
MODEL 6
REMARK VINA RESULT:      -5.4      2.157      7.635
REMARK  Name = 28962241
REMARK  11 active torsions:
REMARK  status: ('A' for Active; 'I' for Inactive)
REMARK    1  A    between atoms: O_2  and  C_10
REMARK    2  A    between atoms: O_3  and  C_16
REMARK    3  A    between atoms: N_5  and  C_8
REMARK    4  A    between atoms: N_5  and  C_17
REMARK    5  A    between atoms: N_5  and  C_21
REMARK    6  A    between atoms: N_6  and  C_12
REMARK    7  A    between atoms: C_9  and  C_12
REMARK    8  A    between atoms: C_11  and  C_16
REMARK    9  A    between atoms: C_13  and  C_20
REMARK   10  A    between atoms: C_17  and  C_22
REMARK   11  A    between atoms: C_22  and  C_23
REMARK                            x       y       z     vdW  Elec       q    Type
REMARK                         _______ _______ _______ _____ _____    ______ ____
ROOT
ATOM      1  O   UNL     1      13.672   9.271  19.581  0.00  0.00    -0.365 OA
ATOM      8  C   UNL     1      12.184  10.222  21.176  0.00  0.00    +0.118 C 
ATOM      9  C   UNL     1      13.614  10.270  20.623  0.00  0.00    +0.155 C 
ATOM     10  C   UNL     1      11.746   8.799  20.872  0.00  0.00    +0.165 C 
ATOM     11  C   UNL     1      12.408   8.584  19.517  0.00  0.00    +0.174 C 
ENDROOT
BRANCH  10   2
ATOM      2  O   UNL     1      12.263   7.879  21.826  0.00  0.00    -0.388 OA
ATOM     29  H   UNL     1      11.839   8.071  22.679  0.00  0.00    +0.210 HD
ENDBRANCH  10   2
BRANCH   8   5
ATOM      5  N   UNL     1      12.016  10.642  22.557  0.00  0.00    -0.297 NA
ATOM     21  C   UNL     1      10.719  10.203  23.080  0.00  0.00    +0.105 C 
BRANCH   5  17
ATOM     17  C   UNL     1      12.139  12.097  22.679  0.00  0.00    +0.090 C 
BRANCH  17  22
ATOM     22  C   UNL     1      10.974  12.681  23.479  0.00  0.00    +0.071 C 
BRANCH  22  23
ATOM      7  N   UNL     1      10.548  13.899  25.544  0.00  0.00    -0.260 NA
ATOM     23  C   UNL     1      11.460  13.554  24.607  0.00  0.00    +0.042 A 
ATOM     24  C   UNL     1      12.787  13.952  24.634  0.00  0.00    +0.023 A 
ATOM     25  C   UNL     1      13.204  14.757  25.689  0.00  0.00    +0.003 A 
ATOM     26  C   UNL     1      10.990  14.681  26.553  0.00  0.00    +0.111 A 
ATOM     27  C   UNL     1      12.294  15.133  26.671  0.00  0.00    +0.020 A 
ENDBRANCH  22  23
ENDBRANCH  17  22
ENDBRANCH   5  17
ENDBRANCH   8   5
BRANCH   9  12
ATOM     12  C   UNL     1      14.738   9.962  21.606  0.00  0.00    +0.137 C 
BRANCH  12   6
ATOM      4  O   UNL     1      17.507   9.090  21.645  0.00  0.00    -0.276 OA
ATOM      6  N   UNL     1      15.234   8.631  21.424  0.00  0.00    -0.313 N 
ATOM     20  C   UNL     1      16.584   8.301  21.458  0.00  0.00    +0.216 C 
ATOM     28  H   UNL     1      14.551   7.896  21.265  0.00  0.00    +0.149 HD
BRANCH  20  13
ATOM     13  C   UNL     1      16.826   6.835  21.263  0.00  0.00    +0.075 C 
ATOM     14  C   UNL     1      18.191   6.604  20.603  0.00  0.00    +0.013 C 
ATOM     15  C   UNL     1      15.785   6.237  20.315  0.00  0.00    +0.013 C 
ATOM     18  C   UNL     1      17.911   5.791  19.342  0.00  0.00    +0.001 C 
ATOM     19  C   UNL     1      16.489   6.167  18.968  0.00  0.00    +0.001 C 
ENDBRANCH  20  13
ENDBRANCH  12   6
ENDBRANCH   9  12
BRANCH  11  16
ATOM     16  C   UNL     1      12.644   7.136  19.127  0.00  0.00    +0.190 C 
BRANCH  16   3
ATOM      3  O   UNL     1      12.176   6.936  17.802  0.00  0.00    -0.392 OA
ATOM     30  H   UNL     1      12.665   6.180  17.437  0.00  0.00    +0.210 HD
ENDBRANCH  16   3
ENDBRANCH  11  16
TORSDOF 10
ENDMDL
MODEL 7
REMARK VINA RESULT:      -5.4     17.272     21.392
REMARK  Name = 28962241
REMARK  11 active torsions:
REMARK  status: ('A' for Active; 'I' for Inactive)
REMARK    1  A    between atoms: O_2  and  C_10
REMARK    2  A    between atoms: O_3  and  C_16
REMARK    3  A    between atoms: N_5  and  C_8
REMARK    4  A    between atoms: N_5  and  C_17
REMARK    5  A    between atoms: N_5  and  C_21
REMARK    6  A    between atoms: N_6  and  C_12
REMARK    7  A    between atoms: C_9  and  C_12
REMARK    8  A    between atoms: C_11  and  C_16
REMARK    9  A    between atoms: C_13  and  C_20
REMARK   10  A    between atoms: C_17  and  C_22
REMARK   11  A    between atoms: C_22  and  C_23
REMARK                            x       y       z     vdW  Elec       q    Type
REMARK                         _______ _______ _______ _____ _____    ______ ____
ROOT
ATOM      1  O   UNL     1      12.202   3.268   1.260  0.00  0.00    -0.365 OA
ATOM      8  C   UNL     1      11.792   5.035   2.800  0.00  0.00    +0.118 C 
ATOM      9  C   UNL     1      11.127   3.961   1.930  0.00  0.00    +0.155 C 
ATOM     10  C   UNL     1      13.103   5.298   2.077  0.00  0.00    +0.165 C 
ATOM     11  C   UNL     1      13.453   3.891   1.609  0.00  0.00    +0.174 C 
ENDROOT
BRANCH  10   2
ATOM      2  O   UNL     1      12.919   6.160   0.961  0.00  0.00    -0.388 OA
ATOM     29  H   UNL     1      13.081   5.638   0.157  0.00  0.00    +0.210 HD
ENDBRANCH  10   2
BRANCH   8   5
ATOM      5  N   UNL     1      10.994   6.215   3.086  0.00  0.00    -0.297 NA
ATOM     21  C   UNL     1      11.814   7.262   3.703  0.00  0.00    +0.105 C 
BRANCH   5  17
ATOM     17  C   UNL     1       9.865   5.882   3.959  0.00  0.00    +0.090 C 
BRANCH  17  22
ATOM     22  C   UNL     1      10.262   4.821   4.987  0.00  0.00    +0.071 C 
BRANCH  22  23
ATOM      7  N   UNL     1       9.976   4.282   7.344  0.00  0.00    -0.260 NA
ATOM     23  C   UNL     1       9.859   5.224   6.383  0.00  0.00    +0.042 A 
ATOM     24  C   UNL     1       9.400   6.512   6.611  0.00  0.00    +0.023 A 
ATOM     25  C   UNL     1       9.036   6.852   7.909  0.00  0.00    +0.003 A 
ATOM     26  C   UNL     1       9.614   4.649   8.593  0.00  0.00    +0.111 A 
ATOM     27  C   UNL     1       9.143   5.909   8.925  0.00  0.00    +0.020 A 
ENDBRANCH  22  23
ENDBRANCH  17  22
ENDBRANCH   5  17
ENDBRANCH   8   5
BRANCH   9  12
ATOM     12  C   UNL     1      10.165   4.452   0.854  0.00  0.00    +0.137 C 
BRANCH  12   6
ATOM      4  O   UNL     1       9.353   5.570  -1.699  0.00  0.00    -0.276 OA
ATOM      6  N   UNL     1      10.601   4.051  -0.450  0.00  0.00    -0.313 N 
ATOM     20  C   UNL     1      10.158   4.645  -1.627  0.00  0.00    +0.216 C 
ATOM     28  H   UNL     1      11.274   3.291  -0.504  0.00  0.00    +0.149 HD
BRANCH  20  13
ATOM     13  C   UNL     1      10.791   4.051  -2.848  0.00  0.00    +0.075 C 
ATOM     14  C   UNL     1       9.946   4.362  -4.090  0.00  0.00    +0.013 C 
ATOM     15  C   UNL     1      10.848   2.526  -2.740  0.00  0.00    +0.013 C 
ATOM     18  C   UNL     1       9.623   3.011  -4.722  0.00  0.00    +0.001 C 
ATOM     19  C   UNL     1       9.661   2.039  -3.557  0.00  0.00    +0.001 C 
ENDBRANCH  20  13
ENDBRANCH  12   6
ENDBRANCH   9  12
BRANCH  11  16
ATOM     16  C   UNL     1      14.399   3.813   0.424  0.00  0.00    +0.190 C 
BRANCH  16   3
ATOM      3  O   UNL     1      13.636   3.782  -0.771  0.00  0.00    -0.392 OA
ATOM     30  H   UNL     1      14.249   3.950  -1.507  0.00  0.00    +0.210 HD
ENDBRANCH  16   3
ENDBRANCH  11  16
TORSDOF 10
ENDMDL
MODEL 8
REMARK VINA RESULT:      -5.4     25.995     28.519
REMARK  Name = 28962241
REMARK  11 active torsions:
REMARK  status: ('A' for Active; 'I' for Inactive)
REMARK    1  A    between atoms: O_2  and  C_10
REMARK    2  A    between atoms: O_3  and  C_16
REMARK    3  A    between atoms: N_5  and  C_8
REMARK    4  A    between atoms: N_5  and  C_17
REMARK    5  A    between atoms: N_5  and  C_21
REMARK    6  A    between atoms: N_6  and  C_12
REMARK    7  A    between atoms: C_9  and  C_12
REMARK    8  A    between atoms: C_11  and  C_16
REMARK    9  A    between atoms: C_13  and  C_20
REMARK   10  A    between atoms: C_17  and  C_22
REMARK   11  A    between atoms: C_22  and  C_23
REMARK                            x       y       z     vdW  Elec       q    Type
REMARK                         _______ _______ _______ _____ _____    ______ ____
ROOT
ATOM      1  O   UNL     1      -3.177 -10.363  14.407  0.00  0.00    -0.365 OA
ATOM      8  C   UNL     1      -3.116 -12.123  12.805  0.00  0.00    +0.118 C 
ATOM      9  C   UNL     1      -4.035 -11.142  13.544  0.00  0.00    +0.155 C 
ATOM     10  C   UNL     1      -1.940 -12.273  13.757  0.00  0.00    +0.165 C 
ATOM     11  C   UNL     1      -1.827 -10.851  14.291  0.00  0.00    +0.174 C 
ENDROOT
BRANCH  10   2
ATOM      2  O   UNL     1      -2.237 -13.177  14.814  0.00  0.00    -0.388 OA
ATOM     29  H   UNL     1      -1.425 -13.671  15.016  0.00  0.00    +0.210 HD
ENDBRANCH  10   2
BRANCH   8   5
ATOM      5  N   UNL     1      -3.724 -13.368  12.369  0.00  0.00    -0.297 NA
ATOM     21  C   UNL     1      -2.706 -14.304  11.884  0.00  0.00    +0.105 C 
BRANCH   5  17
ATOM     17  C   UNL     1      -4.720 -13.123  11.321  0.00  0.00    +0.090 C 
BRANCH  17  22
ATOM     22  C   UNL     1      -4.088 -12.419  10.120  0.00  0.00    +0.071 C 
BRANCH  22  23
ATOM      7  N   UNL     1      -5.946 -10.845  10.169  0.00  0.00    -0.260 NA
ATOM     23  C   UNL     1      -4.623 -11.019   9.955  0.00  0.00    +0.042 A 
ATOM     24  C   UNL     1      -3.754  -9.999   9.601  0.00  0.00    +0.023 A 
ATOM     25  C   UNL     1      -4.278  -8.718   9.458  0.00  0.00    +0.003 A 
ATOM     26  C   UNL     1      -6.419  -9.588  10.021  0.00  0.00    +0.111 A 
ATOM     27  C   UNL     1      -5.635  -8.501   9.670  0.00  0.00    +0.020 A 
ENDBRANCH  22  23
ENDBRANCH  17  22
ENDBRANCH   5  17
ENDBRANCH   8   5
BRANCH   9  12
ATOM     12  C   UNL     1      -5.124 -11.752  14.421  0.00  0.00    +0.137 C 
BRANCH  12   6
ATOM      4  O   UNL     1      -7.408 -11.348  16.166  0.00  0.00    -0.276 OA
ATOM      6  N   UNL     1      -5.128 -11.160  15.724  0.00  0.00    -0.313 N 
ATOM     20  C   UNL     1      -6.275 -11.005  16.496  0.00  0.00    +0.216 C 
ATOM     28  H   UNL     1      -4.238 -10.843  16.097  0.00  0.00    +0.149 HD
BRANCH  20  13
ATOM     13  C   UNL     1      -5.996 -10.379  17.828  0.00  0.00    +0.075 C 
ATOM     14  C   UNL     1      -4.951 -11.201  18.593  0.00  0.00    +0.013 C 
ATOM     15  C   UNL     1      -7.255 -10.373  18.697  0.00  0.00    +0.013 C 
ATOM     18  C   UNL     1      -5.600 -11.562  19.926  0.00  0.00    +0.001 C 
ATOM     19  C   UNL     1      -7.087 -11.568  19.624  0.00  0.00    +0.001 C 
ENDBRANCH  20  13
ENDBRANCH  12   6
ENDBRANCH   9  12
BRANCH  11  16
ATOM     16  C   UNL     1      -1.127 -10.710  15.631  0.00  0.00    +0.190 C 
BRANCH  16   3
ATOM      3  O   UNL     1      -2.026 -11.091  16.660  0.00  0.00    -0.392 OA
ATOM     30  H   UNL     1      -1.506 -11.554  17.338  0.00  0.00    +0.210 HD
ENDBRANCH  16   3
ENDBRANCH  11  16
TORSDOF 10
ENDMDL
MODEL 9
REMARK VINA RESULT:      -5.3     33.250     35.441
REMARK  Name = 28962241
REMARK  11 active torsions:
REMARK  status: ('A' for Active; 'I' for Inactive)
REMARK    1  A    between atoms: O_2  and  C_10
REMARK    2  A    between atoms: O_3  and  C_16
REMARK    3  A    between atoms: N_5  and  C_8
REMARK    4  A    between atoms: N_5  and  C_17
REMARK    5  A    between atoms: N_5  and  C_21
REMARK    6  A    between atoms: N_6  and  C_12
REMARK    7  A    between atoms: C_9  and  C_12
REMARK    8  A    between atoms: C_11  and  C_16
REMARK    9  A    between atoms: C_13  and  C_20
REMARK   10  A    between atoms: C_17  and  C_22
REMARK   11  A    between atoms: C_22  and  C_23
REMARK                            x       y       z     vdW  Elec       q    Type
REMARK                         _______ _______ _______ _____ _____    ______ ____
ROOT
ATOM      1  O   UNL     1      -1.917 -14.375   1.050  0.00  0.00    -0.365 OA
ATOM      8  C   UNL     1      -2.882 -14.314  -1.124  0.00  0.00    +0.118 C 
ATOM      9  C   UNL     1      -1.588 -14.575  -0.342  0.00  0.00    +0.155 C 
ATOM     10  C   UNL     1      -3.651 -13.373  -0.211  0.00  0.00    +0.165 C 
ATOM     11  C   UNL     1      -3.288 -13.947   1.153  0.00  0.00    +0.174 C 
ENDROOT
BRANCH  10   2
ATOM      2  O   UNL     1      -3.181 -12.035  -0.325  0.00  0.00    -0.388 OA
ATOM     29  H   UNL     1      -2.925 -11.736   0.563  0.00  0.00    +0.210 HD
ENDBRANCH  10   2
BRANCH   8   5
ATOM      5  N   UNL     1      -2.723 -13.855  -2.494  0.00  0.00    -0.297 NA
ATOM     21  C   UNL     1      -4.025 -13.564  -3.101  0.00  0.00    +0.105 C 
BRANCH   5  17
ATOM     17  C   UNL     1      -2.006 -14.850  -3.297  0.00  0.00    +0.090 C 
BRANCH  17  22
ATOM     22  C   UNL     1      -1.737 -14.325  -4.708  0.00  0.00    +0.071 C 
BRANCH  22  23
ATOM      7  N   UNL     1      -0.541 -12.270  -5.231  0.00  0.00    -0.260 NA
ATOM     23  C   UNL     1      -0.453 -13.537  -4.770  0.00  0.00    +0.042 A 
ATOM     24  C   UNL     1       0.729 -14.134  -4.360  0.00  0.00    +0.023 A 
ATOM     25  C   UNL     1       1.896 -13.380  -4.429  0.00  0.00    +0.003 A 
ATOM     26  C   UNL     1       0.613 -11.568  -5.283  0.00  0.00    +0.111 A 
ATOM     27  C   UNL     1       1.845 -12.072  -4.898  0.00  0.00    +0.020 A 
ENDBRANCH  22  23
ENDBRANCH  17  22
ENDBRANCH   5  17
ENDBRANCH   8   5
BRANCH   9  12
ATOM     12  C   UNL     1      -0.402 -13.672  -0.661  0.00  0.00    +0.137 C 
BRANCH  12   6
ATOM      4  O   UNL     1       1.919 -13.736   1.081  0.00  0.00    -0.276 OA
ATOM      6  N   UNL     1       0.796 -14.437  -0.836  0.00  0.00    -0.313 N 
ATOM     20  C   UNL     1       1.865 -14.407   0.053  0.00  0.00    +0.216 C 
ATOM     28  H   UNL     1       0.855 -15.033  -1.656  0.00  0.00    +0.149 HD
BRANCH  20  13
ATOM     13  C   UNL     1       2.982 -15.320  -0.353  0.00  0.00    +0.075 C 
ATOM     14  C   UNL     1       3.879 -15.632   0.850  0.00  0.00    +0.013 C 
ATOM     15  C   UNL     1       3.879 -14.646  -1.393  0.00  0.00    +0.013 C 
ATOM     18  C   UNL     1       5.289 -15.222   0.435  0.00  0.00    +0.001 C 
ATOM     19  C   UNL     1       5.069 -14.132  -0.597  0.00  0.00    +0.001 C 
ENDBRANCH  20  13
ENDBRANCH  12   6
ENDBRANCH   9  12
BRANCH  11  16
ATOM     16  C   UNL     1      -3.427 -12.990   2.323  0.00  0.00    +0.190 C 
BRANCH  16   3
ATOM      3  O   UNL     1      -2.259 -12.188   2.401  0.00  0.00    -0.392 OA
ATOM     30  H   UNL     1      -2.120 -11.974   3.339  0.00  0.00    +0.210 HD
ENDBRANCH  16   3
ENDBRANCH  11  16
TORSDOF 10
ENDMDL
MODEL 10
REMARK VINA RESULT:      -5.3     26.932     29.184
REMARK  Name = 28962241
REMARK  11 active torsions:
REMARK  status: ('A' for Active; 'I' for Inactive)
REMARK    1  A    between atoms: O_2  and  C_10
REMARK    2  A    between atoms: O_3  and  C_16
REMARK    3  A    between atoms: N_5  and  C_8
REMARK    4  A    between atoms: N_5  and  C_17
REMARK    5  A    between atoms: N_5  and  C_21
REMARK    6  A    between atoms: N_6  and  C_12
REMARK    7  A    between atoms: C_9  and  C_12
REMARK    8  A    between atoms: C_11  and  C_16
REMARK    9  A    between atoms: C_13  and  C_20
REMARK   10  A    between atoms: C_17  and  C_22
REMARK   11  A    between atoms: C_22  and  C_23
REMARK                            x       y       z     vdW  Elec       q    Type
REMARK                         _______ _______ _______ _____ _____    ______ ____
ROOT
ATOM      1  O   UNL     1      -4.217 -12.012  14.204  0.00  0.00    -0.365 OA
ATOM      8  C   UNL     1      -5.093 -11.676  16.391  0.00  0.00    +0.118 C 
ATOM      9  C   UNL     1      -5.451 -11.730  14.901  0.00  0.00    +0.155 C 
ATOM     10  C   UNL     1      -3.623 -11.286  16.377  0.00  0.00    +0.165 C 
ATOM     11  C   UNL     1      -3.139 -12.061  15.158  0.00  0.00    +0.174 C 
ENDROOT
BRANCH  10   2
ATOM      2  O   UNL     1      -3.457  -9.888  16.173  0.00  0.00    -0.388 OA
ATOM     29  H   UNL     1      -4.006  -9.634  15.412  0.00  0.00    +0.210 HD
ENDBRANCH  10   2
BRANCH   8   5
ATOM      5  N   UNL     1      -5.946 -10.847  17.227  0.00  0.00    -0.297 NA
ATOM     21  C   UNL     1      -5.417 -10.765  18.591  0.00  0.00    +0.105 C 
BRANCH   5  17
ATOM     17  C   UNL     1      -7.316 -11.368  17.250  0.00  0.00    +0.090 C 
BRANCH  17  22
ATOM     22  C   UNL     1      -8.100 -10.792  18.430  0.00  0.00    +0.071 C 
BRANCH  22  23
ATOM      7  N   UNL     1     -10.429 -10.082  18.374  0.00  0.00    -0.260 NA
ATOM     23  C   UNL     1      -9.164  -9.828  17.970  0.00  0.00    +0.042 A 
ATOM     24  C   UNL     1      -8.805  -8.751  17.176  0.00  0.00    +0.023 A 
ATOM     25  C   UNL     1      -9.809  -7.879  16.769  0.00  0.00    +0.003 A 
ATOM     26  C   UNL     1     -11.377  -9.213  17.960  0.00  0.00    +0.111 A 
ATOM     27  C   UNL     1     -11.123  -8.108  17.164  0.00  0.00    +0.020 A 
ENDBRANCH  22  23
ENDBRANCH  17  22
ENDBRANCH   5  17
ENDBRANCH   8   5
BRANCH   9  12
ATOM     12  C   UNL     1      -6.035 -10.461  14.290  0.00  0.00    +0.137 C 
BRANCH  12   6
ATOM      4  O   UNL     1      -6.824  -9.815  11.573  0.00  0.00    -0.276 OA
ATOM      6  N   UNL     1      -5.201  -9.964  13.237  0.00  0.00    -0.313 N 
ATOM     20  C   UNL     1      -5.665  -9.680  11.957  0.00  0.00    +0.216 C 
ATOM     28  H   UNL     1      -4.220  -9.812  13.450  0.00  0.00    +0.149 HD
BRANCH  20  13
ATOM     13  C   UNL     1      -4.591  -9.150  11.057  0.00  0.00    +0.075 C 
ATOM     14  C   UNL     1      -5.212  -8.478   9.826  0.00  0.00    +0.013 C 
ATOM     15  C   UNL     1      -3.719 -10.290  10.528  0.00  0.00    +0.013 C 
ATOM     18  C   UNL     1      -4.604  -9.182   8.617  0.00  0.00    +0.001 C 
ATOM     19  C   UNL     1      -4.255 -10.566   9.130  0.00  0.00    +0.001 C 
ENDBRANCH  20  13
ENDBRANCH  12   6
ENDBRANCH   9  12
BRANCH  11  16
ATOM     16  C   UNL     1      -1.872 -11.533  14.509  0.00  0.00    +0.190 C 
BRANCH  16   3
ATOM      3  O   UNL     1      -2.201 -10.409  13.707  0.00  0.00    -0.392 OA
ATOM     30  H   UNL     1      -1.369 -10.062  13.344  0.00  0.00    +0.210 HD
ENDBRANCH  16   3
ENDBRANCH  11  16
TORSDOF 10
ENDMDL
