MODEL 1
REMARK VINA RESULT:      -6.9      0.000      0.000
REMARK  Name = 11887584
REMARK  13 active torsions:
REMARK  status: ('A' for Active; 'I' for Inactive)
REMARK    1  A    between atoms: O_4  and  C_20
REMARK    2  A    between atoms: O_4  and  C_29
REMARK    3  A    between atoms: O_5  and  C_22
REMARK    4  A    between atoms: O_5  and  C_33
REMARK    5  A    between atoms: O_7  and  C_32
REMARK    6  A    between atoms: O_7  and  C_37
REMARK    7  A    between atoms: N_10  and  C_19
REMARK    8  A    between atoms: N_11  and  C_24
REMARK    9  A    between atoms: C_12  and  C_16
REMARK   10  A    between atoms: C_17  and  C_20
REMARK   11  A    between atoms: C_19  and  C_21
REMARK   12  A    between atoms: C_19  and  C_22
REMARK   13  A    between atoms: C_21  and  C_23
REMARK                            x       y       z     vdW  Elec       q    Type
REMARK                         _______ _______ _______ _____ _____    ______ ____
ROOT
ATOM      2  O   UNL     1      13.795   8.860  15.308  0.00  0.00    -0.273 OA
ATOM      3  O   UNL     1      14.515  12.908  21.371  0.00  0.00    -0.252 OA
ATOM      8  N   UNL     1      14.280  10.402  16.980  0.00  0.00    -0.285 N 
ATOM      9  N   UNL     1      13.764  11.671  19.567  0.00  0.00    -0.282 N 
ATOM     11  N   UNL     1      12.264  12.325  21.263  0.00  0.00    -0.269 N 
ATOM     12  C   UNL     1      13.207   9.917  17.848  0.00  0.00    +0.179 C 
ATOM     13  C   UNL     1      12.698  10.964  18.840  0.00  0.00    +0.141 C 
ATOM     14  C   UNL     1      15.055  11.555  17.455  0.00  0.00    +0.127 C 
ATOM     15  C   UNL     1      15.100  11.648  18.973  0.00  0.00    +0.128 C 
ATOM     17  C   UNL     1      14.442   9.828  15.715  0.00  0.00    +0.242 C 
ATOM     18  C   UNL     1      13.580  12.345  20.797  0.00  0.00    +0.307 C 
ATOM     39  H   UNL     1      11.523  12.234  20.575  0.00  0.00    +0.156 HD
ENDROOT
BRANCH  11  24
ATOM     24  C   UNL     1      11.823  12.350  22.610  0.00  0.00    +0.035 A 
ATOM     27  C   UNL     1      11.565  13.569  23.237  0.00  0.00    +0.023 A 
ATOM     28  C   UNL     1      11.647  11.156  23.309  0.00  0.00    +0.023 A 
ATOM     34  C   UNL     1      11.130  13.594  24.562  0.00  0.00    +0.002 A 
ATOM     35  C   UNL     1      11.212  11.179  24.634  0.00  0.00    +0.002 A 
ATOM     36  C   UNL     1      10.953  12.399  25.261  0.00  0.00    +0.000 A 
ENDBRANCH  11  24
BRANCH  12  16
ATOM      1  O   UNL     1      14.648   8.033  18.132  0.00  0.00    -0.274 OA
ATOM     10  N   UNL     1      12.995   8.436  19.721  0.00  0.00    -0.301 N 
ATOM     16  C   UNL     1      13.713   8.700  18.567  0.00  0.00    +0.236 C 
ATOM     38  H   UNL     1      12.250   9.069  19.998  0.00  0.00    +0.150 HD
BRANCH  10  19
ATOM     19  C   UNL     1      13.268   7.308  20.581  0.00  0.00    +0.186 C 
BRANCH  19  22
ATOM      6  O   UNL     1      11.458   5.733  20.288  0.00  0.00    -0.249 OA
ATOM     22  C   UNL     1      11.998   6.576  20.997  0.00  0.00    +0.328 C 
BRANCH  22   5
ATOM      5  O   UNL     1      11.546   6.985  22.215  0.00  0.00    -0.467 OA
ATOM     33  C   UNL     1      10.379   7.813  22.198  0.00  0.00    +0.280 C 
ENDBRANCH  22   5
ENDBRANCH  19  22
BRANCH  19  21
ATOM     21  C   UNL     1      14.118   7.721  21.791  0.00  0.00    +0.069 C 
BRANCH  21  23
ATOM     23  C   UNL     1      15.611   7.700  21.551  0.00  0.00    -0.045 A 
ATOM     25  C   UNL     1      16.248   6.502  21.228  0.00  0.00    +0.007 A 
ATOM     26  C   UNL     1      16.350   8.878  21.653  0.00  0.00    +0.007 A 
ATOM     30  C   UNL     1      17.625   6.483  21.008  0.00  0.00    +0.046 A 
ATOM     31  C   UNL     1      17.727   8.859  21.431  0.00  0.00    +0.046 A 
ATOM     32  C   UNL     1      18.365   7.660  21.109  0.00  0.00    +0.120 A 
BRANCH  32   7
ATOM      7  O   UNL     1      19.708   7.642  20.894  0.00  0.00    -0.495 OA
ATOM     37  C   UNL     1      20.348   6.366  20.893  0.00  0.00    +0.277 C 
ENDBRANCH  32   7
ENDBRANCH  21  23
ENDBRANCH  19  21
ENDBRANCH  10  19
ENDBRANCH  12  16
BRANCH  17  20
ATOM     20  C   UNL     1      15.489  10.453  14.825  0.00  0.00    +0.255 C 
BRANCH  20   4
ATOM      4  O   UNL     1      14.823  10.884  13.663  0.00  0.00    -0.374 OA
ATOM     29  C   UNL     1      14.245  12.177  13.824  0.00  0.00    +0.194 C 
ENDBRANCH  20   4
ENDBRANCH  17  20
TORSDOF 10
ENDMDL
MODEL 2
REMARK VINA RESULT:      -6.4      1.840      2.531
REMARK  Name = 11887584
REMARK  13 active torsions:
REMARK  status: ('A' for Active; 'I' for Inactive)
REMARK    1  A    between atoms: O_4  and  C_20
REMARK    2  A    between atoms: O_4  and  C_29
REMARK    3  A    between atoms: O_5  and  C_22
REMARK    4  A    between atoms: O_5  and  C_33
REMARK    5  A    between atoms: O_7  and  C_32
REMARK    6  A    between atoms: O_7  and  C_37
REMARK    7  A    between atoms: N_10  and  C_19
REMARK    8  A    between atoms: N_11  and  C_24
REMARK    9  A    between atoms: C_12  and  C_16
REMARK   10  A    between atoms: C_17  and  C_20
REMARK   11  A    between atoms: C_19  and  C_21
REMARK   12  A    between atoms: C_19  and  C_22
REMARK   13  A    between atoms: C_21  and  C_23
REMARK                            x       y       z     vdW  Elec       q    Type
REMARK                         _______ _______ _______ _____ _____    ______ ____
ROOT
ATOM      2  O   UNL     1      15.120  11.939  14.774  0.00  0.00    -0.273 OA
ATOM      3  O   UNL     1      15.516  12.118  22.087  0.00  0.00    -0.252 OA
ATOM      8  N   UNL     1      15.636  12.194  17.028  0.00  0.00    -0.285 N 
ATOM      9  N   UNL     1      14.907  12.277  19.861  0.00  0.00    -0.282 N 
ATOM     11  N   UNL     1      13.327  12.707  21.558  0.00  0.00    -0.269 N 
ATOM     12  C   UNL     1      14.265  11.909  17.454  0.00  0.00    +0.179 C 
ATOM     13  C   UNL     1      13.905  12.516  18.811  0.00  0.00    +0.141 C 
ATOM     14  C   UNL     1      16.603  12.542  18.075  0.00  0.00    +0.127 C 
ATOM     15  C   UNL     1      16.257  11.928  19.424  0.00  0.00    +0.128 C 
ATOM     17  C   UNL     1      15.927  12.230  15.660  0.00  0.00    +0.242 C 
ATOM     18  C   UNL     1      14.640  12.345  21.250  0.00  0.00    +0.307 C 
ATOM     39  H   UNL     1      12.822  13.266  20.878  0.00  0.00    +0.156 HD
ENDROOT
BRANCH  11  24
ATOM     24  C   UNL     1      12.571  12.329  22.695  0.00  0.00    +0.035 A 
ATOM     27  C   UNL     1      11.788  11.175  22.660  0.00  0.00    +0.023 A 
ATOM     28  C   UNL     1      12.608  13.111  23.849  0.00  0.00    +0.023 A 
ATOM     34  C   UNL     1      11.045  10.802  23.780  0.00  0.00    +0.002 A 
ATOM     35  C   UNL     1      11.865  12.739  24.969  0.00  0.00    +0.002 A 
ATOM     36  C   UNL     1      11.083  11.584  24.935  0.00  0.00    +0.000 A 
ENDBRANCH  11  24
BRANCH  12  16
ATOM      1  O   UNL     1      14.667   9.689  16.670  0.00  0.00    -0.274 OA
ATOM     10  N   UNL     1      13.213  10.004  18.460  0.00  0.00    -0.301 N 
ATOM     16  C   UNL     1      14.092  10.418  17.473  0.00  0.00    +0.236 C 
ATOM     38  H   UNL     1      12.808  10.695  19.085  0.00  0.00    +0.150 HD
BRANCH  10  19
ATOM     19  C   UNL     1      12.857   8.620  18.672  0.00  0.00    +0.186 C 
BRANCH  19  22
ATOM      6  O   UNL     1      10.508   8.500  19.224  0.00  0.00    -0.249 OA
ATOM     22  C   UNL     1      11.387   8.349  18.381  0.00  0.00    +0.328 C 
BRANCH  22   5
ATOM      5  O   UNL     1      11.187   7.910  17.107  0.00  0.00    -0.467 OA
ATOM     33  C   UNL     1      10.810   8.912  16.158  0.00  0.00    +0.280 C 
ENDBRANCH  22   5
ENDBRANCH  19  22
BRANCH  19  21
ATOM     21  C   UNL     1      13.264   8.147  20.075  0.00  0.00    +0.069 C 
BRANCH  21  23
ATOM     23  C   UNL     1      14.749   7.935  20.264  0.00  0.00    -0.045 A 
ATOM     25  C   UNL     1      15.389   6.875  19.622  0.00  0.00    +0.007 A 
ATOM     26  C   UNL     1      15.479   8.798  21.081  0.00  0.00    +0.007 A 
ATOM     30  C   UNL     1      16.758   6.678  19.797  0.00  0.00    +0.046 A 
ATOM     31  C   UNL     1      16.849   8.602  21.255  0.00  0.00    +0.046 A 
ATOM     32  C   UNL     1      17.489   7.540  20.613  0.00  0.00    +0.120 A 
BRANCH  32   7
ATOM      7  O   UNL     1      18.825   7.349  20.784  0.00  0.00    -0.495 OA
ATOM     37  C   UNL     1      19.233   6.611  21.935  0.00  0.00    +0.277 C 
ENDBRANCH  32   7
ENDBRANCH  21  23
ENDBRANCH  19  21
ENDBRANCH  10  19
ENDBRANCH  12  16
BRANCH  17  20
ATOM     20  C   UNL     1      17.329  12.645  15.285  0.00  0.00    +0.255 C 
BRANCH  20   4
ATOM      4  O   UNL     1      17.866  11.598  14.515  0.00  0.00    -0.374 OA
ATOM     29  C   UNL     1      19.289  11.551  14.591  0.00  0.00    +0.194 C 
ENDBRANCH  20   4
ENDBRANCH  17  20
TORSDOF 10
ENDMDL
MODEL 3
REMARK VINA RESULT:      -6.4     27.428     30.130
REMARK  Name = 11887584
REMARK  13 active torsions:
REMARK  status: ('A' for Active; 'I' for Inactive)
REMARK    1  A    between atoms: O_4  and  C_20
REMARK    2  A    between atoms: O_4  and  C_29
REMARK    3  A    between atoms: O_5  and  C_22
REMARK    4  A    between atoms: O_5  and  C_33
REMARK    5  A    between atoms: O_7  and  C_32
REMARK    6  A    between atoms: O_7  and  C_37
REMARK    7  A    between atoms: N_10  and  C_19
REMARK    8  A    between atoms: N_11  and  C_24
REMARK    9  A    between atoms: C_12  and  C_16
REMARK   10  A    between atoms: C_17  and  C_20
REMARK   11  A    between atoms: C_19  and  C_21
REMARK   12  A    between atoms: C_19  and  C_22
REMARK   13  A    between atoms: C_21  and  C_23
REMARK                            x       y       z     vdW  Elec       q    Type
REMARK                         _______ _______ _______ _____ _____    ______ ____
ROOT
ATOM      2  O   UNL     1     -10.653  -9.221  18.235  0.00  0.00    -0.273 OA
ATOM      3  O   UNL     1      -8.143 -10.742  11.523  0.00  0.00    -0.252 OA
ATOM      8  N   UNL     1     -10.284  -9.714  15.992  0.00  0.00    -0.285 N 
ATOM      9  N   UNL     1      -8.584  -9.858  13.615  0.00  0.00    -0.282 N 
ATOM     11  N   UNL     1      -6.763  -9.059  12.348  0.00  0.00    -0.269 N 
ATOM     12  C   UNL     1      -8.865  -9.366  16.068  0.00  0.00    +0.179 C 
ATOM     13  C   UNL     1      -8.262  -8.949  14.726  0.00  0.00    +0.141 C 
ATOM     14  C   UNL     1     -10.807 -10.107  14.679  0.00  0.00    +0.127 C 
ATOM     15  C   UNL     1      -9.744 -10.729  13.785  0.00  0.00    +0.128 C 
ATOM     17  C   UNL     1     -11.084  -9.551  17.128  0.00  0.00    +0.242 C 
ATOM     18  C   UNL     1      -7.836  -9.949  12.416  0.00  0.00    +0.307 C 
ATOM     39  H   UNL     1      -6.831  -8.199  12.883  0.00  0.00    +0.156 HD
ENDROOT
BRANCH  11  24
ATOM     24  C   UNL     1      -5.535  -9.235  11.663  0.00  0.00    +0.035 A 
ATOM     27  C   UNL     1      -5.315  -8.586  10.447  0.00  0.00    +0.023 A 
ATOM     28  C   UNL     1      -4.547 -10.057  12.203  0.00  0.00    +0.023 A 
ATOM     34  C   UNL     1      -4.106  -8.758   9.774  0.00  0.00    +0.002 A 
ATOM     35  C   UNL     1      -3.337 -10.230  11.531  0.00  0.00    +0.002 A 
ATOM     36  C   UNL     1      -3.116  -9.580  10.315  0.00  0.00    +0.000 A 
ENDBRANCH  11  24
BRANCH  12  16
ATOM      1  O   UNL     1      -8.579 -11.688  16.555  0.00  0.00    -0.274 OA
ATOM     10  N   UNL     1      -6.955 -10.180  17.267  0.00  0.00    -0.301 N 
ATOM     16  C   UNL     1      -8.134 -10.547  16.640  0.00  0.00    +0.236 C 
ATOM     38  H   UNL     1      -6.671  -9.205  17.259  0.00  0.00    +0.150 HD
BRANCH  10  19
ATOM     19  C   UNL     1      -6.078 -11.126  17.917  0.00  0.00    +0.186 C 
BRANCH  19  22
ATOM      6  O   UNL     1      -6.363 -10.644  20.268  0.00  0.00    -0.249 OA
ATOM     22  C   UNL     1      -6.515 -11.436  19.343  0.00  0.00    +0.328 C 
BRANCH  22   5
ATOM      5  O   UNL     1      -7.062 -12.679  19.454  0.00  0.00    -0.467 OA
ATOM     33  C   UNL     1      -8.422 -12.722  19.895  0.00  0.00    +0.280 C 
ENDBRANCH  22   5
ENDBRANCH  19  22
BRANCH  19  21
ATOM     21  C   UNL     1      -4.614 -10.668  17.850  0.00  0.00    +0.069 C 
BRANCH  21  23
ATOM     23  C   UNL     1      -3.831 -11.224  16.682  0.00  0.00    -0.045 A 
ATOM     25  C   UNL     1      -4.333 -12.304  15.956  0.00  0.00    +0.007 A 
ATOM     26  C   UNL     1      -2.607 -10.657  16.330  0.00  0.00    +0.007 A 
ATOM     30  C   UNL     1      -3.612 -12.817  14.879  0.00  0.00    +0.046 A 
ATOM     31  C   UNL     1      -1.884 -11.169  15.252  0.00  0.00    +0.046 A 
ATOM     32  C   UNL     1      -2.387 -12.251  14.526  0.00  0.00    +0.120 A 
BRANCH  32   7
ATOM      7  O   UNL     1      -1.683 -12.751  13.475  0.00  0.00    -0.495 OA
ATOM     37  C   UNL     1      -1.680 -14.169  13.312  0.00  0.00    +0.277 C 
ENDBRANCH  32   7
ENDBRANCH  21  23
ENDBRANCH  19  21
ENDBRANCH  10  19
ENDBRANCH  12  16
BRANCH  17  20
ATOM     20  C   UNL     1     -12.560  -9.813  16.951  0.00  0.00    +0.255 C 
BRANCH  20   4
ATOM      4  O   UNL     1     -13.184  -8.556  16.863  0.00  0.00    -0.374 OA
ATOM     29  C   UNL     1     -14.540  -8.659  16.434  0.00  0.00    +0.194 C 
ENDBRANCH  20   4
ENDBRANCH  17  20
TORSDOF 10
ENDMDL
MODEL 4
REMARK VINA RESULT:      -6.0      2.565      6.815
REMARK  Name = 11887584
REMARK  13 active torsions:
REMARK  status: ('A' for Active; 'I' for Inactive)
REMARK    1  A    between atoms: O_4  and  C_20
REMARK    2  A    between atoms: O_4  and  C_29
REMARK    3  A    between atoms: O_5  and  C_22
REMARK    4  A    between atoms: O_5  and  C_33
REMARK    5  A    between atoms: O_7  and  C_32
REMARK    6  A    between atoms: O_7  and  C_37
REMARK    7  A    between atoms: N_10  and  C_19
REMARK    8  A    between atoms: N_11  and  C_24
REMARK    9  A    between atoms: C_12  and  C_16
REMARK   10  A    between atoms: C_17  and  C_20
REMARK   11  A    between atoms: C_19  and  C_21
REMARK   12  A    between atoms: C_19  and  C_22
REMARK   13  A    between atoms: C_21  and  C_23
REMARK                            x       y       z     vdW  Elec       q    Type
REMARK                         _______ _______ _______ _____ _____    ______ ____
ROOT
ATOM      2  O   UNL     1      12.892  10.265  18.254  0.00  0.00    -0.273 OA
ATOM      3  O   UNL     1      17.883   5.981  21.481  0.00  0.00    -0.252 OA
ATOM      8  N   UNL     1      14.383   8.622  18.952  0.00  0.00    -0.285 N 
ATOM      9  N   UNL     1      16.694   7.704  20.495  0.00  0.00    -0.282 N 
ATOM     11  N   UNL     1      18.781   8.128  21.505  0.00  0.00    -0.269 N 
ATOM     12  C   UNL     1      15.084   9.532  19.858  0.00  0.00    +0.179 C 
ATOM     13  C   UNL     1      16.530   9.122  20.142  0.00  0.00    +0.141 C 
ATOM     14  C   UNL     1      14.906   7.255  18.840  0.00  0.00    +0.127 C 
ATOM     15  C   UNL     1      15.621   6.793  20.101  0.00  0.00    +0.128 C 
ATOM     17  C   UNL     1      13.337   9.118  18.166  0.00  0.00    +0.242 C 
ATOM     18  C   UNL     1      17.805   7.179  21.198  0.00  0.00    +0.307 C 
ATOM     39  H   UNL     1      18.853   8.942  20.901  0.00  0.00    +0.156 HD
ENDROOT
BRANCH  11  24
ATOM     24  C   UNL     1      19.661   8.135  22.616  0.00  0.00    +0.035 A 
ATOM     27  C   UNL     1      19.926   9.328  23.290  0.00  0.00    +0.023 A 
ATOM     28  C   UNL     1      20.263   6.949  23.036  0.00  0.00    +0.023 A 
ATOM     34  C   UNL     1      20.790   9.334  24.384  0.00  0.00    +0.002 A 
ATOM     35  C   UNL     1      21.128   6.955  24.131  0.00  0.00    +0.002 A 
ATOM     36  C   UNL     1      21.392   8.148  24.805  0.00  0.00    +0.000 A 
ENDBRANCH  11  24
BRANCH  12  16
ATOM      1  O   UNL     1      14.795   9.986  22.186  0.00  0.00    -0.274 OA
ATOM     10  N   UNL     1      12.979   9.203  20.957  0.00  0.00    -0.301 N 
ATOM     16  C   UNL     1      14.290   9.613  21.130  0.00  0.00    +0.236 C 
ATOM     38  H   UNL     1      12.661   8.933  20.031  0.00  0.00    +0.150 HD
BRANCH  10  19
ATOM     19  C   UNL     1      12.015   9.165  22.033  0.00  0.00    +0.186 C 
BRANCH  19  22
ATOM      6  O   UNL     1      10.143   7.747  22.604  0.00  0.00    -0.249 OA
ATOM     22  C   UNL     1      11.245   7.851  22.075  0.00  0.00    +0.328 C 
BRANCH  22   5
ATOM      5  O   UNL     1      11.932   6.834  21.483  0.00  0.00    -0.467 OA
ATOM     33  C   UNL     1      11.293   5.554  21.512  0.00  0.00    +0.280 C 
ENDBRANCH  22   5
ENDBRANCH  19  22
BRANCH  19  21
ATOM     21  C   UNL     1      11.077  10.380  21.986  0.00  0.00    +0.069 C 
BRANCH  21  23
ATOM     23  C   UNL     1      11.342  11.424  23.047  0.00  0.00    -0.045 A 
ATOM     25  C   UNL     1      12.011  12.602  22.715  0.00  0.00    +0.007 A 
ATOM     26  C   UNL     1      10.919  11.209  24.358  0.00  0.00    +0.007 A 
ATOM     30  C   UNL     1      12.256  13.565  23.694  0.00  0.00    +0.046 A 
ATOM     31  C   UNL     1      11.163  12.172  25.338  0.00  0.00    +0.046 A 
ATOM     32  C   UNL     1      11.833  13.350  25.005  0.00  0.00    +0.120 A 
BRANCH  32   7
ATOM      7  O   UNL     1      12.072  14.289  25.960  0.00  0.00    -0.495 OA
ATOM     37  C   UNL     1      13.185  14.067  26.825  0.00  0.00    +0.277 C 
ENDBRANCH  32   7
ENDBRANCH  21  23
ENDBRANCH  19  21
ENDBRANCH  10  19
ENDBRANCH  12  16
BRANCH  17  20
ATOM     20  C   UNL     1      12.736   8.159  17.168  0.00  0.00    +0.255 C 
BRANCH  20   4
ATOM      4  O   UNL     1      11.366   8.066  17.476  0.00  0.00    -0.374 OA
ATOM     29  C   UNL     1      10.542   8.479  16.388  0.00  0.00    +0.194 C 
ENDBRANCH  20   4
ENDBRANCH  17  20
TORSDOF 10
ENDMDL
MODEL 5
REMARK VINA RESULT:      -6.0     12.830     17.229
REMARK  Name = 11887584
REMARK  13 active torsions:
REMARK  status: ('A' for Active; 'I' for Inactive)
REMARK    1  A    between atoms: O_4  and  C_20
REMARK    2  A    between atoms: O_4  and  C_29
REMARK    3  A    between atoms: O_5  and  C_22
REMARK    4  A    between atoms: O_5  and  C_33
REMARK    5  A    between atoms: O_7  and  C_32
REMARK    6  A    between atoms: O_7  and  C_37
REMARK    7  A    between atoms: N_10  and  C_19
REMARK    8  A    between atoms: N_11  and  C_24
REMARK    9  A    between atoms: C_12  and  C_16
REMARK   10  A    between atoms: C_17  and  C_20
REMARK   11  A    between atoms: C_19  and  C_21
REMARK   12  A    between atoms: C_19  and  C_22
REMARK   13  A    between atoms: C_21  and  C_23
REMARK                            x       y       z     vdW  Elec       q    Type
REMARK                         _______ _______ _______ _____ _____    ______ ____
ROOT
ATOM      2  O   UNL     1      12.056  10.727   8.866  0.00  0.00    -0.273 OA
ATOM      3  O   UNL     1      12.434   8.336   1.951  0.00  0.00    -0.252 OA
ATOM      8  N   UNL     1      12.269  10.389   6.574  0.00  0.00    -0.285 N 
ATOM      9  N   UNL     1      12.647   8.680   4.229  0.00  0.00    -0.282 N 
ATOM     11  N   UNL     1      13.524   6.730   3.237  0.00  0.00    -0.269 N 
ATOM     12  C   UNL     1      12.350   8.936   6.716  0.00  0.00    +0.179 C 
ATOM     13  C   UNL     1      13.083   8.246   5.565  0.00  0.00    +0.141 C 
ATOM     14  C   UNL     1      12.410  10.938   5.220  0.00  0.00    +0.127 C 
ATOM     15  C   UNL     1      11.957   9.966   4.141  0.00  0.00    +0.128 C 
ATOM     17  C   UNL     1      12.175  11.180   7.725  0.00  0.00    +0.242 C 
ATOM     18  C   UNL     1      12.836   7.929   3.044  0.00  0.00    +0.307 C 
ATOM     39  H   UNL     1      14.162   6.675   4.024  0.00  0.00    +0.156 HD
ENDROOT
BRANCH  11  24
ATOM     24  C   UNL     1      13.392   5.529   2.495  0.00  0.00    +0.035 A 
ATOM     27  C   UNL     1      14.485   5.021   1.792  0.00  0.00    +0.023 A 
ATOM     28  C   UNL     1      12.172   4.855   2.468  0.00  0.00    +0.023 A 
ATOM     34  C   UNL     1      14.356   3.838   1.063  0.00  0.00    +0.002 A 
ATOM     35  C   UNL     1      12.042   3.673   1.740  0.00  0.00    +0.002 A 
ATOM     36  C   UNL     1      13.135   3.164   1.037  0.00  0.00    +0.000 A 
ENDBRANCH  11  24
BRANCH  12  16
ATOM      1  O   UNL     1      10.002   9.148   7.108  0.00  0.00    -0.274 OA
ATOM     10  N   UNL     1      10.886   7.038   6.677  0.00  0.00    -0.301 N 
ATOM     16  C   UNL     1      10.950   8.410   6.851  0.00  0.00    +0.236 C 
ATOM     38  H   UNL     1      11.733   6.527   6.446  0.00  0.00    +0.150 HD
BRANCH  10  19
ATOM     19  C   UNL     1       9.657   6.284   6.780  0.00  0.00    +0.186 C 
BRANCH  19  22
ATOM      6  O   UNL     1       9.873   3.965   7.421  0.00  0.00    -0.249 OA
ATOM     22  C   UNL     1       9.763   5.135   7.773  0.00  0.00    +0.328 C 
BRANCH  22   5
ATOM      5  O   UNL     1       9.702   5.564   9.064  0.00  0.00    -0.467 OA
ATOM     33  C   UNL     1       9.057   4.677   9.984  0.00  0.00    +0.280 C 
ENDBRANCH  22   5
ENDBRANCH  19  22
BRANCH  19  21
ATOM     21  C   UNL     1       9.176   5.811   5.400  0.00  0.00    +0.069 C 
BRANCH  21  23
ATOM     23  C   UNL     1       8.781   6.922   4.453  0.00  0.00    -0.045 A 
ATOM     25  C   UNL     1       7.859   7.888   4.858  0.00  0.00    +0.007 A 
ATOM     26  C   UNL     1       9.337   6.981   3.176  0.00  0.00    +0.007 A 
ATOM     30  C   UNL     1       7.494   8.912   3.985  0.00  0.00    +0.046 A 
ATOM     31  C   UNL     1       8.972   8.006   2.303  0.00  0.00    +0.046 A 
ATOM     32  C   UNL     1       8.049   8.972   2.707  0.00  0.00    +0.120 A 
BRANCH  32   7
ATOM      7  O   UNL     1       7.693   9.971   1.856  0.00  0.00    -0.495 OA
ATOM     37  C   UNL     1       6.674   9.678   0.901  0.00  0.00    +0.277 C 
ENDBRANCH  32   7
ENDBRANCH  21  23
ENDBRANCH  19  21
ENDBRANCH  10  19
ENDBRANCH  12  16
BRANCH  17  20
ATOM     20  C   UNL     1      12.215  12.674   7.516  0.00  0.00    +0.255 C 
BRANCH  20   4
ATOM      4  O   UNL     1      10.887  13.127   7.601  0.00  0.00    -0.374 OA
ATOM     29  C   UNL     1      10.596  14.124   6.623  0.00  0.00    +0.194 C 
ENDBRANCH  20   4
ENDBRANCH  17  20
TORSDOF 10
ENDMDL
MODEL 6
REMARK VINA RESULT:      -5.8     13.458     19.001
REMARK  Name = 11887584
REMARK  13 active torsions:
REMARK  status: ('A' for Active; 'I' for Inactive)
REMARK    1  A    between atoms: O_4  and  C_20
REMARK    2  A    between atoms: O_4  and  C_29
REMARK    3  A    between atoms: O_5  and  C_22
REMARK    4  A    between atoms: O_5  and  C_33
REMARK    5  A    between atoms: O_7  and  C_32
REMARK    6  A    between atoms: O_7  and  C_37
REMARK    7  A    between atoms: N_10  and  C_19
REMARK    8  A    between atoms: N_11  and  C_24
REMARK    9  A    between atoms: C_12  and  C_16
REMARK   10  A    between atoms: C_17  and  C_20
REMARK   11  A    between atoms: C_19  and  C_21
REMARK   12  A    between atoms: C_19  and  C_22
REMARK   13  A    between atoms: C_21  and  C_23
REMARK                            x       y       z     vdW  Elec       q    Type
REMARK                         _______ _______ _______ _____ _____    ______ ____
ROOT
ATOM      2  O   UNL     1      12.409   6.954   5.758  0.00  0.00    -0.273 OA
ATOM      3  O   UNL     1      13.287   6.891  -1.514  0.00  0.00    -0.252 OA
ATOM      8  N   UNL     1      13.021   7.213   3.529  0.00  0.00    -0.285 N 
ATOM      9  N   UNL     1      13.016   6.377   0.725  0.00  0.00    -0.282 N 
ATOM     11  N   UNL     1      12.897   4.678  -0.905  0.00  0.00    -0.269 N 
ATOM     12  C   UNL     1      12.239   6.055   3.098  0.00  0.00    +0.179 C 
ATOM     13  C   UNL     1      12.749   5.416   1.806  0.00  0.00    +0.141 C 
ATOM     14  C   UNL     1      13.810   7.907   2.504  0.00  0.00    +0.127 C 
ATOM     15  C   UNL     1      13.212   7.773   1.112  0.00  0.00    +0.128 C 
ATOM     17  C   UNL     1      13.068   7.532   4.891  0.00  0.00    +0.242 C 
ATOM     18  C   UNL     1      13.075   6.039  -0.648  0.00  0.00    +0.307 C 
ATOM     39  H   UNL     1      13.151   4.024  -0.171  0.00  0.00    +0.156 HD
ENDROOT
BRANCH  11  24
ATOM     24  C   UNL     1      12.333   4.083  -2.061  0.00  0.00    +0.035 A 
ATOM     27  C   UNL     1      13.158   3.677  -3.110  0.00  0.00    +0.023 A 
ATOM     28  C   UNL     1      10.953   3.903  -2.150  0.00  0.00    +0.023 A 
ATOM     34  C   UNL     1      12.604   3.089  -4.247  0.00  0.00    +0.002 A 
ATOM     35  C   UNL     1      10.397   3.316  -3.287  0.00  0.00    +0.002 A 
ATOM     36  C   UNL     1      11.223   2.909  -4.336  0.00  0.00    +0.000 A 
ENDBRANCH  11  24
BRANCH  12  16
ATOM      1  O   UNL     1      10.054   5.975   2.134  0.00  0.00    -0.274 OA
ATOM     10  N   UNL     1      10.492   7.537   3.804  0.00  0.00    -0.301 N 
ATOM     16  C   UNL     1      10.811   6.495   2.950  0.00  0.00    +0.236 C 
ATOM     38  H   UNL     1      11.193   7.877   4.455  0.00  0.00    +0.150 HD
BRANCH  10  19
ATOM     19  C   UNL     1       9.187   8.157   3.841  0.00  0.00    +0.186 C 
BRANCH  19  22
ATOM      6  O   UNL     1       8.241  10.291   4.465  0.00  0.00    -0.249 OA
ATOM     22  C   UNL     1       9.238   9.581   4.378  0.00  0.00    +0.328 C 
BRANCH  22   5
ATOM      5  O   UNL     1      10.503   9.958   4.717  0.00  0.00    -0.467 OA
ATOM     33  C   UNL     1      10.642  10.586   5.995  0.00  0.00    +0.280 C 
ENDBRANCH  22   5
ENDBRANCH  19  22
BRANCH  19  21
ATOM     21  C   UNL     1       8.178   7.289   4.607  0.00  0.00    +0.069 C 
BRANCH  21  23
ATOM     23  C   UNL     1       8.688   6.735   5.919  0.00  0.00    -0.045 A 
ATOM     25  C   UNL     1       9.232   5.451   5.968  0.00  0.00    +0.007 A 
ATOM     26  C   UNL     1       8.614   7.506   7.077  0.00  0.00    +0.007 A 
ATOM     30  C   UNL     1       9.702   4.939   7.178  0.00  0.00    +0.046 A 
ATOM     31  C   UNL     1       9.084   6.995   8.287  0.00  0.00    +0.046 A 
ATOM     32  C   UNL     1       9.628   5.711   8.337  0.00  0.00    +0.120 A 
BRANCH  32   7
ATOM      7  O   UNL     1      10.086   5.212   9.517  0.00  0.00    -0.495 OA
ATOM     37  C   UNL     1       9.158   4.478  10.316  0.00  0.00    +0.277 C 
ENDBRANCH  32   7
ENDBRANCH  21  23
ENDBRANCH  19  21
ENDBRANCH  10  19
ENDBRANCH  12  16
BRANCH  17  20
ATOM     20  C   UNL     1      13.985   8.664   5.283  0.00  0.00    +0.255 C 
BRANCH  20   4
ATOM      4  O   UNL     1      14.807   8.176   6.315  0.00  0.00    -0.374 OA
ATOM     29  C   UNL     1      16.192   8.363   6.032  0.00  0.00    +0.194 C 
ENDBRANCH  20   4
ENDBRANCH  17  20
TORSDOF 10
ENDMDL
MODEL 7
REMARK VINA RESULT:      -5.7     13.286     16.289
REMARK  Name = 11887584
REMARK  13 active torsions:
REMARK  status: ('A' for Active; 'I' for Inactive)
REMARK    1  A    between atoms: O_4  and  C_20
REMARK    2  A    between atoms: O_4  and  C_29
REMARK    3  A    between atoms: O_5  and  C_22
REMARK    4  A    between atoms: O_5  and  C_33
REMARK    5  A    between atoms: O_7  and  C_32
REMARK    6  A    between atoms: O_7  and  C_37
REMARK    7  A    between atoms: N_10  and  C_19
REMARK    8  A    between atoms: N_11  and  C_24
REMARK    9  A    between atoms: C_12  and  C_16
REMARK   10  A    between atoms: C_17  and  C_20
REMARK   11  A    between atoms: C_19  and  C_21
REMARK   12  A    between atoms: C_19  and  C_22
REMARK   13  A    between atoms: C_21  and  C_23
REMARK                            x       y       z     vdW  Elec       q    Type
REMARK                         _______ _______ _______ _____ _____    ______ ____
ROOT
ATOM      2  O   UNL     1      16.249   8.293   3.948  0.00  0.00    -0.273 OA
ATOM      3  O   UNL     1      10.127  10.830   7.071  0.00  0.00    -0.252 OA
ATOM      8  N   UNL     1      14.582   9.293   5.226  0.00  0.00    -0.285 N 
ATOM      9  N   UNL     1      11.838  10.224   5.637  0.00  0.00    -0.282 N 
ATOM     11  N   UNL     1       9.808  11.057   4.777  0.00  0.00    -0.269 N 
ATOM     12  C   UNL     1      13.555   9.060   4.210  0.00  0.00    +0.179 C 
ATOM     13  C   UNL     1      12.384  10.041   4.284  0.00  0.00    +0.141 C 
ATOM     14  C   UNL     1      14.177  10.028   6.430  0.00  0.00    +0.127 C 
ATOM     15  C   UNL     1      12.701   9.853   6.757  0.00  0.00    +0.128 C 
ATOM     17  C   UNL     1      15.901   8.910   4.958  0.00  0.00    +0.242 C 
ATOM     18  C   UNL     1      10.539  10.713   5.915  0.00  0.00    +0.307 C 
ATOM     39  H   UNL     1      10.328  11.331   3.949  0.00  0.00    +0.156 HD
ENDROOT
BRANCH  11  24
ATOM     24  C   UNL     1       8.402  11.009   4.605  0.00  0.00    +0.035 A 
ATOM     27  C   UNL     1       7.611  12.078   5.027  0.00  0.00    +0.023 A 
ATOM     28  C   UNL     1       7.809   9.894   4.015  0.00  0.00    +0.023 A 
ATOM     34  C   UNL     1       6.227  12.032   4.856  0.00  0.00    +0.002 A 
ATOM     35  C   UNL     1       6.425   9.846   3.844  0.00  0.00    +0.002 A 
ATOM     36  C   UNL     1       5.634  10.916   4.265  0.00  0.00    +0.000 A 
ENDBRANCH  11  24
BRANCH  12  16
ATOM      1  O   UNL     1      13.411   6.944   5.309  0.00  0.00    -0.274 OA
ATOM     10  N   UNL     1      12.266   7.252   3.306  0.00  0.00    -0.301 N 
ATOM     16  C   UNL     1      13.077   7.644   4.358  0.00  0.00    +0.236 C 
ATOM     38  H   UNL     1      12.037   7.923   2.579  0.00  0.00    +0.150 HD
BRANCH  10  19
ATOM     19  C   UNL     1      11.695   5.929   3.199  0.00  0.00    +0.186 C 
BRANCH  19  22
ATOM      6  O   UNL     1      12.359   5.932   0.876  0.00  0.00    -0.249 OA
ATOM     22  C   UNL     1      11.965   5.289   1.844  0.00  0.00    +0.328 C 
BRANCH  22   5
ATOM      5  O   UNL     1      11.699   3.953   1.844  0.00  0.00    -0.467 OA
ATOM     33  C   UNL     1      12.812   3.098   1.566  0.00  0.00    +0.280 C 
ENDBRANCH  22   5
ENDBRANCH  19  22
BRANCH  19  21
ATOM     21  C   UNL     1      10.198   5.937   3.545  0.00  0.00    +0.069 C 
BRANCH  21  23
ATOM     23  C   UNL     1       9.891   5.917   5.025  0.00  0.00    -0.045 A 
ATOM     25  C   UNL     1      10.014   4.729   5.746  0.00  0.00    +0.007 A 
ATOM     26  C   UNL     1       9.485   7.085   5.669  0.00  0.00    +0.007 A 
ATOM     30  C   UNL     1       9.731   4.710   7.111  0.00  0.00    +0.046 A 
ATOM     31  C   UNL     1       9.201   7.066   7.035  0.00  0.00    +0.046 A 
ATOM     32  C   UNL     1       9.324   5.877   7.757  0.00  0.00    +0.120 A 
BRANCH  32   7
ATOM      7  O   UNL     1       9.047   5.858   9.088  0.00  0.00    -0.495 OA
ATOM     37  C   UNL     1       9.196   4.611   9.765  0.00  0.00    +0.277 C 
ENDBRANCH  32   7
ENDBRANCH  21  23
ENDBRANCH  19  21
ENDBRANCH  10  19
ENDBRANCH  12  16
BRANCH  17  20
ATOM     20  C   UNL     1      16.931   9.285   5.995  0.00  0.00    +0.255 C 
BRANCH  20   4
ATOM      4  O   UNL     1      18.110   8.596   5.658  0.00  0.00    -0.374 OA
ATOM     29  C   UNL     1      19.152   8.821   6.605  0.00  0.00    +0.194 C 
ENDBRANCH  20   4
ENDBRANCH  17  20
TORSDOF 10
ENDMDL
MODEL 8
REMARK VINA RESULT:      -5.7     27.977     30.020
REMARK  Name = 11887584
REMARK  13 active torsions:
REMARK  status: ('A' for Active; 'I' for Inactive)
REMARK    1  A    between atoms: O_4  and  C_20
REMARK    2  A    between atoms: O_4  and  C_29
REMARK    3  A    between atoms: O_5  and  C_22
REMARK    4  A    between atoms: O_5  and  C_33
REMARK    5  A    between atoms: O_7  and  C_32
REMARK    6  A    between atoms: O_7  and  C_37
REMARK    7  A    between atoms: N_10  and  C_19
REMARK    8  A    between atoms: N_11  and  C_24
REMARK    9  A    between atoms: C_12  and  C_16
REMARK   10  A    between atoms: C_17  and  C_20
REMARK   11  A    between atoms: C_19  and  C_21
REMARK   12  A    between atoms: C_19  and  C_22
REMARK   13  A    between atoms: C_21  and  C_23
REMARK                            x       y       z     vdW  Elec       q    Type
REMARK                         _______ _______ _______ _____ _____    ______ ____
ROOT
ATOM      2  O   UNL     1      -4.021 -13.535  14.478  0.00  0.00    -0.273 OA
ATOM      3  O   UNL     1      -3.858  -8.793   8.897  0.00  0.00    -0.252 OA
ATOM      8  N   UNL     1      -3.551 -12.164  12.658  0.00  0.00    -0.285 N 
ATOM      9  N   UNL     1      -4.355 -10.464  10.417  0.00  0.00    -0.282 N 
ATOM     11  N   UNL     1      -5.904  -9.892   8.734  0.00  0.00    -0.269 N 
ATOM     12  C   UNL     1      -4.963 -11.871  12.415  0.00  0.00    +0.179 C 
ATOM     13  C   UNL     1      -5.268 -11.477  10.969  0.00  0.00    +0.141 C 
ATOM     14  C   UNL     1      -2.577 -11.592  11.721  0.00  0.00    +0.127 C 
ATOM     15  C   UNL     1      -3.064 -10.300  11.082  0.00  0.00    +0.128 C 
ATOM     17  C   UNL     1      -3.209 -13.050  13.686  0.00  0.00    +0.242 C 
ATOM     18  C   UNL     1      -4.657  -9.638   9.308  0.00  0.00    +0.307 C 
ATOM     39  H   UNL     1      -6.288 -10.825   8.838  0.00  0.00    +0.156 HD
ENDROOT
BRANCH  11  24
ATOM     24  C   UNL     1      -6.751  -8.973   8.066  0.00  0.00    +0.035 A 
ATOM     27  C   UNL     1      -7.355  -7.936   8.778  0.00  0.00    +0.023 A 
ATOM     28  C   UNL     1      -6.980  -9.103   6.697  0.00  0.00    +0.023 A 
ATOM     34  C   UNL     1      -8.187  -7.030   8.121  0.00  0.00    +0.002 A 
ATOM     35  C   UNL     1      -7.813  -8.198   6.038  0.00  0.00    +0.002 A 
ATOM     36  C   UNL     1      -8.416  -7.161   6.750  0.00  0.00    +0.000 A 
ENDBRANCH  11  24
BRANCH  12  16
ATOM      1  O   UNL     1      -5.418  -9.604  13.020  0.00  0.00    -0.274 OA
ATOM     10  N   UNL     1      -5.661 -11.269  14.628  0.00  0.00    -0.301 N 
ATOM     16  C   UNL     1      -5.375 -10.782  13.364  0.00  0.00    +0.236 C 
ATOM     38  H   UNL     1      -5.612 -12.270  14.798  0.00  0.00    +0.150 HD
BRANCH  10  19
ATOM     19  C   UNL     1      -6.059 -10.423  15.730  0.00  0.00    +0.186 C 
BRANCH  19  22
ATOM      6  O   UNL     1      -3.817 -10.251  16.614  0.00  0.00    -0.249 OA
ATOM     22  C   UNL     1      -5.015 -10.386  16.838  0.00  0.00    +0.328 C 
BRANCH  22   5
ATOM      5  O   UNL     1      -5.571 -10.540  18.073  0.00  0.00    -0.467 OA
ATOM     33  C   UNL     1      -4.937 -11.499  18.925  0.00  0.00    +0.280 C 
ENDBRANCH  22   5
ENDBRANCH  19  22
BRANCH  19  21
ATOM     21  C   UNL     1      -7.448 -10.811  16.259  0.00  0.00    +0.069 C 
BRANCH  21  23
ATOM     23  C   UNL     1      -8.461  -9.688  16.257  0.00  0.00    -0.045 A 
ATOM     25  C   UNL     1      -9.118  -9.345  15.076  0.00  0.00    +0.007 A 
ATOM     26  C   UNL     1      -8.737  -8.997  17.435  0.00  0.00    +0.007 A 
ATOM     30  C   UNL     1     -10.052  -8.309  15.073  0.00  0.00    +0.046 A 
ATOM     31  C   UNL     1      -9.672  -7.961  17.434  0.00  0.00    +0.046 A 
ATOM     32  C   UNL     1     -10.329  -7.616  16.252  0.00  0.00    +0.120 A 
BRANCH  32   7
ATOM      7  O   UNL     1     -11.240  -6.606  16.250  0.00  0.00    -0.495 OA
ATOM     37  C   UNL     1     -11.460  -5.933  15.011  0.00  0.00    +0.277 C 
ENDBRANCH  32   7
ENDBRANCH  21  23
ENDBRANCH  19  21
ENDBRANCH  10  19
ENDBRANCH  12  16
BRANCH  17  20
ATOM     20  C   UNL     1      -1.747 -13.402  13.809  0.00  0.00    +0.255 C 
BRANCH  20   4
ATOM      4  O   UNL     1      -1.599 -14.695  13.275  0.00  0.00    -0.374 OA
ATOM     29  C   UNL     1      -0.252 -15.156  13.350  0.00  0.00    +0.194 C 
ENDBRANCH  20   4
ENDBRANCH  17  20
TORSDOF 10
ENDMDL
MODEL 9
REMARK VINA RESULT:      -5.7     26.673     30.423
REMARK  Name = 11887584
REMARK  13 active torsions:
REMARK  status: ('A' for Active; 'I' for Inactive)
REMARK    1  A    between atoms: O_4  and  C_20
REMARK    2  A    between atoms: O_4  and  C_29
REMARK    3  A    between atoms: O_5  and  C_22
REMARK    4  A    between atoms: O_5  and  C_33
REMARK    5  A    between atoms: O_7  and  C_32
REMARK    6  A    between atoms: O_7  and  C_37
REMARK    7  A    between atoms: N_10  and  C_19
REMARK    8  A    between atoms: N_11  and  C_24
REMARK    9  A    between atoms: C_12  and  C_16
REMARK   10  A    between atoms: C_17  and  C_20
REMARK   11  A    between atoms: C_19  and  C_21
REMARK   12  A    between atoms: C_19  and  C_22
REMARK   13  A    between atoms: C_21  and  C_23
REMARK                            x       y       z     vdW  Elec       q    Type
REMARK                         _______ _______ _______ _____ _____    ______ ____
ROOT
ATOM      2  O   UNL     1      -4.847 -10.299  16.693  0.00  0.00    -0.273 OA
ATOM      3  O   UNL     1     -10.143 -11.493  11.774  0.00  0.00    -0.252 OA
ATOM      8  N   UNL     1      -6.773 -10.788  15.483  0.00  0.00    -0.285 N 
ATOM      9  N   UNL     1      -8.427 -10.645  13.073  0.00  0.00    -0.282 N 
ATOM     11  N   UNL     1      -9.109  -9.512  11.122  0.00  0.00    -0.269 N 
ATOM     12  C   UNL     1      -6.275 -10.130  14.275  0.00  0.00    +0.179 C 
ATOM     13  C   UNL     1      -7.384  -9.643  13.340  0.00  0.00    +0.141 C 
ATOM     14  C   UNL     1      -8.132 -11.341  15.433  0.00  0.00    +0.127 C 
ATOM     15  C   UNL     1      -8.550 -11.746  14.027  0.00  0.00    +0.128 C 
ATOM     17  C   UNL     1      -5.989 -10.761  16.642  0.00  0.00    +0.242 C 
ATOM     18  C   UNL     1      -9.295 -10.616  11.955  0.00  0.00    +0.307 C 
ATOM     39  H   UNL     1      -8.727  -8.668  11.537  0.00  0.00    +0.156 HD
ENDROOT
BRANCH  11  24
ATOM     24  C   UNL     1      -9.328  -9.438   9.723  0.00  0.00    +0.035 A 
ATOM     27  C   UNL     1     -10.240  -8.517   9.208  0.00  0.00    +0.023 A 
ATOM     28  C   UNL     1      -8.631 -10.285   8.862  0.00  0.00    +0.023 A 
ATOM     34  C   UNL     1     -10.454  -8.442   7.832  0.00  0.00    +0.002 A 
ATOM     35  C   UNL     1      -8.845 -10.212   7.486  0.00  0.00    +0.002 A 
ATOM     36  C   UNL     1      -9.757  -9.290   6.970  0.00  0.00    +0.000 A 
ENDBRANCH  11  24
BRANCH  12  16
ATOM      1  O   UNL     1      -5.798 -12.076  12.974  0.00  0.00    -0.274 OA
ATOM     10  N   UNL     1      -4.031 -10.747  13.702  0.00  0.00    -0.301 N 
ATOM     16  C   UNL     1      -5.365 -11.093  13.570  0.00  0.00    +0.236 C 
ATOM     38  H   UNL     1      -3.786  -9.897  14.202  0.00  0.00    +0.150 HD
BRANCH  10  19
ATOM     19  C   UNL     1      -2.952 -11.524  13.136  0.00  0.00    +0.186 C 
BRANCH  19  22
ATOM      6  O   UNL     1      -1.193 -12.944  13.989  0.00  0.00    -0.249 OA
ATOM     22  C   UNL     1      -1.981 -12.026  14.196  0.00  0.00    +0.328 C 
BRANCH  22   5
ATOM      5  O   UNL     1      -2.113 -11.354  15.374  0.00  0.00    -0.467 OA
ATOM     33  C   UNL     1      -1.101 -10.381  15.651  0.00  0.00    +0.280 C 
ENDBRANCH  22   5
ENDBRANCH  19  22
BRANCH  19  21
ATOM     21  C   UNL     1      -2.236 -10.753  12.017  0.00  0.00    +0.069 C 
BRANCH  21  23
ATOM     23  C   UNL     1      -3.079 -10.496  10.787  0.00  0.00    -0.045 A 
ATOM     25  C   UNL     1      -3.249  -9.194  10.319  0.00  0.00    +0.007 A 
ATOM     26  C   UNL     1      -3.686 -11.561  10.123  0.00  0.00    +0.007 A 
ATOM     30  C   UNL     1      -4.026  -8.956   9.186  0.00  0.00    +0.046 A 
ATOM     31  C   UNL     1      -4.464 -11.324   8.989  0.00  0.00    +0.046 A 
ATOM     32  C   UNL     1      -4.634 -10.020   8.521  0.00  0.00    +0.120 A 
BRANCH  32   7
ATOM      7  O   UNL     1      -5.393  -9.789   7.415  0.00  0.00    -0.495 OA
ATOM     37  C   UNL     1      -5.350 -10.771   6.381  0.00  0.00    +0.277 C 
ENDBRANCH  32   7
ENDBRANCH  21  23
ENDBRANCH  19  21
ENDBRANCH  10  19
ENDBRANCH  12  16
BRANCH  17  20
ATOM     20  C   UNL     1      -6.610 -11.353  17.883  0.00  0.00    +0.255 C 
BRANCH  20   4
ATOM      4  O   UNL     1      -5.549 -11.673  18.750  0.00  0.00    -0.374 OA
ATOM     29  C   UNL     1      -5.816 -11.278  20.094  0.00  0.00    +0.194 C 
ENDBRANCH  20   4
ENDBRANCH  17  20
TORSDOF 10
ENDMDL
MODEL 10
REMARK VINA RESULT:      -5.7     24.544     27.812
REMARK  Name = 11887584
REMARK  13 active torsions:
REMARK  status: ('A' for Active; 'I' for Inactive)
REMARK    1  A    between atoms: O_4  and  C_20
REMARK    2  A    between atoms: O_4  and  C_29
REMARK    3  A    between atoms: O_5  and  C_22
REMARK    4  A    between atoms: O_5  and  C_33
REMARK    5  A    between atoms: O_7  and  C_32
REMARK    6  A    between atoms: O_7  and  C_37
REMARK    7  A    between atoms: N_10  and  C_19
REMARK    8  A    between atoms: N_11  and  C_24
REMARK    9  A    between atoms: C_12  and  C_16
REMARK   10  A    between atoms: C_17  and  C_20
REMARK   11  A    between atoms: C_19  and  C_21
REMARK   12  A    between atoms: C_19  and  C_22
REMARK   13  A    between atoms: C_21  and  C_23
REMARK                            x       y       z     vdW  Elec       q    Type
REMARK                         _______ _______ _______ _____ _____    ______ ____
ROOT
ATOM      2  O   UNL     1     -16.263   6.677  22.608  0.00  0.00    -0.273 OA
ATOM      3  O   UNL     1     -10.062   9.139  19.584  0.00  0.00    -0.252 OA
ATOM      8  N   UNL     1     -14.189   7.030  21.616  0.00  0.00    -0.285 N 
ATOM      9  N   UNL     1     -12.251   8.685  20.179  0.00  0.00    -0.282 N 
ATOM     11  N   UNL     1     -11.769  10.422  18.659  0.00  0.00    -0.269 N 
ATOM     12  C   UNL     1     -14.493   8.424  21.294  0.00  0.00    +0.179 C 
ATOM     13  C   UNL     1     -13.692   8.970  20.111  0.00  0.00    +0.141 C 
ATOM     14  C   UNL     1     -12.894   6.506  21.165  0.00  0.00    +0.127 C 
ATOM     15  C   UNL     1     -11.831   7.588  21.048  0.00  0.00    +0.128 C 
ATOM     17  C   UNL     1     -15.173   6.245  22.226  0.00  0.00    +0.242 C 
ATOM     18  C   UNL     1     -11.259   9.412  19.477  0.00  0.00    +0.307 C 
ATOM     39  H   UNL     1     -12.715  10.310  18.307  0.00  0.00    +0.156 HD
ENDROOT
BRANCH  11  24
ATOM     24  C   UNL     1     -11.146  11.645  18.305  0.00  0.00    +0.035 A 
ATOM     27  C   UNL     1      -9.975  11.636  17.546  0.00  0.00    +0.023 A 
ATOM     28  C   UNL     1     -11.702  12.856  18.714  0.00  0.00    +0.023 A 
ATOM     34  C   UNL     1      -9.362  12.839  17.195  0.00  0.00    +0.002 A 
ATOM     35  C   UNL     1     -11.089  14.060  18.364  0.00  0.00    +0.002 A 
ATOM     36  C   UNL     1      -9.919  14.051  17.604  0.00  0.00    +0.000 A 
ENDBRANCH  11  24
BRANCH  12  16
ATOM      1  O   UNL     1     -14.415   8.783  23.655  0.00  0.00    -0.274 OA
ATOM     10  N   UNL     1     -13.851  10.536  22.231  0.00  0.00    -0.301 N 
ATOM     16  C   UNL     1     -14.248   9.243  22.529  0.00  0.00    +0.236 C 
ATOM     38  H   UNL     1     -13.724  10.805  21.260  0.00  0.00    +0.150 HD
BRANCH  10  19
ATOM     19  C   UNL     1     -13.576  11.531  23.242  0.00  0.00    +0.186 C 
BRANCH  19  22
ATOM      6  O   UNL     1     -13.655  13.352  21.656  0.00  0.00    -0.249 OA
ATOM     22  C   UNL     1     -13.925  12.939  22.780  0.00  0.00    +0.328 C 
BRANCH  22   5
ATOM      5  O   UNL     1     -14.541  13.663  23.756  0.00  0.00    -0.467 OA
ATOM     33  C   UNL     1     -15.690  13.051  24.350  0.00  0.00    +0.280 C 
ENDBRANCH  22   5
ENDBRANCH  19  22
BRANCH  19  21
ATOM     21  C   UNL     1     -12.127  11.432  23.742  0.00  0.00    +0.069 C 
BRANCH  21  23
ATOM     23  C   UNL     1     -11.985  11.010  25.188  0.00  0.00    -0.045 A 
ATOM     25  C   UNL     1     -13.119  10.880  25.990  0.00  0.00    +0.007 A 
ATOM     26  C   UNL     1     -10.722  10.750  25.718  0.00  0.00    +0.007 A 
ATOM     30  C   UNL     1     -12.989  10.492  27.323  0.00  0.00    +0.046 A 
ATOM     31  C   UNL     1     -10.591  10.361  27.051  0.00  0.00    +0.046 A 
ATOM     32  C   UNL     1     -11.725  10.232  27.855  0.00  0.00    +0.120 A 
BRANCH  32   7
ATOM      7  O   UNL     1     -11.598   9.853  29.155  0.00  0.00    -0.495 OA
ATOM     37  C   UNL     1     -11.465  10.892  30.124  0.00  0.00    +0.277 C 
ENDBRANCH  32   7
ENDBRANCH  21  23
ENDBRANCH  19  21
ENDBRANCH  10  19
ENDBRANCH  12  16
BRANCH  17  20
ATOM     20  C   UNL     1     -14.839   4.786  22.423  0.00  0.00    +0.255 C 
BRANCH  20   4
ATOM      4  O   UNL     1     -14.494   4.632  23.778  0.00  0.00    -0.374 OA
ATOM     29  C   UNL     1     -15.421   3.804  24.477  0.00  0.00    +0.194 C 
ENDBRANCH  20   4
ENDBRANCH  17  20
TORSDOF 10
ENDMDL
