MODEL 1
REMARK VINA RESULT:      -7.7      0.000      0.000
REMARK  Name = 11879852
REMARK  8 active torsions:
REMARK  status: ('A' for Active; 'I' for Inactive)
REMARK    1  A    between atoms: S_1  and  N_11
REMARK    2  A    between atoms: S_1  and  C_29
REMARK    3  A    between atoms: O_6  and  C_33
REMARK    4  A    between atoms: O_8  and  C_36
REMARK    5  A    between atoms: O_8  and  C_37
REMARK    6  A    between atoms: N_11  and  C_22
REMARK    7  A    between atoms: C_21  and  C_24
REMARK    8  A    between atoms: C_27  and  C_33
REMARK                            x       y       z     vdW  Elec       q    Type
REMARK                         _______ _______ _______ _____ _____    ______ ____
ROOT
ATOM      2  O   UNL     1      12.431   8.202   1.910  0.00  0.00    -0.266 OA
ATOM      3  O   UNL     1      13.258   7.388   6.961  0.00  0.00    -0.270 OA
ATOM      9  N   UNL     1      11.490   8.909   6.768  0.00  0.00    -0.297 N 
ATOM     10  N   UNL     1      11.099   9.083   3.626  0.00  0.00    -0.310 N 
ATOM     12  C   UNL     1      11.938  10.850   5.276  0.00  0.00    +0.027 C 
ATOM     13  C   UNL     1       9.648   9.969   5.485  0.00  0.00    +0.054 C 
ATOM     14  C   UNL     1      10.470  11.252   5.373  0.00  0.00    +0.018 C 
ATOM     15  C   UNL     1      12.361  10.059   6.526  0.00  0.00    +0.113 C 
ATOM     16  C   UNL     1      12.146  10.048   3.987  0.00  0.00    +0.130 C 
ATOM     17  C   UNL     1      10.050   9.209   6.765  0.00  0.00    +0.117 C 
ATOM     18  C   UNL     1       9.857   9.079   4.276  0.00  0.00    +0.027 A 
ATOM     19  C   UNL     1       8.870   8.266   3.856  0.00  0.00    +0.024 A 
ATOM     20  C   UNL     1      11.369   8.234   2.531  0.00  0.00    +0.274 A 
ATOM     21  C   UNL     1      12.055   7.645   6.957  0.00  0.00    +0.247 C 
ATOM     22  C   UNL     1      10.250   7.343   2.131  0.00  0.00    +0.112 A 
ATOM     23  C   UNL     1       9.070   7.368   2.750  0.00  0.00    +0.031 A 
ENDROOT
BRANCH  21  24
ATOM     24  C   UNL     1      11.148   6.509   7.151  0.00  0.00    +0.038 A 
ATOM     25  C   UNL     1      10.768   6.137   8.439  0.00  0.00    +0.028 A 
ATOM     26  C   UNL     1      10.671   5.807   6.047  0.00  0.00    +0.013 A 
ATOM     27  C   UNL     1       9.906   5.057   8.622  0.00  0.00    +0.060 A 
ATOM     28  C   UNL     1       9.809   4.726   6.231  0.00  0.00    +0.002 A 
ATOM     30  C   UNL     1       9.426   4.352   7.519  0.00  0.00    +0.015 A 
BRANCH  27  33
ATOM      7  O   UNL     1       8.385   4.256  10.286  0.00  0.00    -0.245 OA
ATOM     33  C   UNL     1       9.505   4.666   9.964  0.00  0.00    +0.337 C 
BRANCH  33   6
ATOM      6  O   UNL     1      10.515   4.796  10.868  0.00  0.00    -0.477 OA
ATOM     39  H   UNL     1      10.188   4.740  11.791  0.00  0.00    +0.295 HD
ENDBRANCH  33   6
ENDBRANCH  27  33
ENDBRANCH  21  24
BRANCH  22  11
ATOM     11  N   UNL     1      10.409   6.444   1.063  0.00  0.00    -0.211 N 
ATOM     38  H   UNL     1       9.771   6.638   0.278  0.00  0.00    +0.174 HD
BRANCH  11   1
ATOM      1  S   UNL     1      10.566   4.804   1.454  0.00  0.00    +0.073 S 
ATOM      4  O   UNL     1      10.435   4.628   2.888  0.00  0.00    -0.150 OA
ATOM      5  O   UNL     1       9.765   4.006   0.544  0.00  0.00    -0.150 OA
BRANCH   1  29
ATOM     29  C   UNL     1      12.264   4.529   1.042  0.00  0.00    +0.109 A 
ATOM     31  C   UNL     1      12.814   5.197  -0.038  0.00  0.00    +0.032 A 
ATOM     32  C   UNL     1      13.010   3.651   1.808  0.00  0.00    +0.032 A 
ATOM     34  C   UNL     1      14.152   4.981  -0.363  0.00  0.00    +0.047 A 
ATOM     35  C   UNL     1      14.350   3.435   1.484  0.00  0.00    +0.047 A 
ATOM     36  C   UNL     1      14.920   4.099   0.398  0.00  0.00    +0.120 A 
BRANCH  36   8
ATOM      8  O   UNL     1      16.227   3.888   0.082  0.00  0.00    -0.495 OA
ATOM     37  C   UNL     1      16.674   4.366  -1.187  0.00  0.00    +0.277 C 
ENDBRANCH  36   8
ENDBRANCH   1  29
ENDBRANCH  11   1
ENDBRANCH  22  11
TORSDOF 7
ENDMDL
MODEL 2
REMARK VINA RESULT:      -7.4     11.388     15.035
REMARK  Name = 11879852
REMARK  8 active torsions:
REMARK  status: ('A' for Active; 'I' for Inactive)
REMARK    1  A    between atoms: S_1  and  N_11
REMARK    2  A    between atoms: S_1  and  C_29
REMARK    3  A    between atoms: O_6  and  C_33
REMARK    4  A    between atoms: O_8  and  C_36
REMARK    5  A    between atoms: O_8  and  C_37
REMARK    6  A    between atoms: N_11  and  C_22
REMARK    7  A    between atoms: C_21  and  C_24
REMARK    8  A    between atoms: C_27  and  C_33
REMARK                            x       y       z     vdW  Elec       q    Type
REMARK                         _______ _______ _______ _____ _____    ______ ____
ROOT
ATOM      2  O   UNL     1      13.885  12.035  18.385  0.00  0.00    -0.266 OA
ATOM      3  O   UNL     1      15.573   9.041  22.263  0.00  0.00    -0.270 OA
ATOM      9  N   UNL     1      13.732   7.972  21.292  0.00  0.00    -0.297 N 
ATOM     10  N   UNL     1      13.028   9.911  18.883  0.00  0.00    -0.310 N 
ATOM     12  C   UNL     1      11.714   9.403  21.020  0.00  0.00    +0.027 C 
ATOM     13  C   UNL     1      12.164   7.602  19.403  0.00  0.00    +0.054 C 
ATOM     14  C   UNL     1      11.058   8.306  20.187  0.00  0.00    +0.018 C 
ATOM     15  C   UNL     1      12.745   8.798  21.988  0.00  0.00    +0.113 C 
ATOM     16  C   UNL     1      12.343  10.432  20.074  0.00  0.00    +0.130 C 
ATOM     17  C   UNL     1      13.166   6.961  20.385  0.00  0.00    +0.117 C 
ATOM     18  C   UNL     1      12.891   8.572  18.492  0.00  0.00    +0.027 A 
ATOM     19  C   UNL     1      13.431   8.140  17.337  0.00  0.00    +0.024 A 
ATOM     20  C   UNL     1      13.743  10.845  18.103  0.00  0.00    +0.274 A 
ATOM     21  C   UNL     1      15.093   8.199  21.507  0.00  0.00    +0.247 C 
ATOM     22  C   UNL     1      14.337  10.303  16.855  0.00  0.00    +0.112 A 
ATOM     23  C   UNL     1      14.179   9.031  16.491  0.00  0.00    +0.031 A 
ENDROOT
BRANCH  21  24
ATOM     24  C   UNL     1      16.052   7.381  20.756  0.00  0.00    +0.038 A 
ATOM     25  C   UNL     1      17.342   7.197  21.250  0.00  0.00    +0.028 A 
ATOM     26  C   UNL     1      15.669   6.793  19.553  0.00  0.00    +0.013 A 
ATOM     27  C   UNL     1      18.254   6.421  20.536  0.00  0.00    +0.060 A 
ATOM     28  C   UNL     1      16.581   6.016  18.839  0.00  0.00    +0.002 A 
ATOM     30  C   UNL     1      17.873   5.830  19.331  0.00  0.00    +0.015 A 
BRANCH  27  33
ATOM      7  O   UNL     1      19.978   6.494  22.192  0.00  0.00    -0.245 OA
ATOM     33  C   UNL     1      19.601   6.225  21.047  0.00  0.00    +0.337 C 
BRANCH  33   6
ATOM      6  O   UNL     1      20.440   5.697  20.114  0.00  0.00    -0.477 OA
ATOM     39  H   UNL     1      19.951   5.362  19.331  0.00  0.00    +0.295 HD
ENDBRANCH  33   6
ENDBRANCH  27  33
ENDBRANCH  21  24
BRANCH  22  11
ATOM     11  N   UNL     1      15.084  11.138  16.006  0.00  0.00    -0.211 N 
ATOM     38  H   UNL     1      15.775  11.709  16.513  0.00  0.00    +0.174 HD
BRANCH  11   1
ATOM      1  S   UNL     1      14.235  11.968  14.799  0.00  0.00    +0.073 S 
ATOM      4  O   UNL     1      13.209  11.106  14.242  0.00  0.00    -0.150 OA
ATOM      5  O   UNL     1      13.897  13.298  15.267  0.00  0.00    -0.150 OA
BRANCH   1  29
ATOM     29  C   UNL     1      15.497  12.144  13.573  0.00  0.00    +0.109 A 
ATOM     31  C   UNL     1      15.135  12.256  12.242  0.00  0.00    +0.032 A 
ATOM     32  C   UNL     1      16.824  12.167  13.967  0.00  0.00    +0.032 A 
ATOM     34  C   UNL     1      16.130  12.396  11.274  0.00  0.00    +0.047 A 
ATOM     35  C   UNL     1      17.819  12.307  13.000  0.00  0.00    +0.047 A 
ATOM     36  C   UNL     1      17.472  12.421  11.654  0.00  0.00    +0.120 A 
BRANCH  36   8
ATOM      8  O   UNL     1      18.443  12.558  10.710  0.00  0.00    -0.495 OA
ATOM     37  C   UNL     1      19.535  11.640  10.764  0.00  0.00    +0.277 C 
ENDBRANCH  36   8
ENDBRANCH   1  29
ENDBRANCH  11   1
ENDBRANCH  22  11
TORSDOF 7
ENDMDL
MODEL 3
REMARK VINA RESULT:      -7.3     24.502     28.307
REMARK  Name = 11879852
REMARK  8 active torsions:
REMARK  status: ('A' for Active; 'I' for Inactive)
REMARK    1  A    between atoms: S_1  and  N_11
REMARK    2  A    between atoms: S_1  and  C_29
REMARK    3  A    between atoms: O_6  and  C_33
REMARK    4  A    between atoms: O_8  and  C_36
REMARK    5  A    between atoms: O_8  and  C_37
REMARK    6  A    between atoms: N_11  and  C_22
REMARK    7  A    between atoms: C_21  and  C_24
REMARK    8  A    between atoms: C_27  and  C_33
REMARK                            x       y       z     vdW  Elec       q    Type
REMARK                         _______ _______ _______ _____ _____    ______ ____
ROOT
ATOM      2  O   UNL     1      -6.525  -9.561  13.458  0.00  0.00    -0.266 OA
ATOM      3  O   UNL     1      -5.324 -14.473  12.328  0.00  0.00    -0.270 OA
ATOM      9  N   UNL     1      -3.322 -13.324  12.712  0.00  0.00    -0.297 N 
ATOM     10  N   UNL     1      -4.355 -10.442  13.536  0.00  0.00    -0.310 N 
ATOM     12  C   UNL     1      -3.079 -11.194  11.449  0.00  0.00    +0.027 C 
ATOM     13  C   UNL     1      -2.039 -11.427  13.669  0.00  0.00    +0.054 C 
ATOM     14  C   UNL     1      -1.833 -10.863  12.264  0.00  0.00    +0.018 C 
ATOM     15  C   UNL     1      -3.287 -12.717  11.382  0.00  0.00    +0.113 C 
ATOM     16  C   UNL     1      -4.281 -10.473  12.069  0.00  0.00    +0.130 C 
ATOM     17  C   UNL     1      -2.201 -12.958  13.592  0.00  0.00    +0.117 C 
ATOM     18  C   UNL     1      -3.261 -10.816  14.328  0.00  0.00    +0.027 A 
ATOM     19  C   UNL     1      -3.306 -10.672  15.666  0.00  0.00    +0.024 A 
ATOM     20  C   UNL     1      -5.539  -9.922  14.100  0.00  0.00    +0.274 A 
ATOM     21  C   UNL     1      -4.384 -14.163  13.058  0.00  0.00    +0.247 C 
ATOM     22  C   UNL     1      -5.538  -9.811  15.581  0.00  0.00    +0.112 A 
ATOM     23  C   UNL     1      -4.480 -10.155  16.315  0.00  0.00    +0.031 A 
ENDROOT
BRANCH  21  24
ATOM     24  C   UNL     1      -4.409 -14.717  14.416  0.00  0.00    +0.038 A 
ATOM     25  C   UNL     1      -4.811 -13.917  15.483  0.00  0.00    +0.028 A 
ATOM     26  C   UNL     1      -4.029 -16.039  14.632  0.00  0.00    +0.013 A 
ATOM     27  C   UNL     1      -4.834 -14.443  16.775  0.00  0.00    +0.060 A 
ATOM     28  C   UNL     1      -4.051 -16.565  15.924  0.00  0.00    +0.002 A 
ATOM     30  C   UNL     1      -4.454 -15.767  16.995  0.00  0.00    +0.015 A 
BRANCH  27  33
ATOM      7  O   UNL     1      -4.506 -12.918  18.588  0.00  0.00    -0.245 OA
ATOM     33  C   UNL     1      -5.254 -13.613  17.892  0.00  0.00    +0.337 C 
BRANCH  33   6
ATOM      6  O   UNL     1      -6.597 -13.672  18.107  0.00  0.00    -0.477 OA
ATOM     39  H   UNL     1      -7.027 -12.800  17.970  0.00  0.00    +0.295 HD
ENDBRANCH  33   6
ENDBRANCH  27  33
ENDBRANCH  21  24
BRANCH  22  11
ATOM     11  N   UNL     1      -6.670  -9.321  16.255  0.00  0.00    -0.211 N 
ATOM     38  H   UNL     1      -6.464  -8.495  16.835  0.00  0.00    +0.174 HD
BRANCH  11   1
ATOM      1  S   UNL     1      -7.683 -10.461  16.989  0.00  0.00    +0.073 S 
ATOM      4  O   UNL     1      -7.728 -11.666  16.182  0.00  0.00    -0.150 OA
ATOM      5  O   UNL     1      -7.384 -10.541  18.406  0.00  0.00    -0.150 OA
BRANCH   1  29
ATOM     29  C   UNL     1      -9.252  -9.659  16.825  0.00  0.00    +0.109 A 
ATOM     31  C   UNL     1      -9.348  -8.304  17.091  0.00  0.00    +0.032 A 
ATOM     32  C   UNL     1     -10.352 -10.402  16.435  0.00  0.00    +0.032 A 
ATOM     34  C   UNL     1     -10.584  -7.672  16.962  0.00  0.00    +0.047 A 
ATOM     35  C   UNL     1     -11.589  -9.770  16.306  0.00  0.00    +0.047 A 
ATOM     36  C   UNL     1     -11.705  -8.404  16.570  0.00  0.00    +0.120 A 
BRANCH  36   8
ATOM      8  O   UNL     1     -12.911  -7.787  16.444  0.00  0.00    -0.495 OA
ATOM     37  C   UNL     1     -12.936  -6.548  15.736  0.00  0.00    +0.277 C 
ENDBRANCH  36   8
ENDBRANCH   1  29
ENDBRANCH  11   1
ENDBRANCH  22  11
TORSDOF 7
ENDMDL
MODEL 4
REMARK VINA RESULT:      -7.1     15.214     20.199
REMARK  Name = 11879852
REMARK  8 active torsions:
REMARK  status: ('A' for Active; 'I' for Inactive)
REMARK    1  A    between atoms: S_1  and  N_11
REMARK    2  A    between atoms: S_1  and  C_29
REMARK    3  A    between atoms: O_6  and  C_33
REMARK    4  A    between atoms: O_8  and  C_36
REMARK    5  A    between atoms: O_8  and  C_37
REMARK    6  A    between atoms: N_11  and  C_22
REMARK    7  A    between atoms: C_21  and  C_24
REMARK    8  A    between atoms: C_27  and  C_33
REMARK                            x       y       z     vdW  Elec       q    Type
REMARK                         _______ _______ _______ _____ _____    ______ ____
ROOT
ATOM      2  O   UNL     1      11.066   9.568  22.382  0.00  0.00    -0.266 OA
ATOM      3  O   UNL     1      14.377   6.066  20.479  0.00  0.00    -0.270 OA
ATOM      9  N   UNL     1      14.181   7.786  18.904  0.00  0.00    -0.297 N 
ATOM     10  N   UNL     1      12.263   9.832  20.385  0.00  0.00    -0.310 N 
ATOM     12  C   UNL     1      11.844   8.397  18.307  0.00  0.00    +0.027 C 
ATOM     13  C   UNL     1      13.606  10.116  18.271  0.00  0.00    +0.054 C 
ATOM     14  C   UNL     1      12.365   9.608  17.539  0.00  0.00    +0.018 C 
ATOM     15  C   UNL     1      12.915   7.294  18.361  0.00  0.00    +0.113 C 
ATOM     16  C   UNL     1      11.409   8.849  19.705  0.00  0.00    +0.130 C 
ATOM     17  C   UNL     1      14.688   9.018  18.279  0.00  0.00    +0.117 C 
ATOM     18  C   UNL     1      13.274  10.517  19.696  0.00  0.00    +0.027 A 
ATOM     19  C   UNL     1      13.971  11.495  20.303  0.00  0.00    +0.024 A 
ATOM     20  C   UNL     1      11.950  10.122  21.729  0.00  0.00    +0.274 A 
ATOM     21  C   UNL     1      14.795   7.096  19.952  0.00  0.00    +0.247 C 
ATOM     22  C   UNL     1      12.770  11.193  22.352  0.00  0.00    +0.112 A 
ATOM     23  C   UNL     1      13.714  11.845  21.675  0.00  0.00    +0.031 A 
ENDROOT
BRANCH  21  24
ATOM     24  C   UNL     1      16.040   7.646  20.500  0.00  0.00    +0.038 A 
ATOM     25  C   UNL     1      17.238   6.957  20.324  0.00  0.00    +0.028 A 
ATOM     26  C   UNL     1      16.018   8.853  21.195  0.00  0.00    +0.013 A 
ATOM     27  C   UNL     1      18.421   7.480  20.846  0.00  0.00    +0.060 A 
ATOM     28  C   UNL     1      17.201   9.375  21.716  0.00  0.00    +0.002 A 
ATOM     30  C   UNL     1      18.403   8.689  21.542  0.00  0.00    +0.015 A 
BRANCH  27  33
ATOM      7  O   UNL     1      20.780   7.149  21.060  0.00  0.00    -0.245 OA
ATOM     33  C   UNL     1      19.674   6.766  20.664  0.00  0.00    +0.337 C 
BRANCH  33   6
ATOM      6  O   UNL     1      19.512   5.592  19.993  0.00  0.00    -0.477 OA
ATOM     39  H   UNL     1      19.755   4.819  20.547  0.00  0.00    +0.295 HD
ENDBRANCH  33   6
ENDBRANCH  27  33
ENDBRANCH  21  24
BRANCH  22  11
ATOM     11  N   UNL     1      12.558  11.557  23.693  0.00  0.00    -0.211 N 
ATOM     38  H   UNL     1      12.632  10.760  24.340  0.00  0.00    +0.174 HD
BRANCH  11   1
ATOM      1  S   UNL     1      11.267  12.605  24.012  0.00  0.00    +0.073 S 
ATOM      4  O   UNL     1      11.124  13.551  22.921  0.00  0.00    -0.150 OA
ATOM      5  O   UNL     1      10.122  11.844  24.473  0.00  0.00    -0.150 OA
BRANCH   1  29
ATOM     29  C   UNL     1      11.903  13.496  25.401  0.00  0.00    +0.109 A 
ATOM     31  C   UNL     1      13.159  13.179  25.889  0.00  0.00    +0.032 A 
ATOM     32  C   UNL     1      11.132  14.491  25.975  0.00  0.00    +0.032 A 
ATOM     34  C   UNL     1      13.661  13.881  26.984  0.00  0.00    +0.047 A 
ATOM     35  C   UNL     1      11.634  15.194  27.071  0.00  0.00    +0.047 A 
ATOM     36  C   UNL     1      12.899  14.889  27.575  0.00  0.00    +0.120 A 
BRANCH  36   8
ATOM      8  O   UNL     1      13.388  15.574  28.644  0.00  0.00    -0.495 OA
ATOM     37  C   UNL     1      12.858  15.241  29.927  0.00  0.00    +0.277 C 
ENDBRANCH  36   8
ENDBRANCH   1  29
ENDBRANCH  11   1
ENDBRANCH  22  11
TORSDOF 7
ENDMDL
MODEL 5
REMARK VINA RESULT:      -7.0     17.145     18.608
REMARK  Name = 11879852
REMARK  8 active torsions:
REMARK  status: ('A' for Active; 'I' for Inactive)
REMARK    1  A    between atoms: S_1  and  N_11
REMARK    2  A    between atoms: S_1  and  C_29
REMARK    3  A    between atoms: O_6  and  C_33
REMARK    4  A    between atoms: O_8  and  C_36
REMARK    5  A    between atoms: O_8  and  C_37
REMARK    6  A    between atoms: N_11  and  C_22
REMARK    7  A    between atoms: C_21  and  C_24
REMARK    8  A    between atoms: C_27  and  C_33
REMARK                            x       y       z     vdW  Elec       q    Type
REMARK                         _______ _______ _______ _____ _____    ______ ____
ROOT
ATOM      2  O   UNL     1      16.611  11.931  23.626  0.00  0.00    -0.266 OA
ATOM      3  O   UNL     1      11.572  10.795  24.039  0.00  0.00    -0.270 OA
ATOM      9  N   UNL     1      11.918  11.723  21.919  0.00  0.00    -0.297 N 
ATOM     10  N   UNL     1      15.060  12.152  21.883  0.00  0.00    -0.310 N 
ATOM     12  C   UNL     1      13.167  13.875  21.910  0.00  0.00    +0.027 C 
ATOM     13  C   UNL     1      13.385  12.325  20.009  0.00  0.00    +0.054 C 
ATOM     14  C   UNL     1      13.269  13.801  20.390  0.00  0.00    +0.018 C 
ATOM     15  C   UNL     1      11.932  13.103  22.404  0.00  0.00    +0.113 C 
ATOM     16  C   UNL     1      14.467  13.337  22.518  0.00  0.00    +0.130 C 
ATOM     17  C   UNL     1      12.120  11.573  20.469  0.00  0.00    +0.117 C 
ATOM     18  C   UNL     1      14.613  11.694  20.636  0.00  0.00    +0.027 A 
ATOM     19  C   UNL     1      15.242  10.678  20.017  0.00  0.00    +0.024 A 
ATOM     20  C   UNL     1      16.161  11.564  22.540  0.00  0.00    +0.274 A 
ATOM     21  C   UNL     1      11.741  10.676  22.827  0.00  0.00    +0.247 C 
ATOM     22  C   UNL     1      16.798  10.433  21.819  0.00  0.00    +0.112 A 
ATOM     23  C   UNL     1      16.369  10.025  20.625  0.00  0.00    +0.031 A 
ENDROOT
BRANCH  21  24
ATOM     24  C   UNL     1      11.779   9.304  22.309  0.00  0.00    +0.038 A 
ATOM     25  C   UNL     1      12.997   8.734  21.946  0.00  0.00    +0.028 A 
ATOM     26  C   UNL     1      10.597   8.578  22.183  0.00  0.00    +0.013 A 
ATOM     27  C   UNL     1      13.033   7.430  21.453  0.00  0.00    +0.060 A 
ATOM     28  C   UNL     1      10.633   7.274  21.690  0.00  0.00    +0.002 A 
ATOM     30  C   UNL     1      11.851   6.700  21.326  0.00  0.00    +0.015 A 
BRANCH  27  33
ATOM      7  O   UNL     1      14.612   6.474  19.931  0.00  0.00    -0.245 OA
ATOM     33  C   UNL     1      14.301   6.830  21.073  0.00  0.00    +0.337 C 
BRANCH  33   6
ATOM      6  O   UNL     1      15.149   6.691  22.130  0.00  0.00    -0.477 OA
ATOM     39  H   UNL     1      16.049   7.023  21.922  0.00  0.00    +0.295 HD
ENDBRANCH  33   6
ENDBRANCH  27  33
ENDBRANCH  21  24
BRANCH  22  11
ATOM     11  N   UNL     1      17.895   9.760  22.385  0.00  0.00    -0.211 N 
ATOM     38  H   UNL     1      17.789   9.604  23.397  0.00  0.00    +0.174 HD
BRANCH  11   1
ATOM      1  S   UNL     1      19.438  10.266  21.909  0.00  0.00    +0.073 S 
ATOM      4  O   UNL     1      19.335  11.114  20.735  0.00  0.00    -0.150 OA
ATOM      5  O   UNL     1      20.186  10.713  23.069  0.00  0.00    -0.150 OA
BRANCH   1  29
ATOM     29  C   UNL     1      20.141   8.729  21.388  0.00  0.00    +0.109 A 
ATOM     31  C   UNL     1      21.463   8.696  20.977  0.00  0.00    +0.032 A 
ATOM     32  C   UNL     1      19.357   7.589  21.400  0.00  0.00    +0.032 A 
ATOM     34  C   UNL     1      22.017   7.484  20.566  0.00  0.00    +0.047 A 
ATOM     35  C   UNL     1      19.912   6.377  20.990  0.00  0.00    +0.047 A 
ATOM     36  C   UNL     1      21.242   6.325  20.573  0.00  0.00    +0.120 A 
BRANCH  36   8
ATOM      8  O   UNL     1      21.783   5.142  20.172  0.00  0.00    -0.495 OA
ATOM     37  C   UNL     1      21.543   4.004  21.000  0.00  0.00    +0.277 C 
ENDBRANCH  36   8
ENDBRANCH   1  29
ENDBRANCH  11   1
ENDBRANCH  22  11
TORSDOF 7
ENDMDL
MODEL 6
REMARK VINA RESULT:      -7.0      2.563      4.437
REMARK  Name = 11879852
REMARK  8 active torsions:
REMARK  status: ('A' for Active; 'I' for Inactive)
REMARK    1  A    between atoms: S_1  and  N_11
REMARK    2  A    between atoms: S_1  and  C_29
REMARK    3  A    between atoms: O_6  and  C_33
REMARK    4  A    between atoms: O_8  and  C_36
REMARK    5  A    between atoms: O_8  and  C_37
REMARK    6  A    between atoms: N_11  and  C_22
REMARK    7  A    between atoms: C_21  and  C_24
REMARK    8  A    between atoms: C_27  and  C_33
REMARK                            x       y       z     vdW  Elec       q    Type
REMARK                         _______ _______ _______ _____ _____    ______ ____
ROOT
ATOM      2  O   UNL     1       8.577   8.040   2.536  0.00  0.00    -0.266 OA
ATOM      3  O   UNL     1      11.727  10.171   6.057  0.00  0.00    -0.270 OA
ATOM      9  N   UNL     1      11.097   8.062   6.852  0.00  0.00    -0.297 N 
ATOM     10  N   UNL     1       9.344   6.942   4.459  0.00  0.00    -0.310 N 
ATOM     12  C   UNL     1       8.648   7.621   6.826  0.00  0.00    +0.027 C 
ATOM     13  C   UNL     1      10.230   5.763   6.503  0.00  0.00    +0.054 C 
ATOM     14  C   UNL     1       8.915   6.160   7.173  0.00  0.00    +0.018 C 
ATOM     15  C   UNL     1       9.793   8.513   7.338  0.00  0.00    +0.113 C 
ATOM     16  C   UNL     1       8.455   7.742   5.311  0.00  0.00    +0.130 C 
ATOM     17  C   UNL     1      11.376   6.632   7.058  0.00  0.00    +0.117 C 
ATOM     18  C   UNL     1      10.148   5.926   4.997  0.00  0.00    +0.027 A 
ATOM     19  C   UNL     1      10.869   5.127   4.190  0.00  0.00    +0.024 A 
ATOM     20  C   UNL     1       9.274   7.177   3.070  0.00  0.00    +0.274 A 
ATOM     21  C   UNL     1      11.953   8.975   6.231  0.00  0.00    +0.247 C 
ATOM     22  C   UNL     1      10.111   6.279   2.233  0.00  0.00    +0.112 A 
ATOM     23  C   UNL     1      10.853   5.307   2.763  0.00  0.00    +0.031 A 
ENDROOT
BRANCH  21  24
ATOM     24  C   UNL     1      13.233   8.476   5.716  0.00  0.00    +0.038 A 
ATOM     25  C   UNL     1      13.285   7.860   4.468  0.00  0.00    +0.028 A 
ATOM     26  C   UNL     1      14.390   8.619   6.478  0.00  0.00    +0.013 A 
ATOM     27  C   UNL     1      14.501   7.385   3.979  0.00  0.00    +0.060 A 
ATOM     28  C   UNL     1      15.606   8.144   5.989  0.00  0.00    +0.002 A 
ATOM     30  C   UNL     1      15.662   7.527   4.739  0.00  0.00    +0.015 A 
BRANCH  27  33
ATOM      7  O   UNL     1      14.248   7.269   1.603  0.00  0.00    -0.245 OA
ATOM     33  C   UNL     1      14.561   6.742   2.676  0.00  0.00    +0.337 C 
BRANCH  33   6
ATOM      6  O   UNL     1      15.011   5.459   2.749  0.00  0.00    -0.477 OA
ATOM     39  H   UNL     1      15.986   5.408   2.642  0.00  0.00    +0.295 HD
ENDBRANCH  33   6
ENDBRANCH  27  33
ENDBRANCH  21  24
BRANCH  22  11
ATOM     11  N   UNL     1      10.133   6.431   0.836  0.00  0.00    -0.211 N 
ATOM     38  H   UNL     1       9.546   7.212   0.509  0.00  0.00    +0.174 HD
BRANCH  11   1
ATOM      1  S   UNL     1      10.009   5.021  -0.093  0.00  0.00    +0.073 S 
ATOM      4  O   UNL     1       9.708   3.892   0.767  0.00  0.00    -0.150 OA
ATOM      5  O   UNL     1       9.199   5.280  -1.268  0.00  0.00    -0.150 OA
BRANCH   1  29
ATOM     29  C   UNL     1      11.683   4.838  -0.636  0.00  0.00    +0.109 A 
ATOM     31  C   UNL     1      12.361   5.943  -1.120  0.00  0.00    +0.032 A 
ATOM     32  C   UNL     1      12.282   3.593  -0.567  0.00  0.00    +0.032 A 
ATOM     34  C   UNL     1      13.680   5.800  -1.547  0.00  0.00    +0.047 A 
ATOM     35  C   UNL     1      13.603   3.448  -0.994  0.00  0.00    +0.047 A 
ATOM     36  C   UNL     1      14.301   4.552  -1.485  0.00  0.00    +0.120 A 
BRANCH  36   8
ATOM      8  O   UNL     1      15.589   4.411  -1.902  0.00  0.00    -0.495 OA
ATOM     37  C   UNL     1      16.589   4.286  -0.891  0.00  0.00    +0.277 C 
ENDBRANCH  36   8
ENDBRANCH   1  29
ENDBRANCH  11   1
ENDBRANCH  22  11
TORSDOF 7
ENDMDL
MODEL 7
REMARK VINA RESULT:      -6.9     32.887     37.595
REMARK  Name = 11879852
REMARK  8 active torsions:
REMARK  status: ('A' for Active; 'I' for Inactive)
REMARK    1  A    between atoms: S_1  and  N_11
REMARK    2  A    between atoms: S_1  and  C_29
REMARK    3  A    between atoms: O_6  and  C_33
REMARK    4  A    between atoms: O_8  and  C_36
REMARK    5  A    between atoms: O_8  and  C_37
REMARK    6  A    between atoms: N_11  and  C_22
REMARK    7  A    between atoms: C_21  and  C_24
REMARK    8  A    between atoms: C_27  and  C_33
REMARK                            x       y       z     vdW  Elec       q    Type
REMARK                         _______ _______ _______ _____ _____    ______ ____
ROOT
ATOM      2  O   UNL     1     -17.211   6.602  28.359  0.00  0.00    -0.266 OA
ATOM      3  O   UNL     1     -13.917   5.365  32.163  0.00  0.00    -0.270 OA
ATOM      9  N   UNL     1     -16.074   5.385  33.072  0.00  0.00    -0.297 N 
ATOM     10  N   UNL     1     -17.864   5.991  30.525  0.00  0.00    -0.310 N 
ATOM     12  C   UNL     1     -17.395   7.437  32.584  0.00  0.00    +0.027 C 
ATOM     13  C   UNL     1     -18.543   5.275  32.844  0.00  0.00    +0.054 C 
ATOM     14  C   UNL     1     -18.636   6.766  33.164  0.00  0.00    +0.018 C 
ATOM     15  C   UNL     1     -16.121   6.841  33.208  0.00  0.00    +0.113 C 
ATOM     16  C   UNL     1     -17.418   7.284  31.059  0.00  0.00    +0.130 C 
ATOM     17  C   UNL     1     -17.288   4.681  33.513  0.00  0.00    +0.117 C 
ATOM     18  C   UNL     1     -18.485   5.039  31.347  0.00  0.00    +0.027 A 
ATOM     19  C   UNL     1     -18.991   3.909  30.820  0.00  0.00    +0.024 A 
ATOM     20  C   UNL     1     -17.730   5.798  29.134  0.00  0.00    +0.274 A 
ATOM     21  C   UNL     1     -14.935   4.782  32.534  0.00  0.00    +0.247 C 
ATOM     22  C   UNL     1     -18.285   4.522  28.616  0.00  0.00    +0.112 A 
ATOM     23  C   UNL     1     -18.888   3.639  29.411  0.00  0.00    +0.031 A 
ENDROOT
BRANCH  21  24
ATOM     24  C   UNL     1     -14.942   3.324  32.370  0.00  0.00    +0.038 A 
ATOM     25  C   UNL     1     -15.262   2.767  31.133  0.00  0.00    +0.028 A 
ATOM     26  C   UNL     1     -14.631   2.503  33.451  0.00  0.00    +0.013 A 
ATOM     27  C   UNL     1     -15.270   1.382  30.978  0.00  0.00    +0.060 A 
ATOM     28  C   UNL     1     -14.639   1.118  33.296  0.00  0.00    +0.002 A 
ATOM     30  C   UNL     1     -14.958   0.557  32.059  0.00  0.00    +0.015 A 
BRANCH  27  33
ATOM      7  O   UNL     1     -14.873   0.038  29.039  0.00  0.00    -0.245 OA
ATOM     33  C   UNL     1     -15.601   0.796  29.689  0.00  0.00    +0.337 C 
BRANCH  33   6
ATOM      6  O   UNL     1     -16.833   1.171  29.248  0.00  0.00    -0.477 OA
ATOM     39  H   UNL     1     -16.947   0.996  28.289  0.00  0.00    +0.295 HD
ENDBRANCH  33   6
ENDBRANCH  27  33
ENDBRANCH  21  24
BRANCH  22  11
ATOM     11  N   UNL     1     -18.195   4.215  27.247  0.00  0.00    -0.211 N 
ATOM     38  H   UNL     1     -19.083   3.873  26.855  0.00  0.00    +0.174 HD
BRANCH  11   1
ATOM      1  S   UNL     1     -16.825   3.361  26.738  0.00  0.00    +0.073 S 
ATOM      4  O   UNL     1     -15.764   3.509  27.717  0.00  0.00    -0.150 OA
ATOM      5  O   UNL     1     -17.215   2.042  26.278  0.00  0.00    -0.150 OA
BRANCH   1  29
ATOM     29  C   UNL     1     -16.362   4.302  25.314  0.00  0.00    +0.109 A 
ATOM     31  C   UNL     1     -17.098   5.425  24.978  0.00  0.00    +0.032 A 
ATOM     32  C   UNL     1     -15.274   3.897  24.562  0.00  0.00    +0.032 A 
ATOM     34  C   UNL     1     -16.734   6.167  23.855  0.00  0.00    +0.047 A 
ATOM     35  C   UNL     1     -14.908   4.639  23.438  0.00  0.00    +0.047 A 
ATOM     36  C   UNL     1     -15.639   5.774  23.085  0.00  0.00    +0.120 A 
BRANCH  36   8
ATOM      8  O   UNL     1     -15.283   6.498  21.989  0.00  0.00    -0.495 OA
ATOM     37  C   UNL     1     -13.971   6.284  21.467  0.00  0.00    +0.277 C 
ENDBRANCH  36   8
ENDBRANCH   1  29
ENDBRANCH  11   1
ENDBRANCH  22  11
TORSDOF 7
ENDMDL
MODEL 8
REMARK VINA RESULT:      -6.9     24.223     28.490
REMARK  Name = 11879852
REMARK  8 active torsions:
REMARK  status: ('A' for Active; 'I' for Inactive)
REMARK    1  A    between atoms: S_1  and  N_11
REMARK    2  A    between atoms: S_1  and  C_29
REMARK    3  A    between atoms: O_6  and  C_33
REMARK    4  A    between atoms: O_8  and  C_36
REMARK    5  A    between atoms: O_8  and  C_37
REMARK    6  A    between atoms: N_11  and  C_22
REMARK    7  A    between atoms: C_21  and  C_24
REMARK    8  A    between atoms: C_27  and  C_33
REMARK                            x       y       z     vdW  Elec       q    Type
REMARK                         _______ _______ _______ _____ _____    ______ ____
ROOT
ATOM      2  O   UNL     1      -6.363  -9.883  14.402  0.00  0.00    -0.266 OA
ATOM      3  O   UNL     1      -5.127 -14.142  11.722  0.00  0.00    -0.270 OA
ATOM      9  N   UNL     1      -3.198 -12.829  11.896  0.00  0.00    -0.297 N 
ATOM     10  N   UNL     1      -4.193 -10.418  13.700  0.00  0.00    -0.310 N 
ATOM     12  C   UNL     1      -3.490 -10.447  11.239  0.00  0.00    +0.027 C 
ATOM     13  C   UNL     1      -1.859 -11.044  12.984  0.00  0.00    +0.054 C 
ATOM     14  C   UNL     1      -2.098 -10.135  11.779  0.00  0.00    +0.018 C 
ATOM     15  C   UNL     1      -3.584 -11.923  10.814  0.00  0.00    +0.113 C 
ATOM     16  C   UNL     1      -4.527 -10.086  12.308  0.00  0.00    +0.130 C 
ATOM     17  C   UNL     1      -1.910 -12.518  12.537  0.00  0.00    +0.117 C 
ATOM     18  C   UNL     1      -2.895 -10.801  14.065  0.00  0.00    +0.027 A 
ATOM     19  C   UNL     1      -2.578 -10.990  15.359  0.00  0.00    +0.024 A 
ATOM     20  C   UNL     1      -5.211 -10.234  14.658  0.00  0.00    +0.274 A 
ATOM     21  C   UNL     1      -4.050 -13.877  12.253  0.00  0.00    +0.247 C 
ATOM     22  C   UNL     1      -4.808 -10.481  16.066  0.00  0.00    +0.112 A 
ATOM     23  C   UNL     1      -3.563 -10.827  16.394  0.00  0.00    +0.031 A 
ENDROOT
BRANCH  21  24
ATOM     24  C   UNL     1      -3.650 -14.737  13.372  0.00  0.00    +0.038 A 
ATOM     25  C   UNL     1      -4.405 -14.745  14.543  0.00  0.00    +0.028 A 
ATOM     26  C   UNL     1      -2.518 -15.540  13.259  0.00  0.00    +0.013 A 
ATOM     27  C   UNL     1      -4.025 -15.562  15.608  0.00  0.00    +0.060 A 
ATOM     28  C   UNL     1      -2.138 -16.357  14.324  0.00  0.00    +0.002 A 
ATOM     30  C   UNL     1      -2.892 -16.368  15.498  0.00  0.00    +0.015 A 
BRANCH  27  33
ATOM      7  O   UNL     1      -5.746 -16.344  17.073  0.00  0.00    -0.245 OA
ATOM     33  C   UNL     1      -4.809 -15.575  16.831  0.00  0.00    +0.337 C 
BRANCH  33   6
ATOM      6  O   UNL     1      -4.402 -14.629  17.721  0.00  0.00    -0.477 OA
ATOM     39  H   UNL     1      -4.683 -14.843  18.637  0.00  0.00    +0.295 HD
ENDBRANCH  33   6
ENDBRANCH  27  33
ENDBRANCH  21  24
BRANCH  22  11
ATOM     11  N   UNL     1      -5.744 -10.344  17.105  0.00  0.00    -0.211 N 
ATOM     38  H   UNL     1      -5.452  -9.661  17.818  0.00  0.00    +0.174 HD
BRANCH  11   1
ATOM      1  S   UNL     1      -6.418 -11.766  17.727  0.00  0.00    +0.073 S 
ATOM      4  O   UNL     1      -6.670 -12.702  16.647  0.00  0.00    -0.150 OA
ATOM      5  O   UNL     1      -5.675 -12.187  18.900  0.00  0.00    -0.150 OA
BRANCH   1  29
ATOM     29  C   UNL     1      -7.988 -11.169  18.283  0.00  0.00    +0.109 A 
ATOM     31  C   UNL     1      -8.642 -10.200  17.544  0.00  0.00    +0.032 A 
ATOM     32  C   UNL     1      -8.531 -11.683  19.448  0.00  0.00    +0.032 A 
ATOM     34  C   UNL     1      -9.880  -9.729  17.982  0.00  0.00    +0.047 A 
ATOM     35  C   UNL     1      -9.770 -11.213  19.886  0.00  0.00    +0.047 A 
ATOM     36  C   UNL     1     -10.443 -10.235  19.153  0.00  0.00    +0.120 A 
BRANCH  36   8
ATOM      8  O   UNL     1     -11.651  -9.776  19.581  0.00  0.00    -0.495 OA
ATOM     37  C   UNL     1     -12.809 -10.268  18.905  0.00  0.00    +0.277 C 
ENDBRANCH  36   8
ENDBRANCH   1  29
ENDBRANCH  11   1
ENDBRANCH  22  11
TORSDOF 7
ENDMDL
MODEL 9
REMARK VINA RESULT:      -6.9      4.451      6.253
REMARK  Name = 11879852
REMARK  8 active torsions:
REMARK  status: ('A' for Active; 'I' for Inactive)
REMARK    1  A    between atoms: S_1  and  N_11
REMARK    2  A    between atoms: S_1  and  C_29
REMARK    3  A    between atoms: O_6  and  C_33
REMARK    4  A    between atoms: O_8  and  C_36
REMARK    5  A    between atoms: O_8  and  C_37
REMARK    6  A    between atoms: N_11  and  C_22
REMARK    7  A    between atoms: C_21  and  C_24
REMARK    8  A    between atoms: C_27  and  C_33
REMARK                            x       y       z     vdW  Elec       q    Type
REMARK                         _______ _______ _______ _____ _____    ______ ____
ROOT
ATOM      2  O   UNL     1      12.411   7.260   3.288  0.00  0.00    -0.266 OA
ATOM      3  O   UNL     1       8.627   9.769   5.785  0.00  0.00    -0.270 OA
ATOM      9  N   UNL     1       9.038   7.776   6.940  0.00  0.00    -0.297 N 
ATOM     10  N   UNL     1      11.472   6.553   5.315  0.00  0.00    -0.310 N 
ATOM     12  C   UNL     1       9.057   5.730   5.523  0.00  0.00    +0.027 C 
ATOM     13  C   UNL     1      10.487   5.847   7.524  0.00  0.00    +0.054 C 
ATOM     14  C   UNL     1       9.583   4.925   6.707  0.00  0.00    +0.018 C 
ATOM     15  C   UNL     1       8.261   6.951   6.015  0.00  0.00    +0.113 C 
ATOM     16  C   UNL     1      10.240   6.132   4.635  0.00  0.00    +0.130 C 
ATOM     17  C   UNL     1       9.666   7.041   8.050  0.00  0.00    +0.117 C 
ATOM     18  C   UNL     1      11.649   6.352   6.691  0.00  0.00    +0.027 A 
ATOM     19  C   UNL     1      12.827   6.638   7.277  0.00  0.00    +0.024 A 
ATOM     20  C   UNL     1      12.500   7.075   4.502  0.00  0.00    +0.274 A 
ATOM     21  C   UNL     1       9.149   9.149   6.710  0.00  0.00    +0.247 C 
ATOM     22  C   UNL     1      13.766   7.395   5.209  0.00  0.00    +0.112 A 
ATOM     23  C   UNL     1      13.920   7.178   6.515  0.00  0.00    +0.031 A 
ENDROOT
BRANCH  21  24
ATOM     24  C   UNL     1       9.974   9.936   7.633  0.00  0.00    +0.038 A 
ATOM     25  C   UNL     1       9.425  10.411   8.822  0.00  0.00    +0.028 A 
ATOM     26  C   UNL     1      11.304  10.204   7.316  0.00  0.00    +0.013 A 
ATOM     27  C   UNL     1      10.209  11.159   9.698  0.00  0.00    +0.060 A 
ATOM     28  C   UNL     1      12.089  10.952   8.193  0.00  0.00    +0.002 A 
ATOM     30  C   UNL     1      11.541  11.429   9.385  0.00  0.00    +0.015 A 
BRANCH  27  33
ATOM      7  O   UNL     1      10.288  12.052  11.916  0.00  0.00    -0.245 OA
ATOM     33  C   UNL     1       9.641  11.656  10.941  0.00  0.00    +0.337 C 
BRANCH  33   6
ATOM      6  O   UNL     1       8.279  11.647  10.930  0.00  0.00    -0.477 OA
ATOM     39  H   UNL     1       7.906  12.484  11.280  0.00  0.00    +0.295 HD
ENDBRANCH  33   6
ENDBRANCH  27  33
ENDBRANCH  21  24
BRANCH  22  11
ATOM     11  N   UNL     1      14.854   7.935   4.503  0.00  0.00    -0.211 N 
ATOM     38  H   UNL     1      15.526   7.218   4.194  0.00  0.00    +0.174 HD
BRANCH  11   1
ATOM      1  S   UNL     1      15.561   9.338   5.132  0.00  0.00    +0.073 S 
ATOM      4  O   UNL     1      15.421  10.426   4.181  0.00  0.00    -0.150 OA
ATOM      5  O   UNL     1      15.150   9.517   6.511  0.00  0.00    -0.150 OA
BRANCH   1  29
ATOM     29  C   UNL     1      17.266   8.868   5.147  0.00  0.00    +0.109 A 
ATOM     31  C   UNL     1      17.860   8.442   3.971  0.00  0.00    +0.032 A 
ATOM     32  C   UNL     1      17.975   8.935   6.334  0.00  0.00    +0.032 A 
ATOM     34  C   UNL     1      19.204   8.071   3.983  0.00  0.00    +0.047 A 
ATOM     35  C   UNL     1      19.320   8.565   6.346  0.00  0.00    +0.047 A 
ATOM     36  C   UNL     1      19.934   8.133   5.170  0.00  0.00    +0.120 A 
BRANCH  36   8
ATOM      8  O   UNL     1      21.246   7.771   5.181  0.00  0.00    -0.495 OA
ATOM     37  C   UNL     1      21.568   6.478   4.671  0.00  0.00    +0.277 C 
ENDBRANCH  36   8
ENDBRANCH   1  29
ENDBRANCH  11   1
ENDBRANCH  22  11
TORSDOF 7
ENDMDL
MODEL 10
REMARK VINA RESULT:      -6.8      4.071      6.852
REMARK  Name = 11879852
REMARK  8 active torsions:
REMARK  status: ('A' for Active; 'I' for Inactive)
REMARK    1  A    between atoms: S_1  and  N_11
REMARK    2  A    between atoms: S_1  and  C_29
REMARK    3  A    between atoms: O_6  and  C_33
REMARK    4  A    between atoms: O_8  and  C_36
REMARK    5  A    between atoms: O_8  and  C_37
REMARK    6  A    between atoms: N_11  and  C_22
REMARK    7  A    between atoms: C_21  and  C_24
REMARK    8  A    between atoms: C_27  and  C_33
REMARK                            x       y       z     vdW  Elec       q    Type
REMARK                         _______ _______ _______ _____ _____    ______ ____
ROOT
ATOM      2  O   UNL     1      14.351   7.362   6.038  0.00  0.00    -0.266 OA
ATOM      3  O   UNL     1      10.617   4.322   4.122  0.00  0.00    -0.270 OA
ATOM      9  N   UNL     1      10.385   6.434   3.141  0.00  0.00    -0.297 N 
ATOM     10  N   UNL     1      12.861   8.006   4.347  0.00  0.00    -0.310 N 
ATOM     12  C   UNL     1      10.355   8.336   4.746  0.00  0.00    +0.027 C 
ATOM     13  C   UNL     1      11.286   8.653   2.489  0.00  0.00    +0.054 C 
ATOM     14  C   UNL     1      10.441   9.313   3.578  0.00  0.00    +0.018 C 
ATOM     15  C   UNL     1       9.702   7.017   4.297  0.00  0.00    +0.113 C 
ATOM     16  C   UNL     1      11.762   8.120   5.314  0.00  0.00    +0.130 C 
ATOM     17  C   UNL     1      10.599   7.357   2.016  0.00  0.00    +0.117 C 
ATOM     18  C   UNL     1      12.680   8.336   2.996  0.00  0.00    +0.027 A 
ATOM     19  C   UNL     1      13.725   8.336   2.148  0.00  0.00    +0.024 A 
ATOM     20  C   UNL     1      14.125   7.646   4.862  0.00  0.00    +0.274 A 
ATOM     21  C   UNL     1      10.793   5.099   3.185  0.00  0.00    +0.247 C 
ATOM     22  C   UNL     1      15.233   7.640   3.872  0.00  0.00    +0.112 A 
ATOM     23  C   UNL     1      15.043   7.976   2.596  0.00  0.00    +0.031 A 
ENDROOT
BRANCH  21  24
ATOM     24  C   UNL     1      11.515   4.563   2.026  0.00  0.00    +0.038 A 
ATOM     25  C   UNL     1      12.897   4.401   2.084  0.00  0.00    +0.028 A 
ATOM     26  C   UNL     1      10.815   4.219   0.872  0.00  0.00    +0.013 A 
ATOM     27  C   UNL     1      13.583   3.892   0.982  0.00  0.00    +0.060 A 
ATOM     28  C   UNL     1      11.501   3.711  -0.231  0.00  0.00    +0.002 A 
ATOM     30  C   UNL     1      12.885   3.547  -0.175  0.00  0.00    +0.015 A 
BRANCH  27  33
ATOM      7  O   UNL     1      15.823   4.066   0.160  0.00  0.00    -0.245 OA
ATOM     33  C   UNL     1      15.026   3.720   1.038  0.00  0.00    +0.337 C 
BRANCH  33   6
ATOM      6  O   UNL     1      15.434   3.121   2.191  0.00  0.00    -0.477 OA
ATOM     39  H   UNL     1      16.411   3.045   2.237  0.00  0.00    +0.295 HD
ENDBRANCH  33   6
ENDBRANCH  27  33
ENDBRANCH  21  24
BRANCH  22  11
ATOM     11  N   UNL     1      16.533   7.283   4.268  0.00  0.00    -0.211 N 
ATOM     38  H   UNL     1      16.551   6.462   4.888  0.00  0.00    +0.174 HD
BRANCH  11   1
ATOM      1  S   UNL     1      17.569   8.539   4.733  0.00  0.00    +0.073 S 
ATOM      4  O   UNL     1      17.132   9.783   4.127  0.00  0.00    -0.150 OA
ATOM      5  O   UNL     1      17.813   8.468   6.161  0.00  0.00    -0.150 OA
BRANCH   1  29
ATOM     29  C   UNL     1      19.061   8.052   3.917  0.00  0.00    +0.109 A 
ATOM     31  C   UNL     1      19.164   8.211   2.546  0.00  0.00    +0.032 A 
ATOM     32  C   UNL     1      20.097   7.522   4.665  0.00  0.00    +0.032 A 
ATOM     34  C   UNL     1      20.341   7.828   1.903  0.00  0.00    +0.047 A 
ATOM     35  C   UNL     1      21.275   7.138   4.023  0.00  0.00    +0.047 A 
ATOM     36  C   UNL     1      21.396   7.292   2.641  0.00  0.00    +0.120 A 
BRANCH  36   8
ATOM      8  O   UNL     1      22.544   6.917   2.014  0.00  0.00    -0.495 OA
ATOM     37  C   UNL     1      22.411   6.127   0.832  0.00  0.00    +0.277 C 
ENDBRANCH  36   8
ENDBRANCH   1  29
ENDBRANCH  11   1
ENDBRANCH  22  11
TORSDOF 7
ENDMDL
