REMARK  Name = 44716096
REMARK  6 active torsions:
REMARK  status: ('A' for Active; 'I' for Inactive)
REMARK    1  A    between atoms: O_2  and  C_28
REMARK    2  A    between atoms: N_4  and  C_17
REMARK    3  A    between atoms: N_5  and  C_15
REMARK    4  A    between atoms: C_9  and  C_16
REMARK    5  A    between atoms: C_10  and  C_15
REMARK    6  A    between atoms: C_24  and  C_25
REMARK                            x       y       z     vdW  Elec       q    Type
REMARK                         _______ _______ _______ _____ _____    ______ ____
ROOT
ATOM      3  N   UNL     1      -1.403  -0.167  -1.837  0.00  0.00    -0.297 NA
ATOM      8  C   UNL     1      -1.364   1.472   0.184  0.00  0.00    +0.005 C 
ATOM      9  C   UNL     1      -2.470   0.409   0.344  0.00  0.00    +0.092 C 
ATOM     10  C   UNL     1      -0.153  -0.351  -1.050  0.00  0.00    +0.078 C 
ATOM     11  C   UNL     1      -0.025   0.722   0.057  0.00  0.00    +0.025 C 
ATOM     12  C   UNL     1      -1.568   2.227  -1.142  0.00  0.00    +0.020 C 
ATOM     13  C   UNL     1      -2.561  -0.431  -0.944  0.00  0.00    +0.097 C 
ATOM     14  C   UNL     1      -1.518   1.231  -2.311  0.00  0.00    +0.085 C 
ENDROOT
BRANCH   9  16
ATOM      1  O   UNL     1      -3.925   2.252   0.780  0.00  0.00    -0.275 OA
ATOM      4  N   UNL     1      -4.783   0.090   0.879  0.00  0.00    -0.312 N 
ATOM     16  C   UNL     1      -3.791   1.035   0.681  0.00  0.00    +0.218 C 
ATOM     31  H   UNL     1      -4.561  -0.891   0.734  0.00  0.00    +0.149 HD
BRANCH   4  17
ATOM     17  C   UNL     1      -6.142   0.432   1.236  0.00  0.00    +0.073 C 
ATOM     18  C   UNL     1      -6.992   0.689  -0.013  0.00  0.00    +0.022 C 
ATOM     19  C   UNL     1      -6.768  -0.651   2.121  0.00  0.00    +0.022 C 
ATOM     20  C   UNL     1      -7.301  -0.594  -0.784  0.00  0.00    +0.002 C 
ATOM     21  C   UNL     1      -7.078  -1.932   1.347  0.00  0.00    +0.002 C 
ATOM     22  C   UNL     1      -7.934  -1.652   0.115  0.00  0.00    +0.000 C 
ENDBRANCH   4  17
ENDBRANCH   9  16
BRANCH  10  15
ATOM     15  C   UNL     1       1.090  -0.396  -1.942  0.00  0.00    +0.164 C 
BRANCH  15   5
ATOM      5  N   UNL     1       2.318  -0.765  -1.158  0.00  0.00    -0.250 N 
ATOM      6  N   UNL     1       2.378  -1.925  -0.485  0.00  0.00    -0.065 NA
ATOM      7  N   UNL     1       3.568  -1.977   0.105  0.00  0.00    -0.130 NA
ATOM     23  C   UNL     1       3.464  -0.043  -1.020  0.00  0.00    +0.138 A 
ATOM     24  C   UNL     1       4.245  -0.833  -0.213  0.00  0.00    +0.113 A 
BRANCH  24  25
ATOM     25  C   UNL     1       5.564  -0.517   0.233  0.00  0.00    +0.007 A 
ATOM     26  C   UNL     1       5.939   0.814   0.417  0.00  0.00    +0.055 A 
ATOM     27  C   UNL     1       6.477  -1.541   0.485  0.00  0.00    +0.010 A 
ATOM     28  C   UNL     1       7.228   1.121   0.854  0.00  0.00    +0.117 A 
ATOM     29  C   UNL     1       7.766  -1.234   0.921  0.00  0.00    +0.004 A 
ATOM     30  C   UNL     1       8.142   0.097   1.106  0.00  0.00    +0.045 A 
BRANCH  28   2
ATOM      2  O   UNL     1       7.595   2.419   1.032  0.00  0.00    -0.507 OA
ATOM     32  H   UNL     1       6.843   2.994   0.811  0.00  0.00    +0.292 HD
ENDBRANCH  28   2
ENDBRANCH  24  25
ENDBRANCH  15   5
ENDBRANCH  10  15
TORSDOF 6
