MODEL 1
REMARK VINA RESULT:      -6.9      0.000      0.000
REMARK  Name = 45783719
REMARK  7 active torsions:
REMARK  status: ('A' for Active; 'I' for Inactive)
REMARK    1  A    between atoms: O_2  and  C_26
REMARK    2  A    between atoms: O_2  and  C_27
REMARK    3  A    between atoms: N_9  and  C_24
REMARK    4  A    between atoms: N_9  and  C_25
REMARK    5  A    between atoms: C_10  and  C_14
REMARK    6  A    between atoms: C_16  and  C_17
REMARK    7  A    between atoms: C_25  and  C_26
REMARK                            x       y       z     vdW  Elec       q    Type
REMARK                         _______ _______ _______ _____ _____    ______ ____
ROOT
ATOM      1  O   UNL     1      15.042  10.309  21.695  0.00  0.00    -0.336 OA
ATOM      4  N   UNL     1      14.785   8.364  20.614  0.00  0.00    -0.190 NA
ATOM      7  N   UNL     1      16.309   9.714  21.657  0.00  0.00    -0.056 NA
ATOM     14  C   UNL     1      14.203   9.449  21.059  0.00  0.00    +0.248 A 
ATOM     16  C   UNL     1      16.077   8.572  21.004  0.00  0.00    +0.204 A 
ENDROOT
BRANCH  14  10
ATOM      3  N   UNL     1      11.941   9.016  20.076  0.00  0.00    -0.288 N 
ATOM      5  N   UNL     1      12.881   9.875  18.135  0.00  0.00    -0.223 NA
ATOM      6  N   UNL     1      11.004   8.365  18.054  0.00  0.00    -0.223 NA
ATOM     10  C   UNL     1      12.747   9.870  20.964  0.00  0.00    +0.165 C 
ATOM     11  C   UNL     1      12.028   9.753  22.320  0.00  0.00    +0.034 C 
ATOM     12  C   UNL     1      11.406   8.366  22.287  0.00  0.00    +0.021 C 
ATOM     13  C   UNL     1      10.982   8.205  20.831  0.00  0.00    +0.109 C 
ATOM     15  C   UNL     1      11.943   9.089  18.695  0.00  0.00    +0.218 A 
ATOM     18  C   UNL     1      12.854   9.921  16.787  0.00  0.00    +0.116 A 
ATOM     19  C   UNL     1      11.035   8.458  16.708  0.00  0.00    +0.116 A 
ATOM     20  C   UNL     1      11.945   9.228  16.014  0.00  0.00    +0.039 A 
ENDBRANCH  14  10
BRANCH  16  17
ATOM      8  N   UNL     1      17.904   5.763  19.395  0.00  0.00    -0.240 NA
ATOM     17  C   UNL     1      17.110   7.617  20.726  0.00  0.00    +0.041 A 
ATOM     21  C   UNL     1      18.285   7.596  21.470  0.00  0.00    +0.016 A 
ATOM     22  C   UNL     1      16.970   6.688  19.709  0.00  0.00    +0.124 A 
ATOM     23  C   UNL     1      19.270   6.658  21.177  0.00  0.00    +0.044 A 
ATOM     24  C   UNL     1      19.033   5.772  20.138  0.00  0.00    +0.119 A 
BRANCH  24   9
ATOM      9  N   UNL     1      20.045   4.823  19.852  0.00  0.00    -0.327 N 
ATOM     28  H   UNL     1      19.840   4.149  19.124  0.00  0.00    +0.148 HD
BRANCH   9  25
ATOM     25  C   UNL     1      21.294   4.798  20.541  0.00  0.00    +0.131 C 
BRANCH  25  26
ATOM     26  C   UNL     1      21.498   3.443  21.197  0.00  0.00    +0.178 C 
BRANCH  26   2
ATOM      2  O   UNL     1      22.333   3.592  22.340  0.00  0.00    -0.381 OA
ATOM     27  C   UNL     1      22.155   4.863  22.952  0.00  0.00    +0.194 C 
ENDBRANCH  26   2
ENDBRANCH  25  26
ENDBRANCH   9  25
ENDBRANCH  24   9
ENDBRANCH  16  17
TORSDOF 6
ENDMDL
MODEL 2
REMARK VINA RESULT:      -6.8      4.009      8.014
REMARK  Name = 45783719
REMARK  7 active torsions:
REMARK  status: ('A' for Active; 'I' for Inactive)
REMARK    1  A    between atoms: O_2  and  C_26
REMARK    2  A    between atoms: O_2  and  C_27
REMARK    3  A    between atoms: N_9  and  C_24
REMARK    4  A    between atoms: N_9  and  C_25
REMARK    5  A    between atoms: C_10  and  C_14
REMARK    6  A    between atoms: C_16  and  C_17
REMARK    7  A    between atoms: C_25  and  C_26
REMARK                            x       y       z     vdW  Elec       q    Type
REMARK                         _______ _______ _______ _____ _____    ______ ____
ROOT
ATOM      1  O   UNL     1      11.976   7.247  17.798  0.00  0.00    -0.336 OA
ATOM      4  N   UNL     1      13.787   8.520  18.141  0.00  0.00    -0.190 NA
ATOM      7  N   UNL     1      12.037   8.137  16.719  0.00  0.00    -0.056 NA
ATOM     14  C   UNL     1      13.043   7.540  18.588  0.00  0.00    +0.248 A 
ATOM     16  C   UNL     1      13.131   8.854  16.992  0.00  0.00    +0.204 A 
ENDROOT
BRANCH  14  10
ATOM      3  N   UNL     1      14.379   7.068  20.653  0.00  0.00    -0.288 N 
ATOM      5  N   UNL     1      15.893   6.121  19.170  0.00  0.00    -0.223 NA
ATOM      6  N   UNL     1      16.602   6.961  21.315  0.00  0.00    -0.223 NA
ATOM     10  C   UNL     1      13.205   6.702  19.844  0.00  0.00    +0.165 C 
ATOM     11  C   UNL     1      12.028   6.896  20.817  0.00  0.00    +0.034 C 
ATOM     12  C   UNL     1      12.502   7.999  21.751  0.00  0.00    +0.021 C 
ATOM     13  C   UNL     1      13.990   7.707  21.913  0.00  0.00    +0.109 C 
ATOM     15  C   UNL     1      15.682   6.701  20.366  0.00  0.00    +0.218 A 
ATOM     18  C   UNL     1      17.175   5.776  18.924  0.00  0.00    +0.116 A 
ATOM     19  C   UNL     1      17.862   6.591  21.003  0.00  0.00    +0.116 A 
ATOM     20  C   UNL     1      18.210   5.989  19.812  0.00  0.00    +0.039 A 
ENDBRANCH  14  10
BRANCH  16  17
ATOM      8  N   UNL     1      13.261  11.272  14.172  0.00  0.00    -0.240 NA
ATOM     17  C   UNL     1      13.594   9.911  16.140  0.00  0.00    +0.041 A 
ATOM     21  C   UNL     1      14.775  10.589  16.420  0.00  0.00    +0.016 A 
ATOM     22  C   UNL     1      12.880  10.287  15.015  0.00  0.00    +0.124 A 
ATOM     23  C   UNL     1      15.200  11.610  15.575  0.00  0.00    +0.044 A 
ATOM     24  C   UNL     1      14.413  11.911  14.474  0.00  0.00    +0.119 A 
BRANCH  24   9
ATOM      9  N   UNL     1      14.858  12.952  13.624  0.00  0.00    -0.327 N 
ATOM     28  H   UNL     1      14.853  13.888  14.014  0.00  0.00    +0.148 HD
BRANCH   9  25
ATOM     25  C   UNL     1      15.294  12.721  12.285  0.00  0.00    +0.131 C 
BRANCH  25  26
ATOM     26  C   UNL     1      16.796  12.496  12.259  0.00  0.00    +0.178 C 
BRANCH  26   2
ATOM      2  O   UNL     1      17.210  12.224  10.925  0.00  0.00    -0.381 OA
ATOM     27  C   UNL     1      18.617  12.039  10.845  0.00  0.00    +0.194 C 
ENDBRANCH  26   2
ENDBRANCH  25  26
ENDBRANCH   9  25
ENDBRANCH  24   9
ENDBRANCH  16  17
TORSDOF 6
ENDMDL
MODEL 3
REMARK VINA RESULT:      -6.5      3.727      8.774
REMARK  Name = 45783719
REMARK  7 active torsions:
REMARK  status: ('A' for Active; 'I' for Inactive)
REMARK    1  A    between atoms: O_2  and  C_26
REMARK    2  A    between atoms: O_2  and  C_27
REMARK    3  A    between atoms: N_9  and  C_24
REMARK    4  A    between atoms: N_9  and  C_25
REMARK    5  A    between atoms: C_10  and  C_14
REMARK    6  A    between atoms: C_16  and  C_17
REMARK    7  A    between atoms: C_25  and  C_26
REMARK                            x       y       z     vdW  Elec       q    Type
REMARK                         _______ _______ _______ _____ _____    ______ ____
ROOT
ATOM      1  O   UNL     1      12.092   7.069  17.960  0.00  0.00    -0.336 OA
ATOM      4  N   UNL     1      13.780   8.506  18.279  0.00  0.00    -0.190 NA
ATOM      7  N   UNL     1      12.089   7.926  16.853  0.00  0.00    -0.056 NA
ATOM     14  C   UNL     1      13.119   7.480  18.751  0.00  0.00    +0.248 A 
ATOM     16  C   UNL     1      13.112   8.744  17.113  0.00  0.00    +0.204 A 
ENDROOT
BRANCH  14  10
ATOM      3  N   UNL     1      14.549   7.099  20.772  0.00  0.00    -0.288 N 
ATOM      5  N   UNL     1      15.992   6.080  19.266  0.00  0.00    -0.223 NA
ATOM      6  N   UNL     1      16.800   7.015  21.335  0.00  0.00    -0.223 NA
ATOM     10  C   UNL     1      13.338   6.700  20.035  0.00  0.00    +0.165 C 
ATOM     11  C   UNL     1      12.208   6.942  21.052  0.00  0.00    +0.034 C 
ATOM     12  C   UNL     1      12.725   8.085  21.911  0.00  0.00    +0.021 C 
ATOM     13  C   UNL     1      14.219   7.796  22.017  0.00  0.00    +0.109 C 
ATOM     15  C   UNL     1      15.837   6.715  20.442  0.00  0.00    +0.218 A 
ATOM     18  C   UNL     1      17.261   5.720  18.977  0.00  0.00    +0.116 A 
ATOM     19  C   UNL     1      18.043   6.627  20.982  0.00  0.00    +0.116 A 
ATOM     20  C   UNL     1      18.336   5.970  19.805  0.00  0.00    +0.039 A 
ENDBRANCH  14  10
BRANCH  16  17
ATOM      8  N   UNL     1      13.043  11.100  14.238  0.00  0.00    -0.240 NA
ATOM     17  C   UNL     1      13.493   9.810  16.232  0.00  0.00    +0.041 A 
ATOM     21  C   UNL     1      14.628  10.574  16.479  0.00  0.00    +0.016 A 
ATOM     22  C   UNL     1      12.741  10.110  15.108  0.00  0.00    +0.124 A 
ATOM     23  C   UNL     1      14.971  11.601  15.606  0.00  0.00    +0.044 A 
ATOM     24  C   UNL     1      14.153  11.821  14.510  0.00  0.00    +0.119 A 
BRANCH  24   9
ATOM      9  N   UNL     1      14.516  12.871  13.631  0.00  0.00    -0.327 N 
ATOM     28  H   UNL     1      15.471  13.203  13.693  0.00  0.00    +0.148 HD
BRANCH   9  25
ATOM     25  C   UNL     1      13.601  13.447  12.700  0.00  0.00    +0.131 C 
BRANCH  25  26
ATOM     26  C   UNL     1      12.704  14.450  13.404  0.00  0.00    +0.178 C 
BRANCH  26   2
ATOM      2  O   UNL     1      11.450  14.515  12.736  0.00  0.00    -0.381 OA
ATOM     27  C   UNL     1      10.649  15.578  13.235  0.00  0.00    +0.194 C 
ENDBRANCH  26   2
ENDBRANCH  25  26
ENDBRANCH   9  25
ENDBRANCH  24   9
ENDBRANCH  16  17
TORSDOF 6
ENDMDL
MODEL 4
REMARK VINA RESULT:      -6.3     26.545     29.456
REMARK  Name = 45783719
REMARK  7 active torsions:
REMARK  status: ('A' for Active; 'I' for Inactive)
REMARK    1  A    between atoms: O_2  and  C_26
REMARK    2  A    between atoms: O_2  and  C_27
REMARK    3  A    between atoms: N_9  and  C_24
REMARK    4  A    between atoms: N_9  and  C_25
REMARK    5  A    between atoms: C_10  and  C_14
REMARK    6  A    between atoms: C_16  and  C_17
REMARK    7  A    between atoms: C_25  and  C_26
REMARK                            x       y       z     vdW  Elec       q    Type
REMARK                         _______ _______ _______ _____ _____    ______ ____
ROOT
ATOM      1  O   UNL     1      -1.473 -10.597  15.081  0.00  0.00    -0.336 OA
ATOM      4  N   UNL     1      -3.607 -11.079  14.598  0.00  0.00    -0.190 NA
ATOM      7  N   UNL     1      -2.200 -10.371  16.256  0.00  0.00    -0.056 NA
ATOM     14  C   UNL     1      -2.377 -11.011  14.154  0.00  0.00    +0.248 A 
ATOM     16  C   UNL     1      -3.448 -10.677  15.892  0.00  0.00    +0.204 A 
ENDROOT
BRANCH  14  10
ATOM      3  N   UNL     1      -2.628 -12.322  12.035  0.00  0.00    -0.288 N 
ATOM      5  N   UNL     1      -1.890 -14.103  13.328  0.00  0.00    -0.223 NA
ATOM      6  N   UNL     1      -3.232 -14.459  11.358  0.00  0.00    -0.223 NA
ATOM     10  C   UNL     1      -1.833 -11.327  12.772  0.00  0.00    +0.165 C 
ATOM     11  C   UNL     1      -1.862 -10.094  11.850  0.00  0.00    +0.034 C 
ATOM     12  C   UNL     1      -3.190 -10.215  11.119  0.00  0.00    +0.021 C 
ATOM     13  C   UNL     1      -3.339 -11.717  10.905  0.00  0.00    +0.109 C 
ATOM     15  C   UNL     1      -2.581 -13.688  12.250  0.00  0.00    +0.218 A 
ATOM     18  C   UNL     1      -1.866 -15.440  13.508  0.00  0.00    +0.116 A 
ATOM     19  C   UNL     1      -3.166 -15.786  11.598  0.00  0.00    +0.116 A 
ATOM     20  C   UNL     1      -2.492 -16.339  12.667  0.00  0.00    +0.039 A 
ENDBRANCH  14  10
BRANCH  16  17
ATOM      8  N   UNL     1      -6.814  -9.836  17.229  0.00  0.00    -0.240 NA
ATOM     17  C   UNL     1      -4.559 -10.591  16.796  0.00  0.00    +0.041 A 
ATOM     21  C   UNL     1      -4.492 -11.147  18.068  0.00  0.00    +0.016 A 
ATOM     22  C   UNL     1      -5.732  -9.953  16.428  0.00  0.00    +0.124 A 
ATOM     23  C   UNL     1      -5.586 -11.048  18.922  0.00  0.00    +0.044 A 
ATOM     24  C   UNL     1      -6.713 -10.389  18.459  0.00  0.00    +0.119 A 
BRANCH  24   9
ATOM      9  N   UNL     1      -7.818 -10.297  19.340  0.00  0.00    -0.327 N 
ATOM     28  H   UNL     1      -7.724  -9.653  20.117  0.00  0.00    +0.148 HD
BRANCH   9  25
ATOM     25  C   UNL     1      -9.010 -11.061  19.164  0.00  0.00    +0.131 C 
BRANCH  25  26
ATOM     26  C   UNL     1     -10.215 -10.138  19.104  0.00  0.00    +0.178 C 
BRANCH  26   2
ATOM      2  O   UNL     1     -10.185  -9.398  17.890  0.00  0.00    -0.381 OA
ATOM     27  C   UNL     1     -10.440 -10.231  16.766  0.00  0.00    +0.194 C 
ENDBRANCH  26   2
ENDBRANCH  25  26
ENDBRANCH   9  25
ENDBRANCH  24   9
ENDBRANCH  16  17
TORSDOF 6
ENDMDL
MODEL 5
REMARK VINA RESULT:      -6.0     27.189     29.590
REMARK  Name = 45783719
REMARK  7 active torsions:
REMARK  status: ('A' for Active; 'I' for Inactive)
REMARK    1  A    between atoms: O_2  and  C_26
REMARK    2  A    between atoms: O_2  and  C_27
REMARK    3  A    between atoms: N_9  and  C_24
REMARK    4  A    between atoms: N_9  and  C_25
REMARK    5  A    between atoms: C_10  and  C_14
REMARK    6  A    between atoms: C_16  and  C_17
REMARK    7  A    between atoms: C_25  and  C_26
REMARK                            x       y       z     vdW  Elec       q    Type
REMARK                         _______ _______ _______ _____ _____    ______ ____
ROOT
ATOM      1  O   UNL     1      -1.427 -10.666  12.498  0.00  0.00    -0.336 OA
ATOM      4  N   UNL     1      -3.513 -11.407  12.156  0.00  0.00    -0.190 NA
ATOM      7  N   UNL     1      -1.936  -9.918  11.430  0.00  0.00    -0.056 NA
ATOM     14  C   UNL     1      -2.420 -11.519  12.866  0.00  0.00    +0.248 A 
ATOM     16  C   UNL     1      -3.169 -10.412  11.287  0.00  0.00    +0.204 A 
ENDROOT
BRANCH  14  10
ATOM      3  N   UNL     1      -3.309 -12.904  14.754  0.00  0.00    -0.288 N 
ATOM      5  N   UNL     1      -3.643 -10.852  15.788  0.00  0.00    -0.223 NA
ATOM      6  N   UNL     1      -4.951 -12.785  16.392  0.00  0.00    -0.223 NA
ATOM     10  C   UNL     1      -2.113 -12.454  14.023  0.00  0.00    +0.165 C 
ATOM     11  C   UNL     1      -1.474 -13.769  13.542  0.00  0.00    +0.034 C 
ATOM     12  C   UNL     1      -2.656 -14.712  13.375  0.00  0.00    +0.021 C 
ATOM     13  C   UNL     1      -3.579 -14.326  14.526  0.00  0.00    +0.109 C 
ATOM     15  C   UNL     1      -3.998 -12.147  15.685  0.00  0.00    +0.218 A 
ATOM     18  C   UNL     1      -4.336 -10.145  16.705  0.00  0.00    +0.116 A 
ATOM     19  C   UNL     1      -5.603 -12.017  17.290  0.00  0.00    +0.116 A 
ATOM     20  C   UNL     1      -5.335 -10.679  17.492  0.00  0.00    +0.039 A 
ENDBRANCH  14  10
BRANCH  16  17
ATOM      8  N   UNL     1      -5.108 -10.232   8.120  0.00  0.00    -0.240 NA
ATOM     17  C   UNL     1      -4.082  -9.936  10.288  0.00  0.00    +0.041 A 
ATOM     21  C   UNL     1      -4.810  -8.767  10.482  0.00  0.00    +0.016 A 
ATOM     22  C   UNL     1      -4.265 -10.626   9.101  0.00  0.00    +0.124 A 
ATOM     23  C   UNL     1      -5.687  -8.331   9.495  0.00  0.00    +0.044 A 
ATOM     24  C   UNL     1      -5.800  -9.093   8.343  0.00  0.00    +0.119 A 
BRANCH  24   9
ATOM      9  N   UNL     1      -6.697  -8.635   7.347  0.00  0.00    -0.327 N 
ATOM     28  H   UNL     1      -6.326  -8.550   6.408  0.00  0.00    +0.148 HD
BRANCH   9  25
ATOM     25  C   UNL     1      -8.056  -8.302   7.629  0.00  0.00    +0.131 C 
BRANCH  25  26
ATOM     26  C   UNL     1      -8.372  -6.915   7.098  0.00  0.00    +0.178 C 
BRANCH  26   2
ATOM      2  O   UNL     1      -8.172  -5.956   8.129  0.00  0.00    -0.381 OA
ATOM     27  C   UNL     1      -9.391  -5.323   8.495  0.00  0.00    +0.194 C 
ENDBRANCH  26   2
ENDBRANCH  25  26
ENDBRANCH   9  25
ENDBRANCH  24   9
ENDBRANCH  16  17
TORSDOF 6
ENDMDL
MODEL 6
REMARK VINA RESULT:      -5.9     27.036     29.734
REMARK  Name = 45783719
REMARK  7 active torsions:
REMARK  status: ('A' for Active; 'I' for Inactive)
REMARK    1  A    between atoms: O_2  and  C_26
REMARK    2  A    between atoms: O_2  and  C_27
REMARK    3  A    between atoms: N_9  and  C_24
REMARK    4  A    between atoms: N_9  and  C_25
REMARK    5  A    between atoms: C_10  and  C_14
REMARK    6  A    between atoms: C_16  and  C_17
REMARK    7  A    between atoms: C_25  and  C_26
REMARK                            x       y       z     vdW  Elec       q    Type
REMARK                         _______ _______ _______ _____ _____    ______ ____
ROOT
ATOM      1  O   UNL     1      -9.837 -11.080  17.141  0.00  0.00    -0.336 OA
ATOM      4  N   UNL     1      -8.287  -9.715  18.007  0.00  0.00    -0.190 NA
ATOM      7  N   UNL     1      -8.600 -11.572  16.710  0.00  0.00    -0.056 NA
ATOM     14  C   UNL     1      -9.562  -9.986  17.900  0.00  0.00    +0.248 A 
ATOM     16  C   UNL     1      -7.735 -10.716  17.261  0.00  0.00    +0.204 A 
ENDROOT
BRANCH  14  10
ATOM      3  N   UNL     1     -11.805  -8.940  17.514  0.00  0.00    -0.288 N 
ATOM      5  N   UNL     1     -10.578  -7.240  16.517  0.00  0.00    -0.223 NA
ATOM      6  N   UNL     1     -12.880  -7.635  15.922  0.00  0.00    -0.223 NA
ATOM     10  C   UNL     1     -10.756  -9.259  18.496  0.00  0.00    +0.165 C 
ATOM     11  C   UNL     1     -11.492 -10.124  19.535  0.00  0.00    +0.034 C 
ATOM     12  C   UNL     1     -12.584 -10.812  18.732  0.00  0.00    +0.021 C 
ATOM     13  C   UNL     1     -13.011  -9.744  17.731  0.00  0.00    +0.109 C 
ATOM     15  C   UNL     1     -11.751  -7.893  16.612  0.00  0.00    +0.218 A 
ATOM     18  C   UNL     1     -10.561  -6.226  15.628  0.00  0.00    +0.116 A 
ATOM     19  C   UNL     1     -12.792  -6.608  15.051  0.00  0.00    +0.116 A 
ATOM     20  C   UNL     1     -11.648  -5.861  14.860  0.00  0.00    +0.039 A 
ENDBRANCH  14  10
BRANCH  16  17
ATOM      8  N   UNL     1      -4.360 -10.384  15.737  0.00  0.00    -0.240 NA
ATOM     17  C   UNL     1      -6.316 -10.830  17.085  0.00  0.00    +0.041 A 
ATOM     21  C   UNL     1      -5.526 -11.466  18.036  0.00  0.00    +0.016 A 
ATOM     22  C   UNL     1      -5.691 -10.311  15.964  0.00  0.00    +0.124 A 
ATOM     23  C   UNL     1      -4.152 -11.561  17.838  0.00  0.00    +0.044 A 
ATOM     24  C   UNL     1      -3.623 -11.008  16.683  0.00  0.00    +0.119 A 
BRANCH  24   9
ATOM      9  N   UNL     1      -2.223 -11.113  16.496  0.00  0.00    -0.327 N 
ATOM     28  H   UNL     1      -1.674 -11.349  17.315  0.00  0.00    +0.148 HD
BRANCH   9  25
ATOM     25  C   UNL     1      -1.596 -10.900  15.232  0.00  0.00    +0.131 C 
BRANCH  25  26
ATOM     26  C   UNL     1      -1.637 -12.176  14.410  0.00  0.00    +0.178 C 
BRANCH  26   2
ATOM      2  O   UNL     1      -1.797 -11.848  13.035  0.00  0.00    -0.381 OA
ATOM     27  C   UNL     1      -2.025 -10.456  12.855  0.00  0.00    +0.194 C 
ENDBRANCH  26   2
ENDBRANCH  25  26
ENDBRANCH   9  25
ENDBRANCH  24   9
ENDBRANCH  16  17
TORSDOF 6
ENDMDL
MODEL 7
REMARK VINA RESULT:      -5.8      2.844      9.427
REMARK  Name = 45783719
REMARK  7 active torsions:
REMARK  status: ('A' for Active; 'I' for Inactive)
REMARK    1  A    between atoms: O_2  and  C_26
REMARK    2  A    between atoms: O_2  and  C_27
REMARK    3  A    between atoms: N_9  and  C_24
REMARK    4  A    between atoms: N_9  and  C_25
REMARK    5  A    between atoms: C_10  and  C_14
REMARK    6  A    between atoms: C_16  and  C_17
REMARK    7  A    between atoms: C_25  and  C_26
REMARK                            x       y       z     vdW  Elec       q    Type
REMARK                         _______ _______ _______ _____ _____    ______ ____
ROOT
ATOM      1  O   UNL     1      19.977   8.547  21.752  0.00  0.00    -0.336 OA
ATOM      4  N   UNL     1      19.009   6.613  21.168  0.00  0.00    -0.190 NA
ATOM      7  N   UNL     1      18.620   8.832  21.562  0.00  0.00    -0.056 NA
ATOM     14  C   UNL     1      20.121   7.219  21.500  0.00  0.00    +0.248 A 
ATOM     16  C   UNL     1      18.115   7.643  21.220  0.00  0.00    +0.204 A 
ENDROOT
BRANCH  14  10
ATOM      3  N   UNL     1      21.685   5.752  22.794  0.00  0.00    -0.288 N 
ATOM      5  N   UNL     1      21.640   7.478  24.347  0.00  0.00    -0.223 NA
ATOM      6  N   UNL     1      22.162   5.218  25.003  0.00  0.00    -0.223 NA
ATOM     10  C   UNL     1      21.523   6.652  21.640  0.00  0.00    +0.165 C 
ATOM     11  C   UNL     1      21.904   5.765  20.441  0.00  0.00    +0.034 C 
ATOM     12  C   UNL     1      21.524   4.362  20.888  0.00  0.00    +0.021 C 
ATOM     13  C   UNL     1      21.866   4.361  22.374  0.00  0.00    +0.109 C 
ATOM     15  C   UNL     1      21.835   6.168  24.105  0.00  0.00    +0.218 A 
ATOM     18  C   UNL     1      21.794   7.848  25.635  0.00  0.00    +0.116 A 
ATOM     19  C   UNL     1      22.300   5.658  26.272  0.00  0.00    +0.116 A 
ATOM     20  C   UNL     1      22.127   6.973  26.650  0.00  0.00    +0.039 A 
ENDBRANCH  14  10
BRANCH  16  17
ATOM      8  N   UNL     1      14.415   7.777  21.550  0.00  0.00    -0.240 NA
ATOM     17  C   UNL     1      16.726   7.450  20.922  0.00  0.00    +0.041 A 
ATOM     21  C   UNL     1      16.326   6.780  19.771  0.00  0.00    +0.016 A 
ATOM     22  C   UNL     1      15.740   7.925  21.771  0.00  0.00    +0.124 A 
ATOM     23  C   UNL     1      14.970   6.608  19.509  0.00  0.00    +0.044 A 
ATOM     24  C   UNL     1      14.063   7.121  20.422  0.00  0.00    +0.119 A 
BRANCH  24   9
ATOM      9  N   UNL     1      12.687   6.938  20.141  0.00  0.00    -0.327 N 
ATOM     28  H   UNL     1      12.400   7.074  19.179  0.00  0.00    +0.148 HD
BRANCH   9  25
ATOM     25  C   UNL     1      11.736   6.584  21.144  0.00  0.00    +0.131 C 
BRANCH  25  26
ATOM     26  C   UNL     1      10.657   7.648  21.237  0.00  0.00    +0.178 C 
BRANCH  26   2
ATOM      2  O   UNL     1      10.539   8.087  22.585  0.00  0.00    -0.381 OA
ATOM     27  C   UNL     1      11.057   9.400  22.751  0.00  0.00    +0.194 C 
ENDBRANCH  26   2
ENDBRANCH  25  26
ENDBRANCH   9  25
ENDBRANCH  24   9
ENDBRANCH  16  17
TORSDOF 6
ENDMDL
MODEL 8
REMARK VINA RESULT:      -5.7     26.623     30.440
REMARK  Name = 45783719
REMARK  7 active torsions:
REMARK  status: ('A' for Active; 'I' for Inactive)
REMARK    1  A    between atoms: O_2  and  C_26
REMARK    2  A    between atoms: O_2  and  C_27
REMARK    3  A    between atoms: N_9  and  C_24
REMARK    4  A    between atoms: N_9  and  C_25
REMARK    5  A    between atoms: C_10  and  C_14
REMARK    6  A    between atoms: C_16  and  C_17
REMARK    7  A    between atoms: C_25  and  C_26
REMARK                            x       y       z     vdW  Elec       q    Type
REMARK                         _______ _______ _______ _____ _____    ______ ____
ROOT
ATOM      1  O   UNL     1      -7.441 -12.693  15.817  0.00  0.00    -0.336 OA
ATOM      4  N   UNL     1      -6.923 -10.686  16.667  0.00  0.00    -0.190 NA
ATOM      7  N   UNL     1      -8.545 -11.868  15.570  0.00  0.00    -0.056 NA
ATOM     14  C   UNL     1      -6.531 -11.919  16.467  0.00  0.00    +0.248 A 
ATOM     16  C   UNL     1      -8.164 -10.702  16.100  0.00  0.00    +0.204 A 
ENDROOT
BRANCH  14  10
ATOM      3  N   UNL     1      -4.067 -11.680  16.847  0.00  0.00    -0.288 N 
ATOM      5  N   UNL     1      -3.960 -11.575  14.530  0.00  0.00    -0.223 NA
ATOM      6  N   UNL     1      -2.248 -10.585  15.908  0.00  0.00    -0.223 NA
ATOM     10  C   UNL     1      -5.225 -12.589  16.852  0.00  0.00    +0.165 C 
ATOM     11  C   UNL     1      -5.257 -13.116  18.299  0.00  0.00    +0.034 C 
ATOM     12  C   UNL     1      -4.665 -11.978  19.116  0.00  0.00    +0.021 C 
ATOM     13  C   UNL     1      -3.580 -11.416  18.203  0.00  0.00    +0.109 C 
ATOM     15  C   UNL     1      -3.396 -11.261  15.712  0.00  0.00    +0.218 A 
ATOM     18  C   UNL     1      -3.279 -11.151  13.445  0.00  0.00    +0.116 A 
ATOM     19  C   UNL     1      -1.619 -10.192  14.780  0.00  0.00    +0.116 A 
ATOM     20  C   UNL     1      -2.092 -10.449  13.510  0.00  0.00    +0.039 A 
ENDBRANCH  14  10
BRANCH  16  17
ATOM      8  N   UNL     1     -10.431  -8.043  14.830  0.00  0.00    -0.240 NA
ATOM     17  C   UNL     1      -8.999  -9.536  16.080  0.00  0.00    +0.041 A 
ATOM     21  C   UNL     1      -9.196  -8.777  17.228  0.00  0.00    +0.016 A 
ATOM     22  C   UNL     1      -9.632  -9.130  14.917  0.00  0.00    +0.124 A 
ATOM     23  C   UNL     1     -10.012  -7.651  17.178  0.00  0.00    +0.044 A 
ATOM     24  C   UNL     1     -10.601  -7.330  15.966  0.00  0.00    +0.119 A 
BRANCH  24   9
ATOM      9  N   UNL     1     -11.428  -6.180  15.932  0.00  0.00    -0.327 N 
ATOM     28  H   UNL     1     -10.971  -5.290  16.089  0.00  0.00    +0.148 HD
BRANCH   9  25
ATOM     25  C   UNL     1     -12.832  -6.249  15.692  0.00  0.00    +0.131 C 
BRANCH  25  26
ATOM     26  C   UNL     1     -13.156  -5.664  14.328  0.00  0.00    +0.178 C 
BRANCH  26   2
ATOM      2  O   UNL     1     -12.027  -4.950  13.839  0.00  0.00    -0.381 OA
ATOM     27  C   UNL     1     -12.334  -4.251  12.640  0.00  0.00    +0.194 C 
ENDBRANCH  26   2
ENDBRANCH  25  26
ENDBRANCH   9  25
ENDBRANCH  24   9
ENDBRANCH  16  17
TORSDOF 6
ENDMDL
MODEL 9
REMARK VINA RESULT:      -5.7     26.674     29.446
REMARK  Name = 45783719
REMARK  7 active torsions:
REMARK  status: ('A' for Active; 'I' for Inactive)
REMARK    1  A    between atoms: O_2  and  C_26
REMARK    2  A    between atoms: O_2  and  C_27
REMARK    3  A    between atoms: N_9  and  C_24
REMARK    4  A    between atoms: N_9  and  C_25
REMARK    5  A    between atoms: C_10  and  C_14
REMARK    6  A    between atoms: C_16  and  C_17
REMARK    7  A    between atoms: C_25  and  C_26
REMARK                            x       y       z     vdW  Elec       q    Type
REMARK                         _______ _______ _______ _____ _____    ______ ____
ROOT
ATOM      1  O   UNL     1     -11.359   8.132  18.245  0.00  0.00    -0.336 OA
ATOM      4  N   UNL     1     -13.513   8.093  18.861  0.00  0.00    -0.190 NA
ATOM      7  N   UNL     1     -11.412   7.394  19.434  0.00  0.00    -0.056 NA
ATOM     14  C   UNL     1     -12.639   8.506  17.979  0.00  0.00    +0.248 A 
ATOM     16  C   UNL     1     -12.713   7.415  19.735  0.00  0.00    +0.204 A 
ENDROOT
BRANCH  14  10
ATOM      3  N   UNL     1     -11.646  10.028  16.256  0.00  0.00    -0.288 N 
ATOM      5  N   UNL     1     -11.711  11.607  17.956  0.00  0.00    -0.223 NA
ATOM      6  N   UNL     1     -10.142  11.793  16.136  0.00  0.00    -0.223 NA
ATOM     10  C   UNL     1     -12.855   9.330  16.721  0.00  0.00    +0.165 C 
ATOM     11  C   UNL     1     -13.242   8.449  15.520  0.00  0.00    +0.034 C 
ATOM     12  C   UNL     1     -11.915   8.153  14.839  0.00  0.00    +0.021 C 
ATOM     13  C   UNL     1     -11.135   9.452  15.009  0.00  0.00    +0.109 C 
ATOM     15  C   UNL     1     -11.144  11.194  16.807  0.00  0.00    +0.218 A 
ATOM     18  C   UNL     1     -11.197  12.746  18.466  0.00  0.00    +0.116 A 
ATOM     19  C   UNL     1      -9.677  12.927  16.701  0.00  0.00    +0.116 A 
ATOM     20  C   UNL     1     -10.171  13.456  17.876  0.00  0.00    +0.039 A 
ENDBRANCH  14  10
BRANCH  16  17
ATOM      8  N   UNL     1     -15.000   6.621  22.556  0.00  0.00    -0.240 NA
ATOM     17  C   UNL     1     -13.247   6.770  20.900  0.00  0.00    +0.041 A 
ATOM     21  C   UNL     1     -12.579   5.709  21.500  0.00  0.00    +0.016 A 
ATOM     22  C   UNL     1     -14.443   7.185  21.461  0.00  0.00    +0.124 A 
ATOM     23  C   UNL     1     -13.121   5.103  22.629  0.00  0.00    +0.044 A 
ATOM     24  C   UNL     1     -14.324   5.592  23.113  0.00  0.00    +0.119 A 
BRANCH  24   9
ATOM      9  N   UNL     1     -14.863   4.965  24.263  0.00  0.00    -0.327 N 
ATOM     28  H   UNL     1     -14.236   4.848  25.050  0.00  0.00    +0.148 HD
BRANCH   9  25
ATOM     25  C   UNL     1     -16.214   4.512  24.331  0.00  0.00    +0.131 C 
BRANCH  25  26
ATOM     26  C   UNL     1     -16.263   2.999  24.203  0.00  0.00    +0.178 C 
BRANCH  26   2
ATOM      2  O   UNL     1     -16.529   2.647  22.850  0.00  0.00    -0.381 OA
ATOM     27  C   UNL     1     -17.718   3.264  22.377  0.00  0.00    +0.194 C 
ENDBRANCH  26   2
ENDBRANCH  25  26
ENDBRANCH   9  25
ENDBRANCH  24   9
ENDBRANCH  16  17
TORSDOF 6
ENDMDL
MODEL 10
REMARK VINA RESULT:      -5.6     28.086     29.765
REMARK  Name = 45783719
REMARK  7 active torsions:
REMARK  status: ('A' for Active; 'I' for Inactive)
REMARK    1  A    between atoms: O_2  and  C_26
REMARK    2  A    between atoms: O_2  and  C_27
REMARK    3  A    between atoms: N_9  and  C_24
REMARK    4  A    between atoms: N_9  and  C_25
REMARK    5  A    between atoms: C_10  and  C_14
REMARK    6  A    between atoms: C_16  and  C_17
REMARK    7  A    between atoms: C_25  and  C_26
REMARK                            x       y       z     vdW  Elec       q    Type
REMARK                         _______ _______ _______ _____ _____    ______ ____
ROOT
ATOM      1  O   UNL     1      -5.102 -12.059  15.679  0.00  0.00    -0.336 OA
ATOM      4  N   UNL     1      -5.195  -9.911  15.053  0.00  0.00    -0.190 NA
ATOM      7  N   UNL     1      -4.994 -12.055  14.283  0.00  0.00    -0.056 NA
ATOM     14  C   UNL     1      -5.217 -10.757  16.051  0.00  0.00    +0.248 A 
ATOM     16  C   UNL     1      -5.056 -10.753  13.988  0.00  0.00    +0.204 A 
ENDROOT
BRANCH  14  10
ATOM      3  N   UNL     1      -6.625 -10.948  18.113  0.00  0.00    -0.288 N 
ATOM      5  N   UNL     1      -7.860  -9.239  17.141  0.00  0.00    -0.223 NA
ATOM      6  N   UNL     1      -8.852 -10.747  18.739  0.00  0.00    -0.223 NA
ATOM     10  C   UNL     1      -5.350 -10.488  17.540  0.00  0.00    +0.165 C 
ATOM     11  C   UNL     1      -4.295 -11.257  18.356  0.00  0.00    +0.034 C 
ATOM     12  C   UNL     1      -5.000 -12.547  18.744  0.00  0.00    +0.021 C 
ATOM     13  C   UNL     1      -6.436 -12.100  18.998  0.00  0.00    +0.109 C 
ATOM     15  C   UNL     1      -7.832 -10.282  17.992  0.00  0.00    +0.218 A 
ATOM     18  C   UNL     1      -9.052  -8.613  17.048  0.00  0.00    +0.116 A 
ATOM     19  C   UNL     1     -10.014 -10.074  18.596  0.00  0.00    +0.116 A 
ATOM     20  C   UNL     1     -10.174  -8.990  17.758  0.00  0.00    +0.039 A 
ENDBRANCH  14  10
BRANCH  16  17
ATOM      8  N   UNL     1      -5.931  -8.887  10.894  0.00  0.00    -0.240 NA
ATOM     17  C   UNL     1      -4.985 -10.261  12.643  0.00  0.00    +0.041 A 
ATOM     21  C   UNL     1      -3.955 -10.647  11.793  0.00  0.00    +0.016 A 
ATOM     22  C   UNL     1      -5.940  -9.388  12.150  0.00  0.00    +0.124 A 
ATOM     23  C   UNL     1      -3.912 -10.153  10.493  0.00  0.00    +0.044 A 
ATOM     24  C   UNL     1      -4.915  -9.284  10.096  0.00  0.00    +0.119 A 
BRANCH  24   9
ATOM      9  N   UNL     1      -4.857  -8.790   8.770  0.00  0.00    -0.327 N 
ATOM     28  H   UNL     1      -4.551  -7.830   8.658  0.00  0.00    +0.148 HD
BRANCH   9  25
ATOM     25  C   UNL     1      -5.208  -9.582   7.636  0.00  0.00    +0.131 C 
BRANCH  25  26
ATOM     26  C   UNL     1      -6.687  -9.424   7.329  0.00  0.00    +0.178 C 
BRANCH  26   2
ATOM      2  O   UNL     1      -6.915  -9.691   5.950  0.00  0.00    -0.381 OA
ATOM     27  C   UNL     1      -7.079  -8.490   5.209  0.00  0.00    +0.194 C 
ENDBRANCH  26   2
ENDBRANCH  25  26
ENDBRANCH   9  25
ENDBRANCH  24   9
ENDBRANCH  16  17
TORSDOF 6
ENDMDL
