REMARK  Name = 11885997
REMARK  6 active torsions:
REMARK  status: ('A' for Active; 'I' for Inactive)
REMARK    1  A    between atoms: S_1  and  C_24
REMARK    2  A    between atoms: S_1  and  C_25
REMARK    3  A    between atoms: O_4  and  C_14
REMARK    4  A    between atoms: O_4  and  C_23
REMARK    5  A    between atoms: N_6  and  C_13
REMARK    6  A    between atoms: N_7  and  C_17
REMARK                            x       y       z     vdW  Elec       q    Type
REMARK                         _______ _______ _______ _____ _____    ______ ____
ROOT
ATOM      2  O   UNL     1      -1.209   0.079   1.004  0.00  0.00    -0.368 OA
ATOM      3  O   UNL     1       0.190  -2.643   0.565  0.00  0.00    -0.368 OA
ATOM     11  C   UNL     1       0.451  -1.322   0.040  0.00  0.00    +0.177 C 
ATOM     12  C   UNL     1      -0.897  -0.666  -0.184  0.00  0.00    +0.192 C 
ATOM     13  C   UNL     1       1.114  -0.474   1.108  0.00  0.00    +0.168 C 
ATOM     14  C   UNL     1      -1.819  -1.850  -0.358  0.00  0.00    +0.235 C 
ATOM     15  C   UNL     1      -0.076   0.079   1.885  0.00  0.00    +0.190 C 
ATOM     16  C   UNL     1      -1.228  -2.856   0.602  0.00  0.00    +0.207 C 
ENDROOT
BRANCH  13   6
ATOM      6  N   UNL     1       2.018   0.532   0.544  0.00  0.00    -0.212 N 
ATOM      8  N   UNL     1       1.548   1.733   0.190  0.00  0.00    -0.043 NA
ATOM      9  N   UNL     1       3.737   1.603  -0.215  0.00  0.00    -0.101 NA
ATOM     10  N   UNL     1       2.607   2.386  -0.275  0.00  0.00    -0.022 NA
ATOM     24  C   UNL     1       3.348   0.458   0.297  0.00  0.00    +0.214 A 
BRANCH  24   1
ATOM      1  S   UNL     1       4.312  -0.929   0.620  0.00  0.00    -0.049 S 
BRANCH   1  25
ATOM     25  C   UNL     1       5.906  -0.321   0.063  0.00  0.00    +0.016 A 
ATOM     26  C   UNL     1       6.743   0.329   0.961  0.00  0.00    +0.015 A 
ATOM     27  C   UNL     1       6.287  -0.507  -1.260  0.00  0.00    +0.015 A 
ATOM     28  C   UNL     1       7.982   0.801   0.528  0.00  0.00    +0.001 A 
ATOM     29  C   UNL     1       7.526  -0.035  -1.692  0.00  0.00    +0.001 A 
ATOM     30  C   UNL     1       8.373   0.619  -0.799  0.00  0.00    +0.000 A 
ENDBRANCH   1  25
ENDBRANCH  24   1
ENDBRANCH  13   6
BRANCH  14   4
ATOM      4  O   UNL     1      -3.167  -1.563  -0.065  0.00  0.00    -0.442 OA
BRANCH   4  23
ATOM      5  O   UNL     1      -3.211  -0.049  -1.791  0.00  0.00    -0.226 OA
ATOM      7  N   UNL     1      -5.073  -0.448  -0.467  0.00  0.00    -0.278 N 
ATOM     23  C   UNL     1      -3.765  -0.630  -0.864  0.00  0.00    +0.401 C 
ATOM     31  H   UNL     1      -5.390  -0.964   0.348  0.00  0.00    +0.152 HD
BRANCH   7  17
ATOM     17  C   UNL     1      -5.986   0.473  -1.107  0.00  0.00    +0.076 C 
ATOM     18  C   UNL     1      -7.425  -0.050  -1.052  0.00  0.00    +0.022 C 
ATOM     19  C   UNL     1      -5.879   1.872  -0.490  0.00  0.00    +0.022 C 
ATOM     20  C   UNL     1      -8.019   0.020   0.355  0.00  0.00    +0.002 C 
ATOM     21  C   UNL     1      -6.476   1.938   0.916  0.00  0.00    +0.002 C 
ATOM     22  C   UNL     1      -7.912   1.423   0.943  0.00  0.00    +0.000 C 
ENDBRANCH   7  17
ENDBRANCH   4  23
ENDBRANCH  14   4
TORSDOF 6
