REMARK  Name = 26743404
REMARK  8 active torsions:
REMARK  status: ('A' for Active; 'I' for Inactive)
REMARK    1  A    between atoms: O_2  and  C_28
REMARK    2  A    between atoms: O_2  and  C_29
REMARK    3  A    between atoms: N_3  and  C_8
REMARK    4  A    between atoms: N_4  and  C_17
REMARK    5  A    between atoms: C_6  and  C_9
REMARK    6  A    between atoms: C_12  and  C_14
REMARK    7  A    between atoms: C_13  and  C_15
REMARK    8  A    between atoms: C_16  and  C_18
REMARK                            x       y       z     vdW  Elec       q    Type
REMARK                         _______ _______ _______ _____ _____    ______ ____
ROOT
ATOM      6  C   UNL     1       0.665   0.581   0.713  0.00  0.00    +0.047 C 
ATOM      7  C   UNL     1      -0.034  -0.517  -0.112  0.00  0.00    +0.039 C 
ATOM      8  C   UNL     1      -0.995  -1.232   0.853  0.00  0.00    +0.097 C 
ATOM     10  C   UNL     1       0.503   0.076   2.116  0.00  0.00    -0.021 C 
ATOM     11  C   UNL     1      -0.405  -0.903   2.189  0.00  0.00    -0.009 C 
ENDROOT
BRANCH   6   9
ATOM      4  N   UNL     1       4.218   0.615  -0.176  0.00  0.00    -0.236 N 
ATOM      5  N   UNL     1       3.961   1.900  -0.473  0.00  0.00    -0.171 NA
ATOM      9  C   UNL     1       2.095   0.827   0.291  0.00  0.00    +0.003 A 
ATOM     12  C   UNL     1       3.134  -0.072   0.285  0.00  0.00    +0.046 A 
ATOM     13  C   UNL     1       2.662   2.024  -0.186  0.00  0.00    +0.064 A 
ATOM     14  C   UNL     1       3.181  -1.497   0.672  0.00  0.00    +0.066 C 
ATOM     15  C   UNL     1       1.996   3.323  -0.387  0.00  0.00    +0.068 C 
BRANCH   4  17
ATOM     17  C   UNL     1       5.506   0.109  -0.353  0.00  0.00    +0.066 A 
ATOM     19  C   UNL     1       5.722  -0.960  -1.224  0.00  0.00    +0.028 A 
ATOM     20  C   UNL     1       6.578   0.671   0.340  0.00  0.00    +0.028 A 
ATOM     23  C   UNL     1       7.010  -1.465  -1.401  0.00  0.00    +0.002 A 
ATOM     24  C   UNL     1       7.866   0.166   0.162  0.00  0.00    +0.002 A 
ATOM     25  C   UNL     1       8.082  -0.902  -0.709  0.00  0.00    +0.000 A 
ENDBRANCH   4  17
ENDBRANCH   6   9
BRANCH   8   3
ATOM      1  O   UNL     1      -3.105  -2.314  -0.790  0.00  0.00    -0.270 OA
ATOM      3  N   UNL     1      -2.360  -0.732   0.735  0.00  0.00    -0.305 N 
ATOM     16  C   UNL     1      -3.310  -1.326  -0.089  0.00  0.00    +0.245 C 
ATOM     30  H   UNL     1      -2.574   0.135   1.217  0.00  0.00    +0.150 HD
BRANCH  16  18
ATOM     18  C   UNL     1      -4.648  -0.681  -0.117  0.00  0.00    +0.037 A 
ATOM     21  C   UNL     1      -5.456  -0.803  -1.248  0.00  0.00    +0.016 A 
ATOM     22  C   UNL     1      -5.096   0.046   0.985  0.00  0.00    +0.016 A 
ATOM     26  C   UNL     1      -6.713  -0.197  -1.276  0.00  0.00    +0.046 A 
ATOM     27  C   UNL     1      -6.352   0.652   0.958  0.00  0.00    +0.046 A 
ATOM     28  C   UNL     1      -7.160   0.530  -0.173  0.00  0.00    +0.120 A 
BRANCH  28   2
ATOM      2  O   UNL     1      -8.386   1.122  -0.199  0.00  0.00    -0.495 OA
ATOM     29  C   UNL     1      -9.160   0.958  -1.387  0.00  0.00    +0.277 C 
ENDBRANCH  28   2
ENDBRANCH  16  18
ENDBRANCH   8   3
TORSDOF 5
