REMARK  Name = 26743050
REMARK  7 active torsions:
REMARK  status: ('A' for Active; 'I' for Inactive)
REMARK    1  A    between atoms: O_3  and  C_25
REMARK    2  A    between atoms: O_3  and  C_30
REMARK    3  A    between atoms: C_9  and  C_13
REMARK    4  A    between atoms: C_10  and  C_15
REMARK    5  A    between atoms: C_13  and  C_16
REMARK    6  A    between atoms: C_15  and  C_17
REMARK    7  A    between atoms: C_24  and  C_25
REMARK                            x       y       z     vdW  Elec       q    Type
REMARK                         _______ _______ _______ _____ _____    ______ ____
ROOT
ATOM      4  N   UNL     1       2.857   2.546  -1.965  0.00  0.00    -0.316 NA
ATOM      9  C   UNL     1       1.363   1.767   0.458  0.00  0.00    +0.004 C 
ATOM     10  C   UNL     1       2.688   1.087   0.038  0.00  0.00    +0.012 C 
ATOM     11  C   UNL     1       1.311   3.180  -0.146  0.00  0.00    +0.019 C 
ATOM     12  C   UNL     1       2.909   1.165  -1.482  0.00  0.00    +0.085 C 
ATOM     14  C   UNL     1       1.580   3.183  -1.650  0.00  0.00    +0.081 C 
ATOM     31  H   UNL     1       2.998   2.556  -2.975  0.00  0.00    +0.122 HD
ENDROOT
BRANCH   9  13
ATOM     13  C   UNL     1       0.108   0.969   0.087  0.00  0.00    +0.100 C 
BRANCH  13  16
ATOM      1  O   UNL     1      -0.888   2.278   1.800  0.00  0.00    -0.276 OA
ATOM      5  N   UNL     1      -2.273   0.770   0.701  0.00  0.00    -0.298 N 
ATOM      6  N   UNL     1      -4.892  -0.328   0.139  0.00  0.00    -0.312 N 
ATOM      8  N   UNL     1      -6.362  -2.165  -0.065  0.00  0.00    -0.240 NA
ATOM     16  C   UNL     1      -1.055   1.406   0.944  0.00  0.00    +0.216 C 
ATOM     18  C   UNL     1      -3.446   1.134   1.493  0.00  0.00    +0.126 C 
ATOM     19  C   UNL     1      -2.473  -0.258  -0.323  0.00  0.00    +0.126 C 
ATOM     20  C   UNL     1      -4.737   1.024   0.685  0.00  0.00    +0.125 C 
ATOM     21  C   UNL     1      -3.688  -1.142  -0.046  0.00  0.00    +0.125 C 
ATOM     23  C   UNL     1      -6.155  -0.832  -0.161  0.00  0.00    +0.121 A 
ATOM     26  C   UNL     1      -7.128   0.078  -0.543  0.00  0.00    +0.043 A 
ATOM     27  C   UNL     1      -8.394  -0.411  -0.845  0.00  0.00    +0.005 A 
ATOM     28  C   UNL     1      -7.604  -2.603  -0.367  0.00  0.00    +0.113 A 
ATOM     29  C   UNL     1      -8.645  -1.776  -0.758  0.00  0.00    +0.020 A 
ENDBRANCH  13  16
ENDBRANCH   9  13
BRANCH  10  15
ATOM     15  C   UNL     1       2.800  -0.359   0.523  0.00  0.00    +0.064 C 
BRANCH  15  17
ATOM      2  O   UNL     1       6.195  -1.148   1.424  0.00  0.00    -0.357 OA
ATOM      7  N   UNL     1       4.937  -0.631   1.706  0.00  0.00    -0.083 NA
ATOM     17  C   UNL     1       4.232  -0.806   0.584  0.00  0.00    +0.084 A 
ATOM     22  C   UNL     1       4.986  -1.422  -0.429  0.00  0.00    +0.073 A 
ATOM     24  C   UNL     1       6.212  -1.616   0.149  0.00  0.00    +0.163 A 
BRANCH  24  25
ATOM     25  C   UNL     1       7.475  -2.202  -0.317  0.00  0.00    +0.236 C 
BRANCH  25   3
ATOM      3  O   UNL     1       8.429  -1.171  -0.590  0.00  0.00    -0.375 OA
ATOM     30  C   UNL     1       9.657  -1.716  -1.042  0.00  0.00    +0.194 C 
ENDBRANCH  25   3
ENDBRANCH  24  25
ENDBRANCH  15  17
ENDBRANCH  10  15
TORSDOF 6
