MODEL 1
REMARK VINA RESULT:      -7.2      0.000      0.000
REMARK  Name = 26743404
REMARK  8 active torsions:
REMARK  status: ('A' for Active; 'I' for Inactive)
REMARK    1  A    between atoms: O_2  and  C_28
REMARK    2  A    between atoms: O_2  and  C_29
REMARK    3  A    between atoms: N_3  and  C_8
REMARK    4  A    between atoms: N_4  and  C_17
REMARK    5  A    between atoms: C_6  and  C_9
REMARK    6  A    between atoms: C_12  and  C_14
REMARK    7  A    between atoms: C_13  and  C_15
REMARK    8  A    between atoms: C_16  and  C_18
REMARK                            x       y       z     vdW  Elec       q    Type
REMARK                         _______ _______ _______ _____ _____    ______ ____
ROOT
ATOM      6  C   UNL     1      14.381   9.150  21.297  0.00  0.00    +0.047 C 
ATOM      7  C   UNL     1      14.510   7.686  21.761  0.00  0.00    +0.039 C 
ATOM      8  C   UNL     1      15.166   6.924  20.597  0.00  0.00    +0.097 C 
ATOM     10  C   UNL     1      14.429   9.016  19.804  0.00  0.00    -0.021 C 
ATOM     11  C   UNL     1      14.863   7.808  19.428  0.00  0.00    -0.009 C 
ENDROOT
BRANCH   6   9
ATOM      4  N   UNL     1      11.762  11.230  22.788  0.00  0.00    -0.236 N 
ATOM      5  N   UNL     1      10.955  10.270  22.305  0.00  0.00    -0.171 NA
ATOM      9  C   UNL     1      13.148   9.841  21.830  0.00  0.00    +0.003 A 
ATOM     12  C   UNL     1      13.084  11.021  22.530  0.00  0.00    +0.046 A 
ATOM     13  C   UNL     1      11.808   9.423  21.721  0.00  0.00    +0.064 A 
ATOM     14  C   UNL     1      14.151  11.946  22.964  0.00  0.00    +0.066 C 
ATOM     15  C   UNL     1      11.289   8.213  21.060  0.00  0.00    +0.068 C 
BRANCH   4  17
ATOM     17  C   UNL     1      11.213  12.310  23.480  0.00  0.00    +0.066 A 
ATOM     19  C   UNL     1      10.742  13.422  22.778  0.00  0.00    +0.028 A 
ATOM     20  C   UNL     1      11.133  12.280  24.872  0.00  0.00    +0.028 A 
ATOM     23  C   UNL     1      10.193  14.501  23.470  0.00  0.00    +0.002 A 
ATOM     24  C   UNL     1      10.583  13.360  25.563  0.00  0.00    +0.002 A 
ATOM     25  C   UNL     1      10.113  14.470  24.862  0.00  0.00    +0.000 A 
ENDBRANCH   4  17
ENDBRANCH   6   9
BRANCH   8   3
ATOM      1  O   UNL     1      17.007   5.526  18.871  0.00  0.00    -0.270 OA
ATOM      3  N   UNL     1      16.604   6.767  20.789  0.00  0.00    -0.305 N 
ATOM     16  C   UNL     1      17.410   6.071  19.895  0.00  0.00    +0.245 C 
ATOM     30  H   UNL     1      16.991   7.115  21.660  0.00  0.00    +0.150 HD
BRANCH  16  18
ATOM     18  C   UNL     1      18.851   5.980  20.247  0.00  0.00    +0.037 A 
ATOM     21  C   UNL     1      19.536   4.778  20.067  0.00  0.00    +0.016 A 
ATOM     22  C   UNL     1      19.517   7.094  20.756  0.00  0.00    +0.016 A 
ATOM     26  C   UNL     1      20.890   4.691  20.397  0.00  0.00    +0.046 A 
ATOM     27  C   UNL     1      20.869   7.008  21.086  0.00  0.00    +0.046 A 
ATOM     28  C   UNL     1      21.555   5.806  20.907  0.00  0.00    +0.120 A 
BRANCH  28   2
ATOM      2  O   UNL     1      22.875   5.722  21.230  0.00  0.00    -0.495 OA
ATOM     29  C   UNL     1      23.678   4.833  20.453  0.00  0.00    +0.277 C 
ENDBRANCH  28   2
ENDBRANCH  16  18
ENDBRANCH   8   3
TORSDOF 5
ENDMDL
MODEL 2
REMARK VINA RESULT:      -6.7     27.131     30.742
REMARK  Name = 26743404
REMARK  8 active torsions:
REMARK  status: ('A' for Active; 'I' for Inactive)
REMARK    1  A    between atoms: O_2  and  C_28
REMARK    2  A    between atoms: O_2  and  C_29
REMARK    3  A    between atoms: N_3  and  C_8
REMARK    4  A    between atoms: N_4  and  C_17
REMARK    5  A    between atoms: C_6  and  C_9
REMARK    6  A    between atoms: C_12  and  C_14
REMARK    7  A    between atoms: C_13  and  C_15
REMARK    8  A    between atoms: C_16  and  C_18
REMARK                            x       y       z     vdW  Elec       q    Type
REMARK                         _______ _______ _______ _____ _____    ______ ____
ROOT
ATOM      6  C   UNL     1     -13.413   7.870  32.234  0.00  0.00    +0.047 C 
ATOM      7  C   UNL     1     -13.471   6.788  33.330  0.00  0.00    +0.039 C 
ATOM      8  C   UNL     1     -14.860   6.136  33.217  0.00  0.00    +0.097 C 
ATOM     10  C   UNL     1     -14.866   8.140  31.977  0.00  0.00    -0.021 C 
ATOM     11  C   UNL     1     -15.648   7.192  32.506  0.00  0.00    -0.009 C 
ENDROOT
BRANCH   6   9
ATOM      4  N   UNL     1     -11.271  10.812  32.646  0.00  0.00    -0.236 N 
ATOM      5  N   UNL     1     -11.732  10.765  33.907  0.00  0.00    -0.171 NA
ATOM      9  C   UNL     1     -12.606   9.083  32.633  0.00  0.00    +0.003 A 
ATOM     12  C   UNL     1     -11.764   9.827  31.842  0.00  0.00    +0.046 A 
ATOM     13  C   UNL     1     -12.548   9.707  33.893  0.00  0.00    +0.064 A 
ATOM     14  C   UNL     1     -11.398   9.683  30.418  0.00  0.00    +0.066 C 
ATOM     15  C   UNL     1     -13.261   9.325  35.125  0.00  0.00    +0.068 C 
BRANCH   4  17
ATOM     17  C   UNL     1     -10.372  11.812  32.275  0.00  0.00    +0.066 A 
ATOM     19  C   UNL     1      -9.004  11.632  32.484  0.00  0.00    +0.028 A 
ATOM     20  C   UNL     1     -10.839  12.991  31.696  0.00  0.00    +0.028 A 
ATOM     23  C   UNL     1      -8.105  12.631  32.113  0.00  0.00    +0.002 A 
ATOM     24  C   UNL     1      -9.939  13.991  31.325  0.00  0.00    +0.002 A 
ATOM     25  C   UNL     1      -8.572  13.810  31.533  0.00  0.00    +0.000 A 
ENDBRANCH   4  17
ENDBRANCH   6   9
BRANCH   8   3
ATOM      1  O   UNL     1     -14.337   3.488  34.234  0.00  0.00    -0.270 OA
ATOM      3  N   UNL     1     -14.820   4.895  32.453  0.00  0.00    -0.305 N 
ATOM     16  C   UNL     1     -14.558   3.660  33.037  0.00  0.00    +0.245 C 
ATOM     30  H   UNL     1     -14.904   4.974  31.445  0.00  0.00    +0.150 HD
BRANCH  16  18
ATOM     18  C   UNL     1     -14.527   2.494  32.118  0.00  0.00    +0.037 A 
ATOM     21  C   UNL     1     -14.127   2.663  30.792  0.00  0.00    +0.016 A 
ATOM     22  C   UNL     1     -14.898   1.231  32.579  0.00  0.00    +0.016 A 
ATOM     26  C   UNL     1     -14.099   1.568  29.927  0.00  0.00    +0.046 A 
ATOM     27  C   UNL     1     -14.870   0.137  31.715  0.00  0.00    +0.046 A 
ATOM     28  C   UNL     1     -14.470   0.306  30.389  0.00  0.00    +0.120 A 
BRANCH  28   2
ATOM      2  O   UNL     1     -14.443  -0.763  29.546  0.00  0.00    -0.495 OA
ATOM     29  C   UNL     1     -13.159  -1.258  29.167  0.00  0.00    +0.277 C 
ENDBRANCH  28   2
ENDBRANCH  16  18
ENDBRANCH   8   3
TORSDOF 5
ENDMDL
MODEL 3
REMARK VINA RESULT:      -6.7      4.636     10.781
REMARK  Name = 26743404
REMARK  8 active torsions:
REMARK  status: ('A' for Active; 'I' for Inactive)
REMARK    1  A    between atoms: O_2  and  C_28
REMARK    2  A    between atoms: O_2  and  C_29
REMARK    3  A    between atoms: N_3  and  C_8
REMARK    4  A    between atoms: N_4  and  C_17
REMARK    5  A    between atoms: C_6  and  C_9
REMARK    6  A    between atoms: C_12  and  C_14
REMARK    7  A    between atoms: C_13  and  C_15
REMARK    8  A    between atoms: C_16  and  C_18
REMARK                            x       y       z     vdW  Elec       q    Type
REMARK                         _______ _______ _______ _____ _____    ______ ____
ROOT
ATOM      6  C   UNL     1      19.640   7.186  21.315  0.00  0.00    +0.047 C 
ATOM      7  C   UNL     1      18.200   7.196  21.864  0.00  0.00    +0.039 C 
ATOM      8  C   UNL     1      17.664   8.620  21.635  0.00  0.00    +0.097 C 
ATOM     10  C   UNL     1      20.002   8.641  21.344  0.00  0.00    -0.021 C 
ATOM     11  C   UNL     1      18.925   9.417  21.510  0.00  0.00    -0.009 C 
ENDROOT
BRANCH   6   9
ATOM      4  N   UNL     1      21.902   4.675  22.726  0.00  0.00    -0.236 N 
ATOM      5  N   UNL     1      21.858   5.480  23.801  0.00  0.00    -0.171 NA
ATOM      9  C   UNL     1      20.571   6.287  22.095  0.00  0.00    +0.003 A 
ATOM     12  C   UNL     1      21.149   5.113  21.677  0.00  0.00    +0.046 A 
ATOM     13  C   UNL     1      21.044   6.464  23.410  0.00  0.00    +0.064 A 
ATOM     14  C   UNL     1      21.048   4.390  20.393  0.00  0.00    +0.066 C 
ATOM     15  C   UNL     1      20.742   7.568  24.338  0.00  0.00    +0.068 C 
BRANCH   4  17
ATOM     17  C   UNL     1      22.674   3.513  22.764  0.00  0.00    +0.066 A 
ATOM     19  C   UNL     1      22.579   2.647  23.854  0.00  0.00    +0.028 A 
ATOM     20  C   UNL     1      23.541   3.217  21.712  0.00  0.00    +0.028 A 
ATOM     23  C   UNL     1      23.351   1.486  23.891  0.00  0.00    +0.002 A 
ATOM     24  C   UNL     1      24.312   2.055  21.749  0.00  0.00    +0.002 A 
ATOM     25  C   UNL     1      24.216   1.190  22.839  0.00  0.00    +0.000 A 
ENDBRANCH   4  17
ENDBRANCH   6   9
BRANCH   8   3
ATOM      1  O   UNL     1      14.795   8.382  21.443  0.00  0.00    -0.270 OA
ATOM      3  N   UNL     1      16.854   8.710  20.425  0.00  0.00    -0.305 N 
ATOM     16  C   UNL     1      15.469   8.581  20.436  0.00  0.00    +0.245 C 
ATOM     30  H   UNL     1      17.352   8.784  19.544  0.00  0.00    +0.150 HD
BRANCH  16  18
ATOM     18  C   UNL     1      14.793   8.673  19.116  0.00  0.00    +0.037 A 
ATOM     21  C   UNL     1      14.289   9.897  18.675  0.00  0.00    +0.016 A 
ATOM     22  C   UNL     1      14.660   7.537  18.319  0.00  0.00    +0.016 A 
ATOM     26  C   UNL     1      13.653   9.984  17.436  0.00  0.00    +0.046 A 
ATOM     27  C   UNL     1      14.025   7.623  17.081  0.00  0.00    +0.046 A 
ATOM     28  C   UNL     1      13.521   8.847  16.640  0.00  0.00    +0.120 A 
BRANCH  28   2
ATOM      2  O   UNL     1      12.900   8.931  15.431  0.00  0.00    -0.495 OA
ATOM     29  C   UNL     1      11.547   9.385  15.427  0.00  0.00    +0.277 C 
ENDBRANCH  28   2
ENDBRANCH  16  18
ENDBRANCH   8   3
TORSDOF 5
ENDMDL
MODEL 4
REMARK VINA RESULT:      -6.6     28.776     30.823
REMARK  Name = 26743404
REMARK  8 active torsions:
REMARK  status: ('A' for Active; 'I' for Inactive)
REMARK    1  A    between atoms: O_2  and  C_28
REMARK    2  A    between atoms: O_2  and  C_29
REMARK    3  A    between atoms: N_3  and  C_8
REMARK    4  A    between atoms: N_4  and  C_17
REMARK    5  A    between atoms: C_6  and  C_9
REMARK    6  A    between atoms: C_12  and  C_14
REMARK    7  A    between atoms: C_13  and  C_15
REMARK    8  A    between atoms: C_16  and  C_18
REMARK                            x       y       z     vdW  Elec       q    Type
REMARK                         _______ _______ _______ _____ _____    ______ ____
ROOT
ATOM      6  C   UNL     1      -6.675 -11.486  16.524  0.00  0.00    +0.047 C 
ATOM      7  C   UNL     1      -6.021 -10.167  16.070  0.00  0.00    +0.039 C 
ATOM      8  C   UNL     1      -4.666 -10.551  15.452  0.00  0.00    +0.097 C 
ATOM     10  C   UNL     1      -5.492 -12.398  16.657  0.00  0.00    -0.021 C 
ATOM     11  C   UNL     1      -4.405 -11.891  16.067  0.00  0.00    -0.009 C 
ENDROOT
BRANCH   6   9
ATOM      4  N   UNL     1      -9.150 -11.216  19.210  0.00  0.00    -0.236 N 
ATOM      5  N   UNL     1      -8.058 -11.039  19.973  0.00  0.00    -0.171 NA
ATOM      9  C   UNL     1      -7.507 -11.341  17.777  0.00  0.00    +0.003 A 
ATOM     12  C   UNL     1      -8.875 -11.402  17.888  0.00  0.00    +0.046 A 
ATOM     13  C   UNL     1      -7.057 -11.116  19.092  0.00  0.00    +0.064 A 
ATOM     14  C   UNL     1      -9.918 -11.618  16.864  0.00  0.00    +0.066 C 
ATOM     15  C   UNL     1      -5.667 -10.968  19.559  0.00  0.00    +0.068 C 
BRANCH   4  17
ATOM     17  C   UNL     1     -10.415 -11.198  19.799  0.00  0.00    +0.066 A 
ATOM     19  C   UNL     1     -11.132 -10.004  19.873  0.00  0.00    +0.028 A 
ATOM     20  C   UNL     1     -10.962 -12.373  20.314  0.00  0.00    +0.028 A 
ATOM     23  C   UNL     1     -12.397  -9.986  20.461  0.00  0.00    +0.002 A 
ATOM     24  C   UNL     1     -12.227 -12.355  20.901  0.00  0.00    +0.002 A 
ATOM     25  C   UNL     1     -12.945 -11.162  20.975  0.00  0.00    +0.000 A 
ENDBRANCH   4  17
ENDBRANCH   6   9
BRANCH   8   3
ATOM      1  O   UNL     1      -2.458 -10.420  13.599  0.00  0.00    -0.270 OA
ATOM      3  N   UNL     1      -4.733 -10.637  13.997  0.00  0.00    -0.305 N 
ATOM     16  C   UNL     1      -3.606 -10.563  13.186  0.00  0.00    +0.245 C 
ATOM     30  H   UNL     1      -5.659 -10.664  13.582  0.00  0.00    +0.150 HD
BRANCH  16  18
ATOM     18  C   UNL     1      -3.846 -10.641  11.722  0.00  0.00    +0.037 A 
ATOM     21  C   UNL     1      -3.941 -11.885  11.098  0.00  0.00    +0.016 A 
ATOM     22  C   UNL     1      -3.976  -9.472  10.972  0.00  0.00    +0.016 A 
ATOM     26  C   UNL     1      -4.166 -11.960   9.722  0.00  0.00    +0.046 A 
ATOM     27  C   UNL     1      -4.201  -9.546   9.598  0.00  0.00    +0.046 A 
ATOM     28  C   UNL     1      -4.296 -10.790   8.973  0.00  0.00    +0.120 A 
BRANCH  28   2
ATOM      2  O   UNL     1      -4.515 -10.862   7.631  0.00  0.00    -0.495 OA
ATOM     29  C   UNL     1      -5.537 -10.022   7.096  0.00  0.00    +0.277 C 
ENDBRANCH  28   2
ENDBRANCH  16  18
ENDBRANCH   8   3
TORSDOF 5
ENDMDL
MODEL 5
REMARK VINA RESULT:      -6.6      3.017     10.259
REMARK  Name = 26743404
REMARK  8 active torsions:
REMARK  status: ('A' for Active; 'I' for Inactive)
REMARK    1  A    between atoms: O_2  and  C_28
REMARK    2  A    between atoms: O_2  and  C_29
REMARK    3  A    between atoms: N_3  and  C_8
REMARK    4  A    between atoms: N_4  and  C_17
REMARK    5  A    between atoms: C_6  and  C_9
REMARK    6  A    between atoms: C_12  and  C_14
REMARK    7  A    between atoms: C_13  and  C_15
REMARK    8  A    between atoms: C_16  and  C_18
REMARK                            x       y       z     vdW  Elec       q    Type
REMARK                         _______ _______ _______ _____ _____    ______ ____
ROOT
ATOM      6  C   UNL     1      16.436   7.543  21.118  0.00  0.00    +0.047 C 
ATOM      7  C   UNL     1      15.911   8.531  20.059  0.00  0.00    +0.039 C 
ATOM      8  C   UNL     1      14.382   8.365  20.037  0.00  0.00    +0.097 C 
ATOM     10  C   UNL     1      15.320   6.544  21.201  0.00  0.00    -0.021 C 
ATOM     11  C   UNL     1      14.205   6.997  20.620  0.00  0.00    -0.009 C 
ENDROOT
BRANCH   6   9
ATOM      4  N   UNL     1      19.904   6.426  20.737  0.00  0.00    -0.236 N 
ATOM      5  N   UNL     1      19.394   5.741  19.699  0.00  0.00    -0.171 NA
ATOM      9  C   UNL     1      17.785   6.956  20.772  0.00  0.00    +0.003 A 
ATOM     12  C   UNL     1      18.981   7.169  21.413  0.00  0.00    +0.046 A 
ATOM     13  C   UNL     1      18.099   6.069  19.726  0.00  0.00    +0.064 A 
ATOM     14  C   UNL     1      19.313   8.001  22.588  0.00  0.00    +0.066 C 
ATOM     15  C   UNL     1      17.187   5.500  18.717  0.00  0.00    +0.068 C 
BRANCH   4  17
ATOM     17  C   UNL     1      21.265   6.329  21.028  0.00  0.00    +0.066 A 
ATOM     19  C   UNL     1      21.713   5.397  21.965  0.00  0.00    +0.028 A 
ATOM     20  C   UNL     1      22.177   7.163  20.383  0.00  0.00    +0.028 A 
ATOM     23  C   UNL     1      23.074   5.300  22.255  0.00  0.00    +0.002 A 
ATOM     24  C   UNL     1      23.538   7.066  20.672  0.00  0.00    +0.002 A 
ATOM     25  C   UNL     1      23.987   6.134  21.609  0.00  0.00    +0.000 A 
ENDBRANCH   4  17
ENDBRANCH   6   9
BRANCH   8   3
ATOM      1  O   UNL     1      11.588   9.077  19.955  0.00  0.00    -0.270 OA
ATOM      3  N   UNL     1      13.711   9.379  20.842  0.00  0.00    -0.305 N 
ATOM     16  C   UNL     1      12.352   9.651  20.728  0.00  0.00    +0.245 C 
ATOM     30  H   UNL     1      14.298   9.954  21.438  0.00  0.00    +0.150 HD
BRANCH  16  18
ATOM     18  C   UNL     1      11.825  10.731  21.601  0.00  0.00    +0.037 A 
ATOM     21  C   UNL     1      11.286  10.417  22.850  0.00  0.00    +0.016 A 
ATOM     22  C   UNL     1      11.867  12.058  21.174  0.00  0.00    +0.016 A 
ATOM     26  C   UNL     1      10.790  11.431  23.670  0.00  0.00    +0.046 A 
ATOM     27  C   UNL     1      11.371  13.072  21.993  0.00  0.00    +0.046 A 
ATOM     28  C   UNL     1      10.833  12.758  23.241  0.00  0.00    +0.120 A 
BRANCH  28   2
ATOM      2  O   UNL     1      10.349  13.748  24.041  0.00  0.00    -0.495 OA
ATOM     29  C   UNL     1       9.469  14.696  23.438  0.00  0.00    +0.277 C 
ENDBRANCH  28   2
ENDBRANCH  16  18
ENDBRANCH   8   3
TORSDOF 5
ENDMDL
MODEL 6
REMARK VINA RESULT:      -6.5     28.142     31.315
REMARK  Name = 26743404
REMARK  8 active torsions:
REMARK  status: ('A' for Active; 'I' for Inactive)
REMARK    1  A    between atoms: O_2  and  C_28
REMARK    2  A    between atoms: O_2  and  C_29
REMARK    3  A    between atoms: N_3  and  C_8
REMARK    4  A    between atoms: N_4  and  C_17
REMARK    5  A    between atoms: C_6  and  C_9
REMARK    6  A    between atoms: C_12  and  C_14
REMARK    7  A    between atoms: C_13  and  C_15
REMARK    8  A    between atoms: C_16  and  C_18
REMARK                            x       y       z     vdW  Elec       q    Type
REMARK                         _______ _______ _______ _____ _____    ______ ____
ROOT
ATOM      6  C   UNL     1      -5.400  -9.670   9.096  0.00  0.00    +0.047 C 
ATOM      7  C   UNL     1      -4.890 -11.011   9.658  0.00  0.00    +0.039 C 
ATOM      8  C   UNL     1      -3.674 -10.673  10.538  0.00  0.00    +0.097 C 
ATOM     10  C   UNL     1      -4.187  -8.796   9.210  0.00  0.00    -0.021 C 
ATOM     11  C   UNL     1      -3.255  -9.340  10.000  0.00  0.00    -0.009 C 
ENDROOT
BRANCH   6   9
ATOM      4  N   UNL     1      -7.160  -9.539   5.887  0.00  0.00    -0.236 N 
ATOM      5  N   UNL     1      -6.254 -10.469   5.540  0.00  0.00    -0.171 NA
ATOM      9  C   UNL     1      -5.969  -9.784   7.701  0.00  0.00    +0.003 A 
ATOM     12  C   UNL     1      -7.032  -9.095   7.170  0.00  0.00    +0.046 A 
ATOM     13  C   UNL     1      -5.528 -10.615   6.653  0.00  0.00    +0.064 A 
ATOM     14  C   UNL     1      -7.917  -8.074   7.767  0.00  0.00    +0.066 C 
ATOM     15  C   UNL     1      -4.408 -11.572   6.667  0.00  0.00    +0.068 C 
BRANCH   4  17
ATOM     17  C   UNL     1      -8.112  -9.121   4.956  0.00  0.00    +0.066 A 
ATOM     19  C   UNL     1      -7.828  -8.058   4.098  0.00  0.00    +0.028 A 
ATOM     20  C   UNL     1      -9.347  -9.765   4.883  0.00  0.00    +0.028 A 
ATOM     23  C   UNL     1      -8.779  -7.640   3.167  0.00  0.00    +0.002 A 
ATOM     24  C   UNL     1     -10.297  -9.348   3.951  0.00  0.00    +0.002 A 
ATOM     25  C   UNL     1     -10.013  -8.286   3.093  0.00  0.00    +0.000 A 
ENDBRANCH   4  17
ENDBRANCH   6   9
BRANCH   8   3
ATOM      1  O   UNL     1      -1.928 -11.100  12.794  0.00  0.00    -0.270 OA
ATOM      3  N   UNL     1      -4.028 -10.591  11.950  0.00  0.00    -0.305 N 
ATOM     16  C   UNL     1      -3.110 -10.815  12.970  0.00  0.00    +0.245 C 
ATOM     30  H   UNL     1      -5.009 -10.448  12.170  0.00  0.00    +0.150 HD
BRANCH  16  18
ATOM     18  C   UNL     1      -3.634 -10.718  14.357  0.00  0.00    +0.037 A 
ATOM     21  C   UNL     1      -2.793 -10.978  15.439  0.00  0.00    +0.016 A 
ATOM     22  C   UNL     1      -4.965 -10.367  14.577  0.00  0.00    +0.016 A 
ATOM     26  C   UNL     1      -3.284 -10.888  16.742  0.00  0.00    +0.046 A 
ATOM     27  C   UNL     1      -5.457 -10.277  15.879  0.00  0.00    +0.046 A 
ATOM     28  C   UNL     1      -4.616 -10.537  16.961  0.00  0.00    +0.120 A 
BRANCH  28   2
ATOM      2  O   UNL     1      -5.097 -10.449  18.232  0.00  0.00    -0.495 OA
ATOM     29  C   UNL     1      -4.976 -11.611  19.053  0.00  0.00    +0.277 C 
ENDBRANCH  28   2
ENDBRANCH  16  18
ENDBRANCH   8   3
TORSDOF 5
ENDMDL
MODEL 7
REMARK VINA RESULT:      -6.4     26.338     31.053
REMARK  Name = 26743404
REMARK  8 active torsions:
REMARK  status: ('A' for Active; 'I' for Inactive)
REMARK    1  A    between atoms: O_2  and  C_28
REMARK    2  A    between atoms: O_2  and  C_29
REMARK    3  A    between atoms: N_3  and  C_8
REMARK    4  A    between atoms: N_4  and  C_17
REMARK    5  A    between atoms: C_6  and  C_9
REMARK    6  A    between atoms: C_12  and  C_14
REMARK    7  A    between atoms: C_13  and  C_15
REMARK    8  A    between atoms: C_16  and  C_18
REMARK                            x       y       z     vdW  Elec       q    Type
REMARK                         _______ _______ _______ _____ _____    ______ ____
ROOT
ATOM      6  C   UNL     1     -13.476   6.622  32.959  0.00  0.00    +0.047 C 
ATOM      7  C   UNL     1     -13.797   7.899  32.158  0.00  0.00    +0.039 C 
ATOM      8  C   UNL     1     -13.527   9.079  33.107  0.00  0.00    +0.097 C 
ATOM     10  C   UNL     1     -13.600   7.096  34.376  0.00  0.00    -0.021 C 
ATOM     11  C   UNL     1     -13.619   8.431  34.453  0.00  0.00    -0.009 C 
ENDROOT
BRANCH   6   9
ATOM      4  N   UNL     1     -15.139   3.527  31.924  0.00  0.00    -0.236 N 
ATOM      5  N   UNL     1     -16.240   4.176  32.339  0.00  0.00    -0.171 NA
ATOM      9  C   UNL     1     -14.365   5.454  32.603  0.00  0.00    +0.003 A 
ATOM     12  C   UNL     1     -13.989   4.248  32.062  0.00  0.00    +0.046 A 
ATOM     13  C   UNL     1     -15.761   5.352  32.753  0.00  0.00    +0.064 A 
ATOM     14  C   UNL     1     -12.659   3.736  31.673  0.00  0.00    +0.066 C 
ATOM     15  C   UNL     1     -16.689   6.363  33.292  0.00  0.00    +0.068 C 
BRANCH   4  17
ATOM     17  C   UNL     1     -15.250   2.234  31.413  0.00  0.00    +0.066 A 
ATOM     19  C   UNL     1     -15.741   2.034  30.122  0.00  0.00    +0.028 A 
ATOM     20  C   UNL     1     -14.869   1.140  32.191  0.00  0.00    +0.028 A 
ATOM     23  C   UNL     1     -15.851   0.741  29.611  0.00  0.00    +0.002 A 
ATOM     24  C   UNL     1     -14.979  -0.153  31.679  0.00  0.00    +0.002 A 
ATOM     25  C   UNL     1     -15.470  -0.352  30.389  0.00  0.00    +0.000 A 
ENDBRANCH   4  17
ENDBRANCH   6   9
BRANCH   8   3
ATOM      1  O   UNL     1     -12.821  11.872  33.271  0.00  0.00    -0.270 OA
ATOM      3  N   UNL     1     -12.210   9.666  32.887  0.00  0.00    -0.305 N 
ATOM     16  C   UNL     1     -11.969  11.032  32.990  0.00  0.00    +0.245 C 
ATOM     30  H   UNL     1     -11.478   9.043  32.563  0.00  0.00    +0.150 HD
BRANCH  16  18
ATOM     18  C   UNL     1     -10.578  11.475  32.711  0.00  0.00    +0.037 A 
ATOM     21  C   UNL     1      -9.540  11.083  33.557  0.00  0.00    +0.016 A 
ATOM     22  C   UNL     1     -10.310  12.281  31.605  0.00  0.00    +0.016 A 
ATOM     26  C   UNL     1      -8.233  11.499  33.297  0.00  0.00    +0.046 A 
ATOM     27  C   UNL     1      -9.005  12.697  31.344  0.00  0.00    +0.046 A 
ATOM     28  C   UNL     1      -7.967  12.305  32.190  0.00  0.00    +0.120 A 
BRANCH  28   2
ATOM      2  O   UNL     1      -6.693  12.711  31.935  0.00  0.00    -0.495 OA
ATOM     29  C   UNL     1      -6.512  14.073  31.548  0.00  0.00    +0.277 C 
ENDBRANCH  28   2
ENDBRANCH  16  18
ENDBRANCH   8   3
TORSDOF 5
ENDMDL
MODEL 8
REMARK VINA RESULT:      -6.4     27.079     31.082
REMARK  Name = 26743404
REMARK  8 active torsions:
REMARK  status: ('A' for Active; 'I' for Inactive)
REMARK    1  A    between atoms: O_2  and  C_28
REMARK    2  A    between atoms: O_2  and  C_29
REMARK    3  A    between atoms: N_3  and  C_8
REMARK    4  A    between atoms: N_4  and  C_17
REMARK    5  A    between atoms: C_6  and  C_9
REMARK    6  A    between atoms: C_12  and  C_14
REMARK    7  A    between atoms: C_13  and  C_15
REMARK    8  A    between atoms: C_16  and  C_18
REMARK                            x       y       z     vdW  Elec       q    Type
REMARK                         _______ _______ _______ _____ _____    ______ ____
ROOT
ATOM      6  C   UNL     1     -13.684   7.644  32.483  0.00  0.00    +0.047 C 
ATOM      7  C   UNL     1     -13.384   6.233  33.026  0.00  0.00    +0.039 C 
ATOM      8  C   UNL     1     -14.750   5.572  33.278  0.00  0.00    +0.097 C 
ATOM     10  C   UNL     1     -15.079   7.885  32.977  0.00  0.00    -0.021 C 
ATOM     11  C   UNL     1     -15.657   6.756  33.401  0.00  0.00    -0.009 C 
ENDROOT
BRANCH   6   9
ATOM      4  N   UNL     1     -11.149  10.244  32.962  0.00  0.00    -0.236 N 
ATOM      5  N   UNL     1     -11.381   9.997  34.263  0.00  0.00    -0.171 NA
ATOM      9  C   UNL     1     -12.672   8.679  32.916  0.00  0.00    +0.003 A 
ATOM     12  C   UNL     1     -11.897   9.482  32.114  0.00  0.00    +0.046 A 
ATOM     13  C   UNL     1     -12.312   9.040  34.229  0.00  0.00    +0.064 A 
ATOM     14  C   UNL     1     -11.811   9.583  30.643  0.00  0.00    +0.066 C 
ATOM     15  C   UNL     1     -12.837   8.494  35.493  0.00  0.00    +0.068 C 
BRANCH   4  17
ATOM     17  C   UNL     1     -10.211  11.211  32.599  0.00  0.00    +0.066 A 
ATOM     19  C   UNL     1     -10.613  12.336  31.878  0.00  0.00    +0.028 A 
ATOM     20  C   UNL     1      -8.872  11.053  32.956  0.00  0.00    +0.028 A 
ATOM     23  C   UNL     1      -9.674  13.302  31.515  0.00  0.00    +0.002 A 
ATOM     24  C   UNL     1      -7.934  12.020  32.594  0.00  0.00    +0.002 A 
ATOM     25  C   UNL     1      -8.336  13.145  31.873  0.00  0.00    +0.000 A 
ENDBRANCH   4  17
ENDBRANCH   6   9
BRANCH   8   3
ATOM      1  O   UNL     1     -13.664   2.981  32.622  0.00  0.00    -0.270 OA
ATOM      3  N   UNL     1     -15.149   4.706  32.174  0.00  0.00    -0.305 N 
ATOM     16  C   UNL     1     -14.562   3.467  31.939  0.00  0.00    +0.245 C 
ATOM     30  H   UNL     1     -15.824   5.083  31.516  0.00  0.00    +0.150 HD
BRANCH  16  18
ATOM     18  C   UNL     1     -15.064   2.718  30.759  0.00  0.00    +0.037 A 
ATOM     21  C   UNL     1     -15.352   1.357  30.869  0.00  0.00    +0.016 A 
ATOM     22  C   UNL     1     -15.247   3.373  29.542  0.00  0.00    +0.016 A 
ATOM     26  C   UNL     1     -15.823   0.651  29.761  0.00  0.00    +0.046 A 
ATOM     27  C   UNL     1     -15.717   2.668  28.434  0.00  0.00    +0.046 A 
ATOM     28  C   UNL     1     -16.005   1.307  28.544  0.00  0.00    +0.120 A 
BRANCH  28   2
ATOM      2  O   UNL     1     -16.465   0.620  27.462  0.00  0.00    -0.495 OA
ATOM     29  C   UNL     1     -17.847   0.767  27.140  0.00  0.00    +0.277 C 
ENDBRANCH  28   2
ENDBRANCH  16  18
ENDBRANCH   8   3
TORSDOF 5
ENDMDL
MODEL 9
REMARK VINA RESULT:      -6.4     28.334     31.288
REMARK  Name = 26743404
REMARK  8 active torsions:
REMARK  status: ('A' for Active; 'I' for Inactive)
REMARK    1  A    between atoms: O_2  and  C_28
REMARK    2  A    between atoms: O_2  and  C_29
REMARK    3  A    between atoms: N_3  and  C_8
REMARK    4  A    between atoms: N_4  and  C_17
REMARK    5  A    between atoms: C_6  and  C_9
REMARK    6  A    between atoms: C_12  and  C_14
REMARK    7  A    between atoms: C_13  and  C_15
REMARK    8  A    between atoms: C_16  and  C_18
REMARK                            x       y       z     vdW  Elec       q    Type
REMARK                         _______ _______ _______ _____ _____    ______ ____
ROOT
ATOM      6  C   UNL     1      -5.075 -10.418  11.293  0.00  0.00    +0.047 C 
ATOM      7  C   UNL     1      -4.470  -9.179  10.604  0.00  0.00    +0.039 C 
ATOM      8  C   UNL     1      -4.382  -9.521   9.107  0.00  0.00    +0.097 C 
ATOM     10  C   UNL     1      -4.768 -11.509  10.311  0.00  0.00    -0.021 C 
ATOM     11  C   UNL     1      -4.400 -11.018   9.123  0.00  0.00    -0.009 C 
ENDROOT
BRANCH   6   9
ATOM      4  N   UNL     1      -4.329 -11.050  14.823  0.00  0.00    -0.236 N 
ATOM      5  N   UNL     1      -3.060 -10.888  14.412  0.00  0.00    -0.171 NA
ATOM      9  C   UNL     1      -4.536 -10.650  12.686  0.00  0.00    +0.003 A 
ATOM     12  C   UNL     1      -5.252 -10.918  13.828  0.00  0.00    +0.046 A 
ATOM     13  C   UNL     1      -3.192 -10.645  13.105  0.00  0.00    +0.064 A 
ATOM     14  C   UNL     1      -6.706 -11.056  14.047  0.00  0.00    +0.066 C 
ATOM     15  C   UNL     1      -1.990 -10.410  12.286  0.00  0.00    +0.068 C 
BRANCH   4  17
ATOM     17  C   UNL     1      -4.591 -11.326  16.165  0.00  0.00    +0.066 A 
ATOM     19  C   UNL     1      -4.615 -12.647  16.614  0.00  0.00    +0.028 A 
ATOM     20  C   UNL     1      -4.828 -10.282  17.059  0.00  0.00    +0.028 A 
ATOM     23  C   UNL     1      -4.877 -12.922  17.956  0.00  0.00    +0.002 A 
ATOM     24  C   UNL     1      -5.089 -10.558  18.401  0.00  0.00    +0.002 A 
ATOM     25  C   UNL     1      -5.113 -11.878  18.850  0.00  0.00    +0.000 A 
ENDBRANCH   4  17
ENDBRANCH   6   9
BRANCH   8   3
ATOM      1  O   UNL     1      -5.338 -10.409   6.535  0.00  0.00    -0.270 OA
ATOM      3  N   UNL     1      -5.510  -8.982   8.356  0.00  0.00    -0.305 N 
ATOM     16  C   UNL     1      -5.895  -9.481   7.116  0.00  0.00    +0.245 C 
ATOM     30  H   UNL     1      -5.960  -8.156   8.735  0.00  0.00    +0.150 HD
BRANCH  16  18
ATOM     18  C   UNL     1      -7.049  -8.806   6.469  0.00  0.00    +0.037 A 
ATOM     21  C   UNL     1      -7.943  -8.063   7.240  0.00  0.00    +0.016 A 
ATOM     22  C   UNL     1      -7.239  -8.916   5.092  0.00  0.00    +0.016 A 
ATOM     26  C   UNL     1      -9.028  -7.429   6.633  0.00  0.00    +0.046 A 
ATOM     27  C   UNL     1      -8.323  -8.282   4.484  0.00  0.00    +0.046 A 
ATOM     28  C   UNL     1      -9.217  -7.539   5.255  0.00  0.00    +0.120 A 
BRANCH  28   2
ATOM      2  O   UNL     1     -10.276  -6.921   4.662  0.00  0.00    -0.495 OA
ATOM     29  C   UNL     1     -10.201  -6.721   3.250  0.00  0.00    +0.277 C 
ENDBRANCH  28   2
ENDBRANCH  16  18
ENDBRANCH   8   3
TORSDOF 5
ENDMDL
MODEL 10
REMARK VINA RESULT:      -6.3     29.019     31.315
REMARK  Name = 26743404
REMARK  8 active torsions:
REMARK  status: ('A' for Active; 'I' for Inactive)
REMARK    1  A    between atoms: O_2  and  C_28
REMARK    2  A    between atoms: O_2  and  C_29
REMARK    3  A    between atoms: N_3  and  C_8
REMARK    4  A    between atoms: N_4  and  C_17
REMARK    5  A    between atoms: C_6  and  C_9
REMARK    6  A    between atoms: C_12  and  C_14
REMARK    7  A    between atoms: C_13  and  C_15
REMARK    8  A    between atoms: C_16  and  C_18
REMARK                            x       y       z     vdW  Elec       q    Type
REMARK                         _______ _______ _______ _____ _____    ______ ____
ROOT
ATOM      6  C   UNL     1      -3.605 -11.460  11.252  0.00  0.00    +0.047 C 
ATOM      7  C   UNL     1      -4.964 -11.193  10.575  0.00  0.00    +0.039 C 
ATOM      8  C   UNL     1      -4.717 -10.081   9.542  0.00  0.00    +0.097 C 
ATOM     10  C   UNL     1      -2.866 -10.181  10.995  0.00  0.00    -0.021 C 
ATOM     11  C   UNL     1      -3.468  -9.438  10.061  0.00  0.00    -0.009 C 
ENDROOT
BRANCH   6   9
ATOM      4  N   UNL     1      -4.311 -11.961  14.811  0.00  0.00    -0.236 N 
ATOM      5  N   UNL     1      -3.365 -12.908  14.695  0.00  0.00    -0.171 NA
ATOM      9  C   UNL     1      -3.727 -11.838  12.710  0.00  0.00    +0.003 A 
ATOM     12  C   UNL     1      -4.566 -11.291  13.651  0.00  0.00    +0.046 A 
ATOM     13  C   UNL     1      -3.012 -12.829  13.409  0.00  0.00    +0.064 A 
ATOM     14  C   UNL     1      -5.567 -10.210  13.541  0.00  0.00    +0.066 C 
ATOM     15  C   UNL     1      -1.973 -13.734  12.886  0.00  0.00    +0.068 C 
BRANCH   4  17
ATOM     17  C   UNL     1      -4.927 -11.746  16.044  0.00  0.00    +0.066 A 
ATOM     19  C   UNL     1      -6.084 -12.453  16.378  0.00  0.00    +0.028 A 
ATOM     20  C   UNL     1      -4.389 -10.826  16.943  0.00  0.00    +0.028 A 
ATOM     23  C   UNL     1      -6.699 -12.239  17.612  0.00  0.00    +0.002 A 
ATOM     24  C   UNL     1      -5.004 -10.613  18.177  0.00  0.00    +0.002 A 
ATOM     25  C   UNL     1      -6.159 -11.320  18.511  0.00  0.00    +0.000 A 
ENDBRANCH   4  17
ENDBRANCH   6   9
BRANCH   8   3
ATOM      1  O   UNL     1      -6.717 -10.375   7.484  0.00  0.00    -0.270 OA
ATOM      3  N   UNL     1      -4.523 -10.616   8.199  0.00  0.00    -0.305 N 
ATOM     16  C   UNL     1      -5.557 -10.718   7.274  0.00  0.00    +0.245 C 
ATOM     30  H   UNL     1      -3.609 -11.002   7.987  0.00  0.00    +0.150 HD
BRANCH  16  18
ATOM     18  C   UNL     1      -5.201 -11.308   5.958  0.00  0.00    +0.037 A 
ATOM     21  C   UNL     1      -6.123 -11.279   4.910  0.00  0.00    +0.016 A 
ATOM     22  C   UNL     1      -3.949 -11.892   5.769  0.00  0.00    +0.016 A 
ATOM     26  C   UNL     1      -5.791 -11.834   3.673  0.00  0.00    +0.046 A 
ATOM     27  C   UNL     1      -3.616 -12.447   4.533  0.00  0.00    +0.046 A 
ATOM     28  C   UNL     1      -4.538 -12.417   3.486  0.00  0.00    +0.120 A 
BRANCH  28   2
ATOM      2  O   UNL     1      -4.212 -12.959   2.280  0.00  0.00    -0.495 OA
ATOM     29  C   UNL     1      -5.290 -13.276   1.399  0.00  0.00    +0.277 C 
ENDBRANCH  28   2
ENDBRANCH  16  18
ENDBRANCH   8   3
TORSDOF 5
ENDMDL
