REMARK  Name = 26743084
REMARK  8 active torsions:
REMARK  status: ('A' for Active; 'I' for Inactive)
REMARK    1  A    between atoms: S_1  and  C_19
REMARK    2  A    between atoms: S_1  and  C_25
REMARK    3  A    between atoms: N_5  and  C_18
REMARK    4  A    between atoms: C_7  and  C_13
REMARK    5  A    between atoms: C_8  and  C_12
REMARK    6  A    between atoms: C_12  and  C_14
REMARK    7  A    between atoms: C_13  and  C_15
REMARK    8  A    between atoms: C_17  and  C_19
REMARK                            x       y       z     vdW  Elec       q    Type
REMARK                         _______ _______ _______ _____ _____    ______ ____
ROOT
ATOM      4  N   UNL     1      -0.393   2.040  -0.644  0.00  0.00    -0.316 NA
ATOM      7  C   UNL     1       1.171  -0.432  -1.027  0.00  0.00    +0.004 C 
ATOM      8  C   UNL     1      -0.312  -0.441  -0.583  0.00  0.00    +0.012 C 
ATOM      9  C   UNL     1       1.459   0.873  -1.787  0.00  0.00    +0.019 C 
ATOM     10  C   UNL     1      -0.690   0.853   0.158  0.00  0.00    +0.085 C 
ATOM     11  C   UNL     1       1.020   2.112  -1.007  0.00  0.00    +0.081 C 
ATOM     31  H   UNL     1      -0.650   2.875  -0.118  0.00  0.00    +0.122 HD
ENDROOT
BRANCH   8  12
ATOM     12  C   UNL     1      -0.679  -1.667   0.254  0.00  0.00    +0.064 C 
BRANCH  12  14
ATOM      3  O   UNL     1      -4.033  -2.755  -0.474  0.00  0.00    -0.359 OA
ATOM      6  N   UNL     1      -2.667  -2.725  -0.729  0.00  0.00    -0.083 NA
ATOM     14  C   UNL     1      -2.157  -1.931   0.217  0.00  0.00    +0.084 A 
ATOM     16  C   UNL     1      -3.143  -1.435   1.087  0.00  0.00    +0.071 A 
ATOM     17  C   UNL     1      -4.304  -1.983   0.609  0.00  0.00    +0.148 A 
BRANCH  17  19
ATOM     19  C   UNL     1      -5.711  -1.902   1.020  0.00  0.00    +0.151 C 
BRANCH  19   1
ATOM      1  S   UNL     1      -6.711  -0.806  -0.048  0.00  0.00    -0.117 S 
BRANCH   1  25
ATOM     25  C   UNL     1      -5.787   0.719   0.066  0.00  0.00    +0.008 A 
ATOM     26  C   UNL     1      -5.601   1.331   1.306  0.00  0.00    +0.015 A 
ATOM     27  C   UNL     1      -5.253   1.298  -1.085  0.00  0.00    +0.015 A 
ATOM     28  C   UNL     1      -4.880   2.522   1.394  0.00  0.00    +0.001 A 
ATOM     29  C   UNL     1      -4.532   2.488  -0.996  0.00  0.00    +0.001 A 
ATOM     30  C   UNL     1      -4.346   3.100   0.243  0.00  0.00    +0.000 A 
ENDBRANCH   1  25
ENDBRANCH  19   1
ENDBRANCH  17  19
ENDBRANCH  12  14
ENDBRANCH   8  12
BRANCH   7  13
ATOM     13  C   UNL     1       2.167  -0.626   0.122  0.00  0.00    +0.100 C 
BRANCH  13  15
ATOM      2  O   UNL     1       3.928  -1.043  -1.468  0.00  0.00    -0.275 OA
ATOM      5  N   UNL     1       4.444  -0.123   0.631  0.00  0.00    -0.285 N 
ATOM     15  C   UNL     1       3.607  -0.633  -0.357  0.00  0.00    +0.217 C 
ATOM     32  H   UNL     1       4.020   0.170   1.508  0.00  0.00    +0.155 HD
BRANCH   5  18
ATOM     18  C   UNL     1       5.849   0.037   0.573  0.00  0.00    +0.033 A 
ATOM     20  C   UNL     1       6.536   0.570   1.665  0.00  0.00    +0.023 A 
ATOM     21  C   UNL     1       6.547  -0.338  -0.574  0.00  0.00    +0.023 A 
ATOM     22  C   UNL     1       7.920   0.728   1.608  0.00  0.00    +0.002 A 
ATOM     23  C   UNL     1       7.932  -0.180  -0.631  0.00  0.00    +0.002 A 
ATOM     24  C   UNL     1       8.619   0.353   0.460  0.00  0.00    +0.000 A 
ENDBRANCH   5  18
ENDBRANCH  13  15
ENDBRANCH   7  13
TORSDOF 8
