REMARK  Name = 11883368
REMARK  11 active torsions:
REMARK  status: ('A' for Active; 'I' for Inactive)
REMARK    1  A    between atoms: O_3  and  C_14
REMARK    2  A    between atoms: O_3  and  C_18
REMARK    3  A    between atoms: O_6  and  C_25
REMARK    4  A    between atoms: O_6  and  C_31
REMARK    5  A    between atoms: O_7  and  C_28
REMARK    6  A    between atoms: O_7  and  C_32
REMARK    7  A    between atoms: O_8  and  C_29
REMARK    8  A    between atoms: O_8  and  C_33
REMARK    9  A    between atoms: N_9  and  C_13
REMARK   10  A    between atoms: N_10  and  C_22
REMARK   11  A    between atoms: C_17  and  C_19
REMARK                            x       y       z     vdW  Elec       q    Type
REMARK                         _______ _______ _______ _____ _____    ______ ____
ROOT
ATOM      1  O   UNL     1      -0.717   1.718   0.924  0.00  0.00    -0.368 OA
ATOM      2  O   UNL     1      -1.294   3.632  -1.401  0.00  0.00    -0.368 OA
ATOM     11  C   UNL     1      -1.775   2.302  -1.116  0.00  0.00    +0.173 C 
ATOM     12  C   UNL     1      -0.620   1.540  -0.499  0.00  0.00    +0.192 C 
ATOM     13  C   UNL     1      -2.808   2.349  -0.015  0.00  0.00    +0.130 C 
ATOM     14  C   UNL     1       0.583   2.251  -1.071  0.00  0.00    +0.235 C 
ATOM     15  C   UNL     1      -1.945   2.394   1.234  0.00  0.00    +0.185 C 
ATOM     16  C   UNL     1       0.112   3.687  -1.119  0.00  0.00    +0.207 C 
ENDROOT
BRANCH  13   9
ATOM      4  O   UNL     1      -5.484   2.134   1.005  0.00  0.00    -0.270 OA
ATOM      9  N   UNL     1      -3.645   1.174  -0.032  0.00  0.00    -0.304 N 
ATOM     17  C   UNL     1      -4.932   1.166   0.488  0.00  0.00    +0.244 C 
ATOM     34  H   UNL     1      -3.218   0.308  -0.346  0.00  0.00    +0.149 HD
BRANCH  17  19
ATOM     19  C   UNL     1      -5.654  -0.130   0.418  0.00  0.00    +0.037 A 
ATOM     20  C   UNL     1      -5.338  -1.052  -0.580  0.00  0.00    +0.016 A 
ATOM     21  C   UNL     1      -6.650  -0.425   1.349  0.00  0.00    +0.016 A 
ATOM     23  C   UNL     1      -6.017  -2.269  -0.646  0.00  0.00    +0.046 A 
ATOM     24  C   UNL     1      -7.329  -1.641   1.284  0.00  0.00    +0.046 A 
ATOM     25  C   UNL     1      -7.012  -2.563   0.286  0.00  0.00    +0.120 A 
BRANCH  25   6
ATOM      6  O   UNL     1      -7.676  -3.749   0.220  0.00  0.00    -0.495 OA
ATOM     31  C   UNL     1      -7.302  -4.646  -0.826  0.00  0.00    +0.277 C 
ENDBRANCH  25   6
ENDBRANCH  17  19
ENDBRANCH  13   9
BRANCH  14   3
ATOM      3  O   UNL     1       1.749   2.100  -0.293  0.00  0.00    -0.442 OA
BRANCH   3  18
ATOM      5  O   UNL     1       2.364   0.296  -1.556  0.00  0.00    -0.226 OA
ATOM     10  N   UNL     1       3.680   1.057   0.224  0.00  0.00    -0.251 N 
ATOM     18  C   UNL     1       2.594   1.063  -0.629  0.00  0.00    +0.405 C 
ATOM     35  H   UNL     1       3.695   1.780   0.938  0.00  0.00    +0.158 HD
BRANCH  10  22
ATOM     22  C   UNL     1       4.778   0.166   0.229  0.00  0.00    +0.043 A 
ATOM     26  C   UNL     1       5.792   0.314   1.175  0.00  0.00    +0.069 A 
ATOM     27  C   UNL     1       4.847  -0.860  -0.713  0.00  0.00    +0.069 A 
ATOM     28  C   UNL     1       5.931  -1.739  -0.709  0.00  0.00    +0.125 A 
ATOM     29  C   UNL     1       6.876  -0.565   1.179  0.00  0.00    +0.125 A 
ATOM     30  C   UNL     1       6.945  -1.591   0.237  0.00  0.00    +0.091 A 
BRANCH  28   7
ATOM      7  O   UNL     1       6.000  -2.739  -1.629  0.00  0.00    -0.495 OA
ATOM     32  C   UNL     1       7.136  -3.601  -1.568  0.00  0.00    +0.277 C 
ENDBRANCH  28   7
BRANCH  29   8
ATOM      8  O   UNL     1       7.866  -0.420   2.102  0.00  0.00    -0.495 OA
ATOM     33  C   UNL     1       8.944  -1.353   2.048  0.00  0.00    +0.277 C 
ENDBRANCH  29   8
ENDBRANCH  10  22
ENDBRANCH   3  18
ENDBRANCH  14   3
TORSDOF 8
