REMARK  Name = 40777095
REMARK  9 active torsions:
REMARK  status: ('A' for Active; 'I' for Inactive)
REMARK    1  A    between atoms: O_3  and  C_28
REMARK    2  A    between atoms: N_6  and  C_16
REMARK    3  A    between atoms: C_10  and  C_17
REMARK    4  A    between atoms: C_11  and  C_16
REMARK    5  A    between atoms: C_19  and  C_23
REMARK    6  A    between atoms: C_20  and  C_22
REMARK    7  A    between atoms: C_21  and  C_24
REMARK    8  A    between atoms: C_22  and  C_25
REMARK    9  A    between atoms: C_25  and  C_28
REMARK                            x       y       z     vdW  Elec       q    Type
REMARK                         _______ _______ _______ _____ _____    ______ ____
ROOT
ATOM      5  N   UNL     1       0.956   2.529   1.285  0.00  0.00    -0.297 NA
ATOM      9  C   UNL     1       0.385   2.414  -1.253  0.00  0.00    +0.002 C 
ATOM     10  C   UNL     1      -0.879   2.124  -0.397  0.00  0.00    +0.055 C 
ATOM     11  C   UNL     1       1.936   1.659   0.583  0.00  0.00    +0.074 C 
ATOM     12  C   UNL     1       1.496   1.412  -0.877  0.00  0.00    +0.024 C 
ATOM     13  C   UNL     1       0.883   3.818  -0.849  0.00  0.00    +0.019 C 
ATOM     14  C   UNL     1      -0.420   2.010   1.085  0.00  0.00    +0.094 C 
ATOM     15  C   UNL     1       1.034   3.881   0.682  0.00  0.00    +0.085 C 
ENDROOT
BRANCH  10  17
ATOM      7  N   UNL     1      -1.400   0.266  -1.900  0.00  0.00    -0.237 NA
ATOM      8  N   UNL     1      -3.354  -1.113  -1.608  0.00  0.00    -0.232 NA
ATOM     17  C   UNL     1      -1.779   0.969  -0.813  0.00  0.00    +0.050 A 
ATOM     18  C   UNL     1      -2.916   0.695  -0.081  0.00  0.00    +0.052 A 
ATOM     19  C   UNL     1      -3.673  -0.368  -0.529  0.00  0.00    +0.076 A 
ATOM     21  C   UNL     1      -2.221  -0.747  -2.237  0.00  0.00    +0.127 A 
ATOM     24  C   UNL     1      -1.837  -1.546  -3.436  0.00  0.00    +0.088 C 
BRANCH  19  23
ATOM      1 BR   UNL     1      -3.300  -2.529   1.799  0.00  0.00    -0.050 Br
ATOM     23  C   UNL     1      -4.888  -0.757   0.148  0.00  0.00    +0.014 A 
ATOM     26  C   UNL     1      -4.891  -1.690   1.185  0.00  0.00    +0.027 A 
ATOM     27  C   UNL     1      -6.083  -0.170  -0.266  0.00  0.00    +0.011 A 
ATOM     29  C   UNL     1      -6.089  -2.035   1.809  0.00  0.00    +0.016 A 
ATOM     30  C   UNL     1      -7.282  -0.515   0.358  0.00  0.00    +0.001 A 
ATOM     31  C   UNL     1      -7.285  -1.448   1.395  0.00  0.00    +0.001 A 
ENDBRANCH  19  23
ENDBRANCH  10  17
BRANCH  11  16
ATOM     16  C   UNL     1       2.193   0.349   1.330  0.00  0.00    +0.123 C 
BRANCH  16   6
ATOM      2  O   UNL     1       5.037   0.473   1.847  0.00  0.00    -0.276 OA
ATOM      6  N   UNL     1       3.223  -0.410   0.690  0.00  0.00    -0.314 N 
ATOM     20  C   UNL     1       4.578  -0.289   1.001  0.00  0.00    +0.214 C 
ATOM     32  H   UNL     1       2.946  -1.069  -0.032  0.00  0.00    +0.149 HD
BRANCH  20  22
ATOM     22  C   UNL     1       5.440  -1.215   0.163  0.00  0.00    +0.107 C 
BRANCH  22  25
ATOM     25  C   UNL     1       6.923  -1.090   0.494  0.00  0.00    +0.129 C 
BRANCH  25  28
ATOM      4  O   UNL     1       7.348  -2.792  -1.193  0.00  0.00    -0.251 OA
ATOM     28  C   UNL     1       7.771  -2.012  -0.351  0.00  0.00    +0.305 C 
BRANCH  28   3
ATOM      3  O   UNL     1       9.092  -1.873  -0.065  0.00  0.00    -0.481 OA
ATOM     33  H   UNL     1       9.649  -2.469  -0.611  0.00  0.00    +0.295 HD
ENDBRANCH  28   3
ENDBRANCH  25  28
ENDBRANCH  22  25
ENDBRANCH  20  22
ENDBRANCH  16   6
ENDBRANCH  11  16
TORSDOF 8
