MODEL 1
REMARK VINA RESULT:      -7.9      0.000      0.000
REMARK  Name = 25338776
REMARK  5 active torsions:
REMARK  status: ('A' for Active; 'I' for Inactive)
REMARK    1  A    between atoms: N_5  and  C_15
REMARK    2  A    between atoms: N_6  and  C_10
REMARK    3  A    between atoms: N_9  and  C_19
REMARK    4  A    between atoms: C_11  and  C_14
REMARK    5  A    between atoms: C_17  and  C_18
REMARK                            x       y       z     vdW  Elec       q    Type
REMARK                         _______ _______ _______ _____ _____    ______ ____
ROOT
ATOM      5  N   UNL     1     -18.184   2.282  27.376  0.00  0.00    -0.293 NA
ATOM     10  C   UNL     1     -16.979   1.868  25.424  0.00  0.00    +0.090 C 
ATOM     11  C   UNL     1     -17.347   1.116  27.718  0.00  0.00    +0.147 C 
ATOM     12  C   UNL     1     -16.433   0.923  26.493  0.00  0.00    +0.052 C 
ATOM     13  C   UNL     1     -18.371   2.229  25.923  0.00  0.00    +0.107 C 
ATOM     15  C   UNL     1     -19.457   2.304  28.087  0.00  0.00    +0.105 C 
ENDROOT
BRANCH  10   6
ATOM      4  O   UNL     1     -16.085   3.046  22.970  0.00  0.00    -0.252 OA
ATOM      6  N   UNL     1     -16.152   3.044  25.282  0.00  0.00    -0.295 N 
ATOM      9  N   UNL     1     -14.966   4.693  24.213  0.00  0.00    -0.267 N 
ATOM     16  C   UNL     1     -15.759   3.556  24.040  0.00  0.00    +0.304 C 
ATOM     30  H   UNL     1     -15.781   3.477  26.121  0.00  0.00    +0.151 HD
ATOM     31  H   UNL     1     -14.788   4.986  25.170  0.00  0.00    +0.156 HD
BRANCH   9  19
ATOM      1  F   UNL     1     -15.998   7.197  23.555  0.00  0.00    -0.203 F 
ATOM      2  F   UNL     1     -12.633   7.841  20.292  0.00  0.00    -0.205 F 
ATOM     19  C   UNL     1     -14.373   5.499  23.213  0.00  0.00    +0.070 A 
ATOM     22  C   UNL     1     -14.914   6.747  22.907  0.00  0.00    +0.147 A 
ATOM     23  C   UNL     1     -13.245   5.041  22.532  0.00  0.00    +0.029 A 
ATOM     26  C   UNL     1     -14.326   7.539  21.920  0.00  0.00    +0.078 A 
ATOM     27  C   UNL     1     -12.658   5.833  21.545  0.00  0.00    +0.040 A 
ATOM     29  C   UNL     1     -13.197   7.082  21.240  0.00  0.00    +0.126 A 
ENDBRANCH   9  19
ENDBRANCH  10   6
BRANCH  11  14
ATOM      3  O   UNL     1     -16.028   0.166  29.543  0.00  0.00    -0.336 OA
ATOM      7  N   UNL     1     -16.327   2.382  29.688  0.00  0.00    -0.190 NA
ATOM      8  N   UNL     1     -15.365   0.573  30.708  0.00  0.00    -0.056 NA
ATOM     14  C   UNL     1     -16.567   1.292  29.004  0.00  0.00    +0.245 A 
ATOM     17  C   UNL     1     -15.587   1.891  30.724  0.00  0.00    +0.202 A 
BRANCH  17  18
ATOM     18  C   UNL     1     -15.083   2.746  31.761  0.00  0.00    +0.022 A 
ATOM     20  C   UNL     1     -15.084   2.309  33.085  0.00  0.00    +0.012 A 
ATOM     21  C   UNL     1     -14.593   4.013  31.444  0.00  0.00    +0.012 A 
ATOM     24  C   UNL     1     -14.595   3.140  34.093  0.00  0.00    +0.001 A 
ATOM     25  C   UNL     1     -14.105   4.844  32.451  0.00  0.00    +0.001 A 
ATOM     28  C   UNL     1     -14.105   4.407  33.777  0.00  0.00    +0.000 A 
ENDBRANCH  17  18
ENDBRANCH  11  14
TORSDOF 4
ENDMDL
MODEL 2
REMARK VINA RESULT:      -7.6     28.134     31.088
REMARK  Name = 25338776
REMARK  5 active torsions:
REMARK  status: ('A' for Active; 'I' for Inactive)
REMARK    1  A    between atoms: N_5  and  C_15
REMARK    2  A    between atoms: N_6  and  C_10
REMARK    3  A    between atoms: N_9  and  C_19
REMARK    4  A    between atoms: C_11  and  C_14
REMARK    5  A    between atoms: C_17  and  C_18
REMARK                            x       y       z     vdW  Elec       q    Type
REMARK                         _______ _______ _______ _____ _____    ______ ____
ROOT
ATOM      5  N   UNL     1      14.901   7.319  20.193  0.00  0.00    -0.293 NA
ATOM     10  C   UNL     1      13.023   7.531  21.558  0.00  0.00    +0.090 C 
ATOM     11  C   UNL     1      13.768   7.159  19.262  0.00  0.00    +0.147 C 
ATOM     12  C   UNL     1      12.519   7.448  20.117  0.00  0.00    +0.052 C 
ATOM     13  C   UNL     1      14.404   6.895  21.505  0.00  0.00    +0.107 C 
ATOM     15  C   UNL     1      16.085   6.569  19.791  0.00  0.00    +0.105 C 
ENDROOT
BRANCH  10   6
ATOM      4  O   UNL     1      10.811   9.279  22.069  0.00  0.00    -0.252 OA
ATOM      6  N   UNL     1      13.092   8.899  22.018  0.00  0.00    -0.295 N 
ATOM      9  N   UNL     1      12.331  10.959  22.682  0.00  0.00    -0.267 N 
ATOM     16  C   UNL     1      11.958   9.686  22.244  0.00  0.00    +0.304 C 
ATOM     30  H   UNL     1      14.005   9.330  22.114  0.00  0.00    +0.151 HD
ATOM     31  H   UNL     1      13.328  11.138  22.776  0.00  0.00    +0.156 HD
BRANCH   9  19
ATOM      1  F   UNL     1      11.482  11.394  25.301  0.00  0.00    -0.203 F 
ATOM      2  F   UNL     1       9.026  15.216  23.981  0.00  0.00    -0.205 F 
ATOM     19  C   UNL     1      11.488  12.045  23.017  0.00  0.00    +0.070 A 
ATOM     22  C   UNL     1      11.081  12.234  24.337  0.00  0.00    +0.147 A 
ATOM     23  C   UNL     1      11.063  12.926  22.022  0.00  0.00    +0.029 A 
ATOM     26  C   UNL     1      10.249  13.307  24.663  0.00  0.00    +0.078 A 
ATOM     27  C   UNL     1      10.231  13.997  22.348  0.00  0.00    +0.040 A 
ATOM     29  C   UNL     1       9.825  14.188  23.669  0.00  0.00    +0.126 A 
ENDBRANCH   9  19
ENDBRANCH  10   6
BRANCH  11  14
ATOM      3  O   UNL     1      13.448   7.513  16.865  0.00  0.00    -0.336 OA
ATOM      7  N   UNL     1      14.276   9.290  17.950  0.00  0.00    -0.190 NA
ATOM      8  N   UNL     1      13.622   8.513  15.899  0.00  0.00    -0.056 NA
ATOM     14  C   UNL     1      13.857   8.054  18.043  0.00  0.00    +0.245 A 
ATOM     17  C   UNL     1      14.113   9.529  16.617  0.00  0.00    +0.202 A 
BRANCH  17  18
ATOM     18  C   UNL     1      14.451  10.795  16.032  0.00  0.00    +0.022 A 
ATOM     20  C   UNL     1      15.402  11.612  16.641  0.00  0.00    +0.012 A 
ATOM     21  C   UNL     1      13.827  11.208  14.854  0.00  0.00    +0.012 A 
ATOM     24  C   UNL     1      15.730  12.843  16.073  0.00  0.00    +0.001 A 
ATOM     25  C   UNL     1      14.155  12.439  14.286  0.00  0.00    +0.001 A 
ATOM     28  C   UNL     1      15.107  13.257  14.896  0.00  0.00    +0.000 A 
ENDBRANCH  17  18
ENDBRANCH  11  14
TORSDOF 4
ENDMDL
MODEL 3
REMARK VINA RESULT:      -7.3     32.923     35.781
REMARK  Name = 25338776
REMARK  5 active torsions:
REMARK  status: ('A' for Active; 'I' for Inactive)
REMARK    1  A    between atoms: N_5  and  C_15
REMARK    2  A    between atoms: N_6  and  C_10
REMARK    3  A    between atoms: N_9  and  C_19
REMARK    4  A    between atoms: C_11  and  C_14
REMARK    5  A    between atoms: C_17  and  C_18
REMARK                            x       y       z     vdW  Elec       q    Type
REMARK                         _______ _______ _______ _____ _____    ______ ____
ROOT
ATOM      5  N   UNL     1      21.072   7.434  20.897  0.00  0.00    -0.293 NA
ATOM     10  C   UNL     1      19.226   7.898  22.242  0.00  0.00    +0.090 C 
ATOM     11  C   UNL     1      21.381   6.750  22.167  0.00  0.00    +0.147 C 
ATOM     12  C   UNL     1      20.106   6.916  23.016  0.00  0.00    +0.052 C 
ATOM     13  C   UNL     1      20.177   8.542  21.245  0.00  0.00    +0.107 C 
ATOM     15  C   UNL     1      22.261   7.897  20.190  0.00  0.00    +0.105 C 
ENDROOT
BRANCH  10   6
ATOM      4  O   UNL     1      16.870   9.108  21.152  0.00  0.00    -0.252 OA
ATOM      6  N   UNL     1      18.140   7.222  21.571  0.00  0.00    -0.295 N 
ATOM      9  N   UNL     1      16.140   6.984  20.472  0.00  0.00    -0.267 N 
ATOM     16  C   UNL     1      17.020   7.891  21.065  0.00  0.00    +0.304 C 
ATOM     30  H   UNL     1      18.157   6.208  21.526  0.00  0.00    +0.151 HD
ATOM     31  H   UNL     1      16.414   6.004  20.483  0.00  0.00    +0.156 HD
BRANCH   9  19
ATOM      1  F   UNL     1      13.802   7.311  21.955  0.00  0.00    -0.203 F 
ATOM      2  F   UNL     1      11.285   8.053  18.018  0.00  0.00    -0.205 F 
ATOM     19  C   UNL     1      14.899   7.257  19.849  0.00  0.00    +0.070 A 
ATOM     22  C   UNL     1      13.748   7.415  20.619  0.00  0.00    +0.147 A 
ATOM     23  C   UNL     1      14.830   7.367  18.460  0.00  0.00    +0.029 A 
ATOM     26  C   UNL     1      12.526   7.685  20.001  0.00  0.00    +0.078 A 
ATOM     27  C   UNL     1      13.609   7.636  17.842  0.00  0.00    +0.040 A 
ATOM     29  C   UNL     1      12.458   7.796  18.612  0.00  0.00    +0.126 A 
ENDBRANCH   9  19
ENDBRANCH  10   6
BRANCH  11  14
ATOM      3  O   UNL     1      21.002   4.559  21.154  0.00  0.00    -0.336 OA
ATOM      7  N   UNL     1      22.769   4.637  22.529  0.00  0.00    -0.190 NA
ATOM      8  N   UNL     1      21.555   3.272  21.152  0.00  0.00    -0.056 NA
ATOM     14  C   UNL     1      21.777   5.300  21.990  0.00  0.00    +0.245 A 
ATOM     17  C   UNL     1      22.592   3.399  21.986  0.00  0.00    +0.202 A 
BRANCH  17  18
ATOM     18  C   UNL     1      23.471   2.308  22.296  0.00  0.00    +0.022 A 
ATOM     20  C   UNL     1      23.568   1.843  23.607  0.00  0.00    +0.012 A 
ATOM     21  C   UNL     1      24.228   1.712  21.287  0.00  0.00    +0.012 A 
ATOM     24  C   UNL     1      24.423   0.783  23.909  0.00  0.00    +0.001 A 
ATOM     25  C   UNL     1      25.082   0.653  21.588  0.00  0.00    +0.001 A 
ATOM     28  C   UNL     1      25.180   0.187  22.901  0.00  0.00    +0.000 A 
ENDBRANCH  17  18
ENDBRANCH  11  14
TORSDOF 4
ENDMDL
MODEL 4
REMARK VINA RESULT:      -7.2     20.673     22.814
REMARK  Name = 25338776
REMARK  5 active torsions:
REMARK  status: ('A' for Active; 'I' for Inactive)
REMARK    1  A    between atoms: N_5  and  C_15
REMARK    2  A    between atoms: N_6  and  C_10
REMARK    3  A    between atoms: N_9  and  C_19
REMARK    4  A    between atoms: C_11  and  C_14
REMARK    5  A    between atoms: C_17  and  C_18
REMARK                            x       y       z     vdW  Elec       q    Type
REMARK                         _______ _______ _______ _____ _____    ______ ____
ROOT
ATOM      5  N   UNL     1      -3.982 -11.701  10.811  0.00  0.00    -0.293 NA
ATOM     10  C   UNL     1      -3.962  -9.755   9.527  0.00  0.00    +0.090 C 
ATOM     11  C   UNL     1      -2.872 -10.913  11.381  0.00  0.00    +0.147 C 
ATOM     12  C   UNL     1      -2.941  -9.560  10.647  0.00  0.00    +0.052 C 
ATOM     13  C   UNL     1      -4.107 -11.266   9.417  0.00  0.00    +0.107 C 
ATOM     15  C   UNL     1      -3.776 -13.141  10.915  0.00  0.00    +0.105 C 
ENDROOT
BRANCH  10   6
ATOM      4  O   UNL     1      -6.080  -9.149   7.696  0.00  0.00    -0.252 OA
ATOM      6  N   UNL     1      -5.225  -9.129   9.844  0.00  0.00    -0.295 N 
ATOM      9  N   UNL     1      -7.316  -8.257   9.480  0.00  0.00    -0.267 N 
ATOM     16  C   UNL     1      -6.210  -8.867   8.885  0.00  0.00    +0.304 C 
ATOM     30  H   UNL     1      -5.375  -8.799  10.792  0.00  0.00    +0.151 HD
ATOM     31  H   UNL     1      -7.265  -8.092  10.482  0.00  0.00    +0.156 HD
BRANCH   9  19
ATOM      1  F   UNL     1      -7.504  -5.791   8.196  0.00  0.00    -0.203 F 
ATOM      2  F   UNL     1     -12.020  -6.616   7.049  0.00  0.00    -0.205 F 
ATOM     19  C   UNL     1      -8.515  -7.835   8.859  0.00  0.00    +0.070 A 
ATOM     22  C   UNL     1      -8.576  -6.595   8.225  0.00  0.00    +0.147 A 
ATOM     23  C   UNL     1      -9.637  -8.663   8.882  0.00  0.00    +0.029 A 
ATOM     26  C   UNL     1      -9.761  -6.183   7.612  0.00  0.00    +0.078 A 
ATOM     27  C   UNL     1     -10.821  -8.251   8.271  0.00  0.00    +0.040 A 
ATOM     29  C   UNL     1     -10.883  -7.011   7.636  0.00  0.00    +0.126 A 
ENDBRANCH   9  19
ENDBRANCH  10   6
BRANCH  11  14
ATOM      3  O   UNL     1      -1.786 -10.472  13.525  0.00  0.00    -0.336 OA
ATOM      7  N   UNL     1      -3.985 -10.873  13.679  0.00  0.00    -0.190 NA
ATOM      8  N   UNL     1      -2.104 -10.384  14.887  0.00  0.00    -0.056 NA
ATOM     14  C   UNL     1      -2.950 -10.763  12.886  0.00  0.00    +0.245 A 
ATOM     17  C   UNL     1      -3.417 -10.632  14.896  0.00  0.00    +0.202 A 
BRANCH  17  18
ATOM     18  C   UNL     1      -4.192 -10.646  16.104  0.00  0.00    +0.022 A 
ATOM     20  C   UNL     1      -3.723 -11.333  17.223  0.00  0.00    +0.012 A 
ATOM     21  C   UNL     1      -5.414  -9.975  16.158  0.00  0.00    +0.012 A 
ATOM     24  C   UNL     1      -4.476 -11.347  18.398  0.00  0.00    +0.001 A 
ATOM     25  C   UNL     1      -6.166  -9.990  17.331  0.00  0.00    +0.001 A 
ATOM     28  C   UNL     1      -5.697 -10.677  18.453  0.00  0.00    +0.000 A 
ENDBRANCH  17  18
ENDBRANCH  11  14
TORSDOF 4
ENDMDL
MODEL 5
REMARK VINA RESULT:      -7.2      1.719      2.162
REMARK  Name = 25338776
REMARK  5 active torsions:
REMARK  status: ('A' for Active; 'I' for Inactive)
REMARK    1  A    between atoms: N_5  and  C_15
REMARK    2  A    between atoms: N_6  and  C_10
REMARK    3  A    between atoms: N_9  and  C_19
REMARK    4  A    between atoms: C_11  and  C_14
REMARK    5  A    between atoms: C_17  and  C_18
REMARK                            x       y       z     vdW  Elec       q    Type
REMARK                         _______ _______ _______ _____ _____    ______ ____
ROOT
ATOM      5  N   UNL     1     -18.116   3.346  25.850  0.00  0.00    -0.293 NA
ATOM     10  C   UNL     1     -17.014   2.942  23.836  0.00  0.00    +0.090 C 
ATOM     11  C   UNL     1     -17.503   2.018  26.044  0.00  0.00    +0.147 C 
ATOM     12  C   UNL     1     -16.644   1.800  24.783  0.00  0.00    +0.052 C 
ATOM     13  C   UNL     1     -18.315   3.489  24.405  0.00  0.00    +0.107 C 
ATOM     15  C   UNL     1     -19.361   3.517  26.590  0.00  0.00    +0.105 C 
ENDROOT
BRANCH  10   6
ATOM      4  O   UNL     1     -16.138   4.415  21.540  0.00  0.00    -0.252 OA
ATOM      6  N   UNL     1     -15.987   3.958  23.802  0.00  0.00    -0.295 N 
ATOM      9  N   UNL     1     -14.605   5.554  22.905  0.00  0.00    -0.267 N 
ATOM     16  C   UNL     1     -15.619   4.633  22.633  0.00  0.00    +0.304 C 
ATOM     30  H   UNL     1     -15.461   4.140  24.651  0.00  0.00    +0.151 HD
ATOM     31  H   UNL     1     -14.283   5.612  23.868  0.00  0.00    +0.156 HD
BRANCH   9  19
ATOM      1  F   UNL     1     -11.978   5.121  22.078  0.00  0.00    -0.203 F 
ATOM      2  F   UNL     1     -12.088   8.988  19.354  0.00  0.00    -0.205 F 
ATOM     19  C   UNL     1     -13.960   6.428  21.998  0.00  0.00    +0.070 A 
ATOM     22  C   UNL     1     -12.644   6.184  21.605  0.00  0.00    +0.147 A 
ATOM     23  C   UNL     1     -14.642   7.538  21.499  0.00  0.00    +0.029 A 
ATOM     26  C   UNL     1     -12.012   7.048  20.710  0.00  0.00    +0.078 A 
ATOM     27  C   UNL     1     -14.010   8.402  20.606  0.00  0.00    +0.040 A 
ATOM     29  C   UNL     1     -12.695   8.157  20.211  0.00  0.00    +0.126 A 
ENDBRANCH   9  19
ENDBRANCH  10   6
BRANCH  11  14
ATOM      3  O   UNL     1     -16.407   0.647  27.744  0.00  0.00    -0.336 OA
ATOM      7  N   UNL     1     -16.232   2.853  28.095  0.00  0.00    -0.190 NA
ATOM      8  N   UNL     1     -15.669   0.797  28.925  0.00  0.00    -0.056 NA
ATOM     14  C   UNL     1     -16.698   1.906  27.321  0.00  0.00    +0.245 A 
ATOM     17  C   UNL     1     -15.608   2.124  29.065  0.00  0.00    +0.202 A 
BRANCH  17  18
ATOM     18  C   UNL     1     -14.931   2.755  30.162  0.00  0.00    +0.022 A 
ATOM     20  C   UNL     1     -13.816   2.145  30.736  0.00  0.00    +0.012 A 
ATOM     21  C   UNL     1     -15.389   3.976  30.656  0.00  0.00    +0.012 A 
ATOM     24  C   UNL     1     -13.158   2.757  31.803  0.00  0.00    +0.001 A 
ATOM     25  C   UNL     1     -14.732   4.588  31.723  0.00  0.00    +0.001 A 
ATOM     28  C   UNL     1     -13.615   3.978  32.297  0.00  0.00    +0.000 A 
ENDBRANCH  17  18
ENDBRANCH  11  14
TORSDOF 4
ENDMDL
MODEL 6
REMARK VINA RESULT:      -7.1      2.239      3.221
REMARK  Name = 25338776
REMARK  5 active torsions:
REMARK  status: ('A' for Active; 'I' for Inactive)
REMARK    1  A    between atoms: N_5  and  C_15
REMARK    2  A    between atoms: N_6  and  C_10
REMARK    3  A    between atoms: N_9  and  C_19
REMARK    4  A    between atoms: C_11  and  C_14
REMARK    5  A    between atoms: C_17  and  C_18
REMARK                            x       y       z     vdW  Elec       q    Type
REMARK                         _______ _______ _______ _____ _____    ______ ____
ROOT
ATOM      5  N   UNL     1     -17.870   4.543  24.840  0.00  0.00    -0.293 NA
ATOM     10  C   UNL     1     -16.510   3.827  23.088  0.00  0.00    +0.090 C 
ATOM     11  C   UNL     1     -17.438   3.195  25.257  0.00  0.00    +0.147 C 
ATOM     12  C   UNL     1     -16.417   2.767  24.186  0.00  0.00    +0.052 C 
ATOM     13  C   UNL     1     -17.820   4.544  23.375  0.00  0.00    +0.107 C 
ATOM     15  C   UNL     1     -19.193   4.902  25.339  0.00  0.00    +0.105 C 
ENDROOT
BRANCH  10   6
ATOM      4  O   UNL     1     -15.419   5.310  20.894  0.00  0.00    -0.252 OA
ATOM      6  N   UNL     1     -15.391   4.739  23.134  0.00  0.00    -0.295 N 
ATOM      9  N   UNL     1     -13.832   6.233  22.357  0.00  0.00    -0.267 N 
ATOM     16  C   UNL     1     -14.919   5.427  22.011  0.00  0.00    +0.304 C 
ATOM     30  H   UNL     1     -14.879   4.831  24.006  0.00  0.00    +0.151 HD
ATOM     31  H   UNL     1     -13.540   6.216  23.331  0.00  0.00    +0.156 HD
BRANCH   9  19
ATOM      1  F   UNL     1     -14.520   8.908  21.981  0.00  0.00    -0.203 F 
ATOM      2  F   UNL     1     -10.862   9.544  19.049  0.00  0.00    -0.205 F 
ATOM     19  C   UNL     1     -13.076   7.080  21.514  0.00  0.00    +0.070 A 
ATOM     22  C   UNL     1     -13.447   8.414  21.346  0.00  0.00    +0.147 A 
ATOM     23  C   UNL     1     -11.957   6.578  20.848  0.00  0.00    +0.029 A 
ATOM     26  C   UNL     1     -12.698   9.247  20.514  0.00  0.00    +0.078 A 
ATOM     27  C   UNL     1     -11.210   7.411  20.015  0.00  0.00    +0.040 A 
ATOM     29  C   UNL     1     -11.580   8.745  19.849  0.00  0.00    +0.126 A 
ENDBRANCH   9  19
ENDBRANCH  10   6
BRANCH  11  14
ATOM      3  O   UNL     1     -16.599   4.353  27.239  0.00  0.00    -0.336 OA
ATOM      7  N   UNL     1     -16.577   2.118  27.407  0.00  0.00    -0.190 NA
ATOM      8  N   UNL     1     -16.082   4.062  28.508  0.00  0.00    -0.056 NA
ATOM     14  C   UNL     1     -16.863   3.153  26.658  0.00  0.00    +0.245 A 
ATOM     17  C   UNL     1     -16.101   2.726  28.532  0.00  0.00    +0.202 A 
BRANCH  17  18
ATOM     18  C   UNL     1     -15.652   1.968  29.664  0.00  0.00    +0.022 A 
ATOM     20  C   UNL     1     -15.283   2.623  30.839  0.00  0.00    +0.012 A 
ATOM     21  C   UNL     1     -15.582   0.577  29.590  0.00  0.00    +0.012 A 
ATOM     24  C   UNL     1     -14.846   1.886  31.940  0.00  0.00    +0.001 A 
ATOM     25  C   UNL     1     -15.144  -0.160  30.690  0.00  0.00    +0.001 A 
ATOM     28  C   UNL     1     -14.776   0.496  31.866  0.00  0.00    +0.000 A 
ENDBRANCH  17  18
ENDBRANCH  11  14
TORSDOF 4
ENDMDL
MODEL 7
REMARK VINA RESULT:      -7.1     20.634     22.844
REMARK  Name = 25338776
REMARK  5 active torsions:
REMARK  status: ('A' for Active; 'I' for Inactive)
REMARK    1  A    between atoms: N_5  and  C_15
REMARK    2  A    between atoms: N_6  and  C_10
REMARK    3  A    between atoms: N_9  and  C_19
REMARK    4  A    between atoms: C_11  and  C_14
REMARK    5  A    between atoms: C_17  and  C_18
REMARK                            x       y       z     vdW  Elec       q    Type
REMARK                         _______ _______ _______ _____ _____    ______ ____
ROOT
ATOM      5  N   UNL     1      -3.542 -12.221  11.743  0.00  0.00    -0.293 NA
ATOM     10  C   UNL     1      -3.404 -10.382  10.316  0.00  0.00    +0.090 C 
ATOM     11  C   UNL     1      -2.511 -11.368  12.364  0.00  0.00    +0.147 C 
ATOM     12  C   UNL     1      -2.514 -10.079  11.521  0.00  0.00    +0.052 C 
ATOM     13  C   UNL     1      -3.519 -11.899  10.312  0.00  0.00    +0.107 C 
ATOM     15  C   UNL     1      -3.333 -13.643  11.984  0.00  0.00    +0.105 C 
ENDROOT
BRANCH  10   6
ATOM      4  O   UNL     1      -5.085  -9.481   8.179  0.00  0.00    -0.252 OA
ATOM      6  N   UNL     1      -4.700  -9.758  10.442  0.00  0.00    -0.295 N 
ATOM      9  N   UNL     1      -6.663  -8.777   9.768  0.00  0.00    -0.267 N 
ATOM     16  C   UNL     1      -5.460  -9.345   9.342  0.00  0.00    +0.304 C 
ATOM     30  H   UNL     1      -5.044  -9.544  11.373  0.00  0.00    +0.151 HD
ATOM     31  H   UNL     1      -6.822  -8.741  10.772  0.00  0.00    +0.156 HD
BRANCH   9  19
ATOM      1  F   UNL     1      -8.961 -10.243   9.185  0.00  0.00    -0.203 F 
ATOM      2  F   UNL     1     -10.724  -6.664   6.643  0.00  0.00    -0.205 F 
ATOM     19  C   UNL     1      -7.701  -8.241   8.972  0.00  0.00    +0.070 A 
ATOM     22  C   UNL     1      -8.838  -9.001   8.698  0.00  0.00    +0.147 A 
ATOM     23  C   UNL     1      -7.585  -6.949   8.458  0.00  0.00    +0.029 A 
ATOM     26  C   UNL     1      -9.860  -8.467   7.911  0.00  0.00    +0.078 A 
ATOM     27  C   UNL     1      -8.607  -6.416   7.671  0.00  0.00    +0.040 A 
ATOM     29  C   UNL     1      -9.744  -7.175   7.399  0.00  0.00    +0.126 A 
ENDBRANCH   9  19
ENDBRANCH  10   6
BRANCH  11  14
ATOM      3  O   UNL     1      -1.697 -10.634  14.548  0.00  0.00    -0.336 OA
ATOM      7  N   UNL     1      -3.849 -11.257  14.536  0.00  0.00    -0.190 NA
ATOM      8  N   UNL     1      -2.159 -10.466  15.860  0.00  0.00    -0.056 NA
ATOM     14  C   UNL     1      -2.755 -11.102  13.835  0.00  0.00    +0.245 A 
ATOM     17  C   UNL     1      -3.434 -10.854  15.772  0.00  0.00    +0.202 A 
BRANCH  17  18
ATOM     18  C   UNL     1      -4.322 -10.851  16.900  0.00  0.00    +0.022 A 
ATOM     20  C   UNL     1      -5.528 -10.155  16.835  0.00  0.00    +0.012 A 
ATOM     21  C   UNL     1      -3.977 -11.543  18.061  0.00  0.00    +0.012 A 
ATOM     24  C   UNL     1      -6.391 -10.151  17.931  0.00  0.00    +0.001 A 
ATOM     25  C   UNL     1      -4.839 -11.539  19.157  0.00  0.00    +0.001 A 
ATOM     28  C   UNL     1      -6.047 -10.842  19.092  0.00  0.00    +0.000 A 
ENDBRANCH  17  18
ENDBRANCH  11  14
TORSDOF 4
ENDMDL
MODEL 8
REMARK VINA RESULT:      -7.0     36.843     38.191
REMARK  Name = 25338776
REMARK  5 active torsions:
REMARK  status: ('A' for Active; 'I' for Inactive)
REMARK    1  A    between atoms: N_5  and  C_15
REMARK    2  A    between atoms: N_6  and  C_10
REMARK    3  A    between atoms: N_9  and  C_19
REMARK    4  A    between atoms: C_11  and  C_14
REMARK    5  A    between atoms: C_17  and  C_18
REMARK                            x       y       z     vdW  Elec       q    Type
REMARK                         _______ _______ _______ _____ _____    ______ ____
ROOT
ATOM      5  N   UNL     1       6.497   7.296  -5.052  0.00  0.00    -0.293 NA
ATOM     10  C   UNL     1       4.375   6.660  -4.326  0.00  0.00    +0.090 C 
ATOM     11  C   UNL     1       6.695   6.968  -3.627  0.00  0.00    +0.147 C 
ATOM     12  C   UNL     1       5.338   6.400  -3.168  0.00  0.00    +0.052 C 
ATOM     13  C   UNL     1       5.092   7.695  -5.180  0.00  0.00    +0.107 C 
ATOM     15  C   UNL     1       7.403   8.332  -5.534  0.00  0.00    +0.105 C 
ENDROOT
BRANCH  10   6
ATOM      4  O   UNL     1       2.194   4.846  -3.931  0.00  0.00    -0.252 OA
ATOM      6  N   UNL     1       4.108   5.455  -5.076  0.00  0.00    -0.295 N 
ATOM      9  N   UNL     1       3.014   3.536  -5.697  0.00  0.00    -0.267 N 
ATOM     16  C   UNL     1       3.014   4.621  -4.817  0.00  0.00    +0.304 C 
ATOM     30  H   UNL     1       4.783   5.163  -5.776  0.00  0.00    +0.151 HD
ATOM     31  H   UNL     1       3.769   3.496  -6.377  0.00  0.00    +0.156 HD
BRANCH   9  19
ATOM      1  F   UNL     1       0.697   3.718  -7.236  0.00  0.00    -0.203 F 
ATOM      2  F   UNL     1      -0.624  -0.639  -5.948  0.00  0.00    -0.205 F 
ATOM     19  C   UNL     1       2.083   2.472  -5.764  0.00  0.00    +0.070 A 
ATOM     22  C   UNL     1       0.933   2.595  -6.542  0.00  0.00    +0.147 A 
ATOM     23  C   UNL     1       2.319   1.299  -5.046  0.00  0.00    +0.029 A 
ATOM     26  C   UNL     1       0.018   1.543  -6.606  0.00  0.00    +0.078 A 
ATOM     27  C   UNL     1       1.403   0.248  -5.109  0.00  0.00    +0.040 A 
ATOM     29  C   UNL     1       0.254   0.370  -5.889  0.00  0.00    +0.126 A 
ENDBRANCH   9  19
ENDBRANCH  10   6
BRANCH  11  14
ATOM      3  O   UNL     1       8.064   5.076  -4.348  0.00  0.00    -0.336 OA
ATOM      7  N   UNL     1       8.660   5.934  -2.365  0.00  0.00    -0.190 NA
ATOM      8  N   UNL     1       9.154   4.315  -3.906  0.00  0.00    -0.056 NA
ATOM     14  C   UNL     1       7.840   6.007  -3.383  0.00  0.00    +0.245 A 
ATOM     17  C   UNL     1       9.447   4.881  -2.731  0.00  0.00    +0.202 A 
BRANCH  17  18
ATOM     18  C   UNL     1      10.522   4.420  -1.900  0.00  0.00    +0.022 A 
ATOM     20  C   UNL     1      11.330   3.367  -2.326  0.00  0.00    +0.012 A 
ATOM     21  C   UNL     1      10.757   5.024  -0.664  0.00  0.00    +0.012 A 
ATOM     24  C   UNL     1      12.375   2.918  -1.518  0.00  0.00    +0.001 A 
ATOM     25  C   UNL     1      11.800   4.575   0.144  0.00  0.00    +0.001 A 
ATOM     28  C   UNL     1      12.610   3.521  -0.283  0.00  0.00    +0.000 A 
ENDBRANCH  17  18
ENDBRANCH  11  14
TORSDOF 4
ENDMDL
MODEL 9
REMARK VINA RESULT:      -6.8     32.385     35.580
REMARK  Name = 25338776
REMARK  5 active torsions:
REMARK  status: ('A' for Active; 'I' for Inactive)
REMARK    1  A    between atoms: N_5  and  C_15
REMARK    2  A    between atoms: N_6  and  C_10
REMARK    3  A    between atoms: N_9  and  C_19
REMARK    4  A    between atoms: C_11  and  C_14
REMARK    5  A    between atoms: C_17  and  C_18
REMARK                            x       y       z     vdW  Elec       q    Type
REMARK                         _______ _______ _______ _____ _____    ______ ____
ROOT
ATOM      5  N   UNL     1       9.724   7.104   6.723  0.00  0.00    -0.293 NA
ATOM     10  C   UNL     1      11.678   6.563   5.572  0.00  0.00    +0.090 C 
ATOM     11  C   UNL     1      10.154   8.387   6.135  0.00  0.00    +0.147 C 
ATOM     12  C   UNL     1      11.358   8.021   5.245  0.00  0.00    +0.052 C 
ATOM     13  C   UNL     1      10.944   6.306   6.880  0.00  0.00    +0.107 C 
ATOM     15  C   UNL     1       9.011   7.262   7.985  0.00  0.00    +0.105 C 
ENDROOT
BRANCH  10   6
ATOM      4  O   UNL     1      12.820   6.252   2.964  0.00  0.00    -0.252 OA
ATOM      6  N   UNL     1      11.221   5.672   4.531  0.00  0.00    -0.295 N 
ATOM      9  N   UNL     1      11.181   4.642   2.481  0.00  0.00    -0.267 N 
ATOM     16  C   UNL     1      11.839   5.581   3.279  0.00  0.00    +0.304 C 
ATOM     30  H   UNL     1      10.371   5.140   4.689  0.00  0.00    +0.151 HD
ATOM     31  H   UNL     1      10.381   4.170   2.893  0.00  0.00    +0.156 HD
BRANCH   9  19
ATOM      1  F   UNL     1      13.420   3.085   1.899  0.00  0.00    -0.203 F 
ATOM      2  F   UNL     1      12.390   3.146  -2.718  0.00  0.00    -0.205 F 
ATOM     19  C   UNL     1      11.492   4.258   1.155  0.00  0.00    +0.070 A 
ATOM     22  C   UNL     1      12.620   3.479   0.897  0.00  0.00    +0.147 A 
ATOM     23  C   UNL     1      10.668   4.662   0.104  0.00  0.00    +0.029 A 
ATOM     26  C   UNL     1      12.923   3.102  -0.412  0.00  0.00    +0.078 A 
ATOM     27  C   UNL     1      10.972   4.286  -1.204  0.00  0.00    +0.040 A 
ATOM     29  C   UNL     1      12.099   3.506  -1.462  0.00  0.00    +0.126 A 
ENDBRANCH   9  19
ENDBRANCH  10   6
BRANCH  11  14
ATOM      3  O   UNL     1       8.664  10.303   5.851  0.00  0.00    -0.336 OA
ATOM      7  N   UNL     1       8.420   8.716   4.289  0.00  0.00    -0.190 NA
ATOM      8  N   UNL     1       7.657  10.756   4.989  0.00  0.00    -0.056 NA
ATOM     14  C   UNL     1       9.058   9.096   5.367  0.00  0.00    +0.245 A 
ATOM     17  C   UNL     1       7.572   9.766   4.095  0.00  0.00    +0.202 A 
BRANCH  17  18
ATOM     18  C   UNL     1       6.649   9.796   2.997  0.00  0.00    +0.022 A 
ATOM     20  C   UNL     1       7.089   9.490   1.710  0.00  0.00    +0.012 A 
ATOM     21  C   UNL     1       5.313  10.133   3.216  0.00  0.00    +0.012 A 
ATOM     24  C   UNL     1       6.192   9.519   0.641  0.00  0.00    +0.001 A 
ATOM     25  C   UNL     1       4.417  10.163   2.149  0.00  0.00    +0.001 A 
ATOM     28  C   UNL     1       4.857   9.856   0.860  0.00  0.00    +0.000 A 
ENDBRANCH  17  18
ENDBRANCH  11  14
TORSDOF 4
ENDMDL
MODEL 10
REMARK VINA RESULT:      -6.8     19.340     21.241
REMARK  Name = 25338776
REMARK  5 active torsions:
REMARK  status: ('A' for Active; 'I' for Inactive)
REMARK    1  A    between atoms: N_5  and  C_15
REMARK    2  A    between atoms: N_6  and  C_10
REMARK    3  A    between atoms: N_9  and  C_19
REMARK    4  A    between atoms: C_11  and  C_14
REMARK    5  A    between atoms: C_17  and  C_18
REMARK                            x       y       z     vdW  Elec       q    Type
REMARK                         _______ _______ _______ _____ _____    ______ ____
ROOT
ATOM      5  N   UNL     1      -4.805 -12.786  16.432  0.00  0.00    -0.293 NA
ATOM     10  C   UNL     1      -3.372 -11.174  15.548  0.00  0.00    +0.090 C 
ATOM     11  C   UNL     1      -4.554 -11.877  17.567  0.00  0.00    +0.147 C 
ATOM     12  C   UNL     1      -3.733 -10.721  16.962  0.00  0.00    +0.052 C 
ATOM     13  C   UNL     1      -3.631 -12.673  15.561  0.00  0.00    +0.107 C 
ATOM     15  C   UNL     1      -5.046 -14.164  16.844  0.00  0.00    +0.105 C 
ENDROOT
BRANCH  10   6
ATOM      4  O   UNL     1      -3.123 -11.404  12.703  0.00  0.00    -0.252 OA
ATOM      6  N   UNL     1      -4.183 -10.510  14.554  0.00  0.00    -0.295 N 
ATOM      9  N   UNL     1      -4.921  -9.914  12.464  0.00  0.00    -0.267 N 
ATOM     16  C   UNL     1      -3.994 -10.678  13.178  0.00  0.00    +0.304 C 
ATOM     30  H   UNL     1      -4.874  -9.836  14.867  0.00  0.00    +0.151 HD
ATOM     31  H   UNL     1      -5.579  -9.364  13.010  0.00  0.00    +0.156 HD
BRANCH   9  19
ATOM      1  F   UNL     1      -6.947 -11.253  11.096  0.00  0.00    -0.203 F 
ATOM      2  F   UNL     1      -5.464  -9.489   6.964  0.00  0.00    -0.205 F 
ATOM     19  C   UNL     1      -5.063  -9.807  11.061  0.00  0.00    +0.070 A 
ATOM     22  C   UNL     1      -6.086 -10.491  10.406  0.00  0.00    +0.147 A 
ATOM     23  C   UNL     1      -4.174  -9.017  10.332  0.00  0.00    +0.029 A 
ATOM     26  C   UNL     1      -6.223 -10.383   9.021  0.00  0.00    +0.078 A 
ATOM     27  C   UNL     1      -4.310  -8.910   8.947  0.00  0.00    +0.040 A 
ATOM     29  C   UNL     1      -5.334  -9.592   8.293  0.00  0.00    +0.126 A 
ENDBRANCH   9  19
ENDBRANCH  10   6
BRANCH  11  14
ATOM      3  O   UNL     1      -5.749 -11.205  19.590  0.00  0.00    -0.336 OA
ATOM      7  N   UNL     1      -6.993 -11.135  17.727  0.00  0.00    -0.190 NA
ATOM      8  N   UNL     1      -7.020 -10.769  19.986  0.00  0.00    -0.056 NA
ATOM     14  C   UNL     1      -5.820 -11.397  18.246  0.00  0.00    +0.245 A 
ATOM     17  C   UNL     1      -7.695 -10.754  18.833  0.00  0.00    +0.202 A 
BRANCH  17  18
ATOM     18  C   UNL     1      -9.073 -10.362  18.751  0.00  0.00    +0.022 A 
ATOM     20  C   UNL     1      -9.508  -9.563  17.694  0.00  0.00    +0.012 A 
ATOM     21  C   UNL     1      -9.977 -10.778  19.728  0.00  0.00    +0.012 A 
ATOM     24  C   UNL     1     -10.848  -9.181  17.614  0.00  0.00    +0.001 A 
ATOM     25  C   UNL     1     -11.315 -10.396  19.649  0.00  0.00    +0.001 A 
ATOM     28  C   UNL     1     -11.751  -9.597  18.591  0.00  0.00    +0.000 A 
ENDBRANCH  17  18
ENDBRANCH  11  14
TORSDOF 4
ENDMDL
