MODEL 1
REMARK VINA RESULT:      -7.9      0.000      0.000
REMARK  Name = 45783983
REMARK  13 active torsions:
REMARK  status: ('A' for Active; 'I' for Inactive)
REMARK    1  A    between atoms: N_3  and  C_13
REMARK    2  A    between atoms: N_7  and  C_33
REMARK    3  A    between atoms: N_7  and  C_34
REMARK    4  A    between atoms: N_7  and  C_35
REMARK    5  A    between atoms: C_8  and  C_12
REMARK    6  A    between atoms: C_9  and  C_13
REMARK    7  A    between atoms: C_11  and  C_16
REMARK    8  A    between atoms: C_12  and  C_22
REMARK    9  A    between atoms: C_12  and  C_23
REMARK   10  A    between atoms: C_15  and  C_24
REMARK   11  A    between atoms: C_16  and  C_25
REMARK   12  A    between atoms: C_19  and  C_26
REMARK   13  A    between atoms: C_27  and  C_28
REMARK                            x       y       z     vdW  Elec       q    Type
REMARK                         _______ _______ _______ _____ _____    ______ ____
ROOT
ATOM      8  C   UNL     1      13.711   9.445  18.210  0.00  0.00    +0.000 C 
ATOM      9  C   UNL     1      12.527   9.895  19.097  0.00  0.00    +0.029 C 
ATOM     10  C   UNL     1      14.654   8.524  18.997  0.00  0.00    +0.012 C 
ATOM     11  C   UNL     1      13.948   7.282  19.582  0.00  0.00    +0.024 C 
ATOM     14  C   UNL     1      11.948   8.764  19.907  0.00  0.00    -0.023 C 
ATOM     15  C   UNL     1      12.560   7.586  20.125  0.00  0.00    -0.073 C 
ATOM     24  C   UNL     1      11.853   6.492  20.877  0.00  0.00    +0.039 C 
ENDROOT
BRANCH   8  12
ATOM     12  C   UNL     1      13.219   8.766  16.924  0.00  0.00    -0.013 C 
ATOM     22  C   UNL     1      14.214   8.991  15.790  0.00  0.00    +0.007 C 
ATOM     23  C   UNL     1      11.837   9.287  16.542  0.00  0.00    +0.007 C 
ENDBRANCH   8  12
BRANCH   9  13
ATOM     13  C   UNL     1      12.928  11.036  20.040  0.00  0.00    +0.092 C 
BRANCH  13   3
ATOM      3  N   UNL     1      11.928  11.212  21.093  0.00  0.00    -0.302 NA
ATOM     17  C   UNL     1      12.271  10.401  22.267  0.00  0.00    +0.085 C 
ATOM     18  C   UNL     1      11.806  12.631  21.452  0.00  0.00    +0.085 C 
ATOM     19  C   UNL     1      10.898  11.958  23.740  0.00  0.00    +0.077 C 
ATOM     20  C   UNL     1      11.194  10.511  23.348  0.00  0.00    +0.028 C 
ATOM     21  C   UNL     1      10.719  12.845  22.509  0.00  0.00    +0.028 C 
BRANCH  19  26
ATOM      2  O   UNL     1      12.379  13.646  24.565  0.00  0.00    -0.276 OA
ATOM      5  N   UNL     1      12.484  11.551  25.510  0.00  0.00    -0.329 N 
ATOM     26  C   UNL     1      11.982  12.486  24.636  0.00  0.00    +0.214 C 
ATOM     36  H   UNL     1      12.181  10.583  25.515  0.00  0.00    +0.145 HD
ATOM     37  H   UNL     1      13.219  11.796  26.164  0.00  0.00    +0.145 HD
ENDBRANCH  19  26
ENDBRANCH  13   3
ENDBRANCH   9  13
BRANCH  11  16
ATOM     16  C   UNL     1      14.871   6.641  20.627  0.00  0.00    +0.105 C 
BRANCH  16  25
ATOM      1  O   UNL     1      17.287   6.363  20.817  0.00  0.00    -0.420 OA
ATOM      4  N   UNL     1      16.452   5.782  18.824  0.00  0.00    -0.112 NA
ATOM      6  N   UNL     1      17.819   5.576  18.792  0.00  0.00    -0.107 NA
ATOM     25  C   UNL     1      16.187   6.242  20.025  0.00  0.00    +0.218 A 
ATOM     27  C   UNL     1      18.264   5.927  19.974  0.00  0.00    +0.248 A 
BRANCH  27  28
ATOM     28  C   UNL     1      19.596   5.924  20.508  0.00  0.00    +0.039 A 
ATOM     29  C   UNL     1      20.093   7.059  21.149  0.00  0.00    +0.015 A 
ATOM     30  C   UNL     1      20.393   4.786  20.386  0.00  0.00    +0.015 A 
ATOM     31  C   UNL     1      21.387   7.055  21.668  0.00  0.00    +0.024 A 
ATOM     32  C   UNL     1      21.687   4.782  20.906  0.00  0.00    +0.024 A 
ATOM     33  C   UNL     1      22.185   5.918  21.546  0.00  0.00    +0.029 A 
BRANCH  33   7
ATOM      7  N   UNL     1      23.494   5.915  22.070  0.00  0.00    -0.336 N 
ATOM     34  C   UNL     1      23.807   5.144  23.258  0.00  0.00    +0.129 C 
ATOM     35  C   UNL     1      24.545   6.677  21.426  0.00  0.00    +0.129 C 
ENDBRANCH  33   7
ENDBRANCH  27  28
ENDBRANCH  16  25
ENDBRANCH  11  16
TORSDOF 8
ENDMDL
MODEL 2
REMARK VINA RESULT:      -7.9     26.874     31.210
REMARK  Name = 45783983
REMARK  13 active torsions:
REMARK  status: ('A' for Active; 'I' for Inactive)
REMARK    1  A    between atoms: N_3  and  C_13
REMARK    2  A    between atoms: N_7  and  C_33
REMARK    3  A    between atoms: N_7  and  C_34
REMARK    4  A    between atoms: N_7  and  C_35
REMARK    5  A    between atoms: C_8  and  C_12
REMARK    6  A    between atoms: C_9  and  C_13
REMARK    7  A    between atoms: C_11  and  C_16
REMARK    8  A    between atoms: C_12  and  C_22
REMARK    9  A    between atoms: C_12  and  C_23
REMARK   10  A    between atoms: C_15  and  C_24
REMARK   11  A    between atoms: C_16  and  C_25
REMARK   12  A    between atoms: C_19  and  C_26
REMARK   13  A    between atoms: C_27  and  C_28
REMARK                            x       y       z     vdW  Elec       q    Type
REMARK                         _______ _______ _______ _____ _____    ______ ____
ROOT
ATOM      8  C   UNL     1      -3.317 -10.688  15.035  0.00  0.00    +0.000 C 
ATOM      9  C   UNL     1      -4.315 -11.546  14.225  0.00  0.00    +0.029 C 
ATOM     10  C   UNL     1      -3.956 -10.215  16.349  0.00  0.00    +0.012 C 
ATOM     11  C   UNL     1      -4.471 -11.373  17.229  0.00  0.00    +0.024 C 
ATOM     14  C   UNL     1      -5.056 -12.538  15.084  0.00  0.00    -0.023 C 
ATOM     15  C   UNL     1      -5.127 -12.486  16.426  0.00  0.00    -0.073 C 
ATOM     24  C   UNL     1      -5.823 -13.578  17.192  0.00  0.00    +0.039 C 
ENDROOT
BRANCH   8  12
ATOM     12  C   UNL     1      -2.009 -11.448  15.297  0.00  0.00    -0.013 C 
ATOM     22  C   UNL     1      -0.906 -10.482  15.715  0.00  0.00    +0.007 C 
ATOM     23  C   UNL     1      -1.597 -12.238  14.060  0.00  0.00    +0.007 C 
ENDBRANCH   8  12
BRANCH   9  13
ATOM     13  C   UNL     1      -5.328 -10.677  13.471  0.00  0.00    +0.092 C 
BRANCH  13   3
ATOM      3  N   UNL     1      -4.660  -9.878  12.443  0.00  0.00    -0.302 NA
ATOM     17  C   UNL     1      -3.836 -10.735  11.583  0.00  0.00    +0.085 C 
ATOM     18  C   UNL     1      -5.647  -9.132  11.651  0.00  0.00    +0.085 C 
ATOM     19  C   UNL     1      -3.979  -9.002   9.724  0.00  0.00    +0.077 C 
ATOM     20  C   UNL     1      -3.067  -9.906  10.551  0.00  0.00    +0.028 C 
ATOM     21  C   UNL     1      -4.964  -8.240  10.610  0.00  0.00    +0.028 C 
BRANCH  19  26
ATOM      2  O   UNL     1      -4.421 -10.979   8.453  0.00  0.00    -0.276 OA
ATOM      5  N   UNL     1      -5.663  -9.096   8.002  0.00  0.00    -0.329 N 
ATOM     26  C   UNL     1      -4.698  -9.804   8.679  0.00  0.00    +0.214 C 
ATOM     36  H   UNL     1      -5.839  -8.110   8.165  0.00  0.00    +0.145 HD
ATOM     37  H   UNL     1      -6.214  -9.537   7.273  0.00  0.00    +0.145 HD
ENDBRANCH  19  26
ENDBRANCH  13   3
ENDBRANCH   9  13
BRANCH  11  16
ATOM     16  C   UNL     1      -5.393 -10.793  18.310  0.00  0.00    +0.105 C 
BRANCH  16  25
ATOM      1  O   UNL     1      -7.793 -10.365  18.387  0.00  0.00    -0.420 OA
ATOM      4  N   UNL     1      -6.762  -9.484  16.608  0.00  0.00    -0.112 NA
ATOM      6  N   UNL     1      -8.105  -9.168  16.523  0.00  0.00    -0.107 NA
ATOM     25  C   UNL     1      -6.626 -10.184  17.710  0.00  0.00    +0.218 A 
ATOM     27  C   UNL     1      -8.668  -9.701  17.581  0.00  0.00    +0.248 A 
BRANCH  27  28
ATOM     28  C   UNL     1     -10.035  -9.693  18.013  0.00  0.00    +0.039 A 
ATOM     29  C   UNL     1     -10.371 -10.185  19.275  0.00  0.00    +0.015 A 
ATOM     30  C   UNL     1     -11.030  -9.194  17.173  0.00  0.00    +0.015 A 
ATOM     31  C   UNL     1     -11.701 -10.177  19.695  0.00  0.00    +0.024 A 
ATOM     32  C   UNL     1     -12.359  -9.186  17.593  0.00  0.00    +0.024 A 
ATOM     33  C   UNL     1     -12.695  -9.678  18.855  0.00  0.00    +0.029 A 
BRANCH  33   7
ATOM      7  N   UNL     1     -14.040  -9.671  19.280  0.00  0.00    -0.336 N 
ATOM     34  C   UNL     1     -14.375  -9.970  20.658  0.00  0.00    +0.129 C 
ATOM     35  C   UNL     1     -15.104  -9.358  18.346  0.00  0.00    +0.129 C 
ENDBRANCH  33   7
ENDBRANCH  27  28
ENDBRANCH  16  25
ENDBRANCH  11  16
TORSDOF 8
ENDMDL
MODEL 3
REMARK VINA RESULT:      -7.6     26.896     30.863
REMARK  Name = 45783983
REMARK  13 active torsions:
REMARK  status: ('A' for Active; 'I' for Inactive)
REMARK    1  A    between atoms: N_3  and  C_13
REMARK    2  A    between atoms: N_7  and  C_33
REMARK    3  A    between atoms: N_7  and  C_34
REMARK    4  A    between atoms: N_7  and  C_35
REMARK    5  A    between atoms: C_8  and  C_12
REMARK    6  A    between atoms: C_9  and  C_13
REMARK    7  A    between atoms: C_11  and  C_16
REMARK    8  A    between atoms: C_12  and  C_22
REMARK    9  A    between atoms: C_12  and  C_23
REMARK   10  A    between atoms: C_15  and  C_24
REMARK   11  A    between atoms: C_16  and  C_25
REMARK   12  A    between atoms: C_19  and  C_26
REMARK   13  A    between atoms: C_27  and  C_28
REMARK                            x       y       z     vdW  Elec       q    Type
REMARK                         _______ _______ _______ _____ _____    ______ ____
ROOT
ATOM      8  C   UNL     1      -3.946 -12.020  12.199  0.00  0.00    +0.000 C 
ATOM      9  C   UNL     1      -3.060 -11.541  13.373  0.00  0.00    +0.029 C 
ATOM     10  C   UNL     1      -4.269 -10.852  11.257  0.00  0.00    +0.012 C 
ATOM     11  C   UNL     1      -3.013 -10.149  10.700  0.00  0.00    +0.024 C 
ATOM     14  C   UNL     1      -1.951 -10.625  12.925  0.00  0.00    -0.023 C 
ATOM     15  C   UNL     1      -1.905 -10.004  11.731  0.00  0.00    -0.073 C 
ATOM     24  C   UNL     1      -0.706  -9.179  11.352  0.00  0.00    +0.039 C 
ENDROOT
BRANCH   8  12
ATOM     12  C   UNL     1      -3.287 -13.179  11.439  0.00  0.00    -0.013 C 
ATOM     22  C   UNL     1      -4.230 -13.718  10.369  0.00  0.00    +0.007 C 
ATOM     23  C   UNL     1      -2.877 -14.285  12.406  0.00  0.00    +0.007 C 
ENDBRANCH   8  12
BRANCH   9  13
ATOM     13  C   UNL     1      -3.887 -10.838  14.455  0.00  0.00    +0.092 C 
BRANCH  13   3
ATOM      3  N   UNL     1      -3.884 -11.615  15.695  0.00  0.00    -0.302 NA
ATOM     17  C   UNL     1      -4.149 -10.744  16.847  0.00  0.00    +0.085 C 
ATOM     18  C   UNL     1      -4.868 -12.703  15.622  0.00  0.00    +0.085 C 
ATOM     19  C   UNL     1      -4.980 -12.754  18.170  0.00  0.00    +0.077 C 
ATOM     20  C   UNL     1      -4.070 -11.527  18.160  0.00  0.00    +0.028 C 
ATOM     21  C   UNL     1      -4.836 -13.568  16.885  0.00  0.00    +0.028 C 
BRANCH  19  26
ATOM      2  O   UNL     1      -6.720 -11.179  18.634  0.00  0.00    -0.276 OA
ATOM      5  N   UNL     1      -7.302 -13.384  18.327  0.00  0.00    -0.329 N 
ATOM     26  C   UNL     1      -6.407 -12.342  18.395  0.00  0.00    +0.214 C 
ATOM     36  H   UNL     1      -7.016 -14.347  18.182  0.00  0.00    +0.145 HD
ATOM     37  H   UNL     1      -8.294 -13.224  18.461  0.00  0.00    +0.145 HD
ENDBRANCH  19  26
ENDBRANCH  13   3
ENDBRANCH   9  13
BRANCH  11  16
ATOM     16  C   UNL     1      -3.435  -8.809  10.084  0.00  0.00    +0.105 C 
BRANCH  16  25
ATOM      1  O   UNL     1      -5.717  -8.113   9.577  0.00  0.00    -0.420 OA
ATOM      4  N   UNL     1      -4.956  -9.772   8.283  0.00  0.00    -0.112 NA
ATOM      6  N   UNL     1      -6.250  -9.482   7.890  0.00  0.00    -0.107 NA
ATOM     25  C   UNL     1      -4.688  -8.949   9.270  0.00  0.00    +0.218 A 
ATOM     27  C   UNL     1      -6.654  -8.509   8.671  0.00  0.00    +0.248 A 
BRANCH  27  28
ATOM     28  C   UNL     1      -7.905  -7.810   8.717  0.00  0.00    +0.039 A 
ATOM     29  C   UNL     1      -8.017  -6.541   8.145  0.00  0.00    +0.015 A 
ATOM     30  C   UNL     1      -9.011  -8.397   9.332  0.00  0.00    +0.015 A 
ATOM     31  C   UNL     1      -9.234  -5.862   8.190  0.00  0.00    +0.024 A 
ATOM     32  C   UNL     1     -10.227  -7.718   9.377  0.00  0.00    +0.024 A 
ATOM     33  C   UNL     1     -10.339  -6.449   8.806  0.00  0.00    +0.029 A 
BRANCH  33   7
ATOM      7  N   UNL     1     -11.569  -5.762   8.852  0.00  0.00    -0.336 N 
ATOM     34  C   UNL     1     -12.737  -6.301   8.181  0.00  0.00    +0.129 C 
ATOM     35  C   UNL     1     -11.685  -4.510   9.575  0.00  0.00    +0.129 C 
ENDBRANCH  33   7
ENDBRANCH  27  28
ENDBRANCH  16  25
ENDBRANCH  11  16
TORSDOF 8
ENDMDL
MODEL 4
REMARK VINA RESULT:      -7.6      1.680      2.138
REMARK  Name = 45783983
REMARK  13 active torsions:
REMARK  status: ('A' for Active; 'I' for Inactive)
REMARK    1  A    between atoms: N_3  and  C_13
REMARK    2  A    between atoms: N_7  and  C_33
REMARK    3  A    between atoms: N_7  and  C_34
REMARK    4  A    between atoms: N_7  and  C_35
REMARK    5  A    between atoms: C_8  and  C_12
REMARK    6  A    between atoms: C_9  and  C_13
REMARK    7  A    between atoms: C_11  and  C_16
REMARK    8  A    between atoms: C_12  and  C_22
REMARK    9  A    between atoms: C_12  and  C_23
REMARK   10  A    between atoms: C_15  and  C_24
REMARK   11  A    between atoms: C_16  and  C_25
REMARK   12  A    between atoms: C_19  and  C_26
REMARK   13  A    between atoms: C_27  and  C_28
REMARK                            x       y       z     vdW  Elec       q    Type
REMARK                         _______ _______ _______ _____ _____    ______ ____
ROOT
ATOM      8  C   UNL     1      14.607  11.016  20.424  0.00  0.00    +0.000 C 
ATOM      9  C   UNL     1      13.255  11.294  21.120  0.00  0.00    +0.029 C 
ATOM     10  C   UNL     1      14.997   9.539  20.576  0.00  0.00    +0.012 C 
ATOM     11  C   UNL     1      13.929   8.566  20.033  0.00  0.00    +0.024 C 
ATOM     14  C   UNL     1      12.228  10.228  20.839  0.00  0.00    -0.023 C 
ATOM     15  C   UNL     1      12.507   9.008  20.342  0.00  0.00    -0.073 C 
ATOM     24  C   UNL     1      11.395   8.050  20.017  0.00  0.00    +0.039 C 
ENDROOT
BRANCH   8  12
ATOM     12  C   UNL     1      14.571  11.430  18.946  0.00  0.00    -0.013 C 
ATOM     22  C   UNL     1      15.953  11.881  18.487  0.00  0.00    +0.007 C 
ATOM     23  C   UNL     1      13.542  12.535  18.729  0.00  0.00    +0.007 C 
ENDBRANCH   8  12
BRANCH   9  13
ATOM     13  C   UNL     1      13.420  11.447  22.637  0.00  0.00    +0.092 C 
BRANCH  13   3
ATOM      3  N   UNL     1      12.174  11.909  23.248  0.00  0.00    -0.302 NA
ATOM     17  C   UNL     1      12.248  11.796  24.710  0.00  0.00    +0.085 C 
ATOM     18  C   UNL     1      11.884  13.291  22.843  0.00  0.00    +0.085 C 
ATOM     19  C   UNL     1      10.457  13.591  24.936  0.00  0.00    +0.077 C 
ATOM     20  C   UNL     1      10.923  12.201  25.363  0.00  0.00    +0.028 C 
ATOM     21  C   UNL     1      10.551  13.773  23.422  0.00  0.00    +0.028 C 
BRANCH  19  26
ATOM      2  O   UNL     1      11.782  15.578  25.067  0.00  0.00    -0.276 OA
ATOM      5  N   UNL     1      11.306  14.457  27.019  0.00  0.00    -0.329 N 
ATOM     26  C   UNL     1      11.241  14.648  25.659  0.00  0.00    +0.214 C 
ATOM     36  H   UNL     1      10.898  13.652  27.483  0.00  0.00    +0.145 HD
ATOM     37  H   UNL     1      11.809  15.110  27.610  0.00  0.00    +0.145 HD
ENDBRANCH  19  26
ENDBRANCH  13   3
ENDBRANCH   9  13
BRANCH  11  16
ATOM     16  C   UNL     1      14.242   7.156  20.552  0.00  0.00    +0.105 C 
BRANCH  16  25
ATOM      1  O   UNL     1      16.598   6.588  20.834  0.00  0.00    -0.420 OA
ATOM      4  N   UNL     1      15.804   6.212  18.776  0.00  0.00    -0.112 NA
ATOM      6  N   UNL     1      17.138   5.850  18.792  0.00  0.00    -0.107 NA
ATOM     25  C   UNL     1      15.533   6.638  19.988  0.00  0.00    +0.218 A 
ATOM     27  C   UNL     1      17.560   6.085  20.012  0.00  0.00    +0.248 A 
BRANCH  27  28
ATOM     28  C   UNL     1      18.854   5.899  20.602  0.00  0.00    +0.039 A 
ATOM     29  C   UNL     1      19.236   6.670  21.701  0.00  0.00    +0.015 A 
ATOM     30  C   UNL     1      19.729   4.947  20.080  0.00  0.00    +0.015 A 
ATOM     31  C   UNL     1      20.494   6.488  22.275  0.00  0.00    +0.024 A 
ATOM     32  C   UNL     1      20.986   4.765  20.655  0.00  0.00    +0.024 A 
ATOM     33  C   UNL     1      21.369   5.537  21.753  0.00  0.00    +0.029 A 
BRANCH  33   7
ATOM      7  N   UNL     1      22.641   5.354  22.334  0.00  0.00    -0.336 N 
ATOM     34  C   UNL     1      23.799   5.097  21.499  0.00  0.00    +0.129 C 
ATOM     35  C   UNL     1      22.810   5.428  23.772  0.00  0.00    +0.129 C 
ENDBRANCH  33   7
ENDBRANCH  27  28
ENDBRANCH  16  25
ENDBRANCH  11  16
TORSDOF 8
ENDMDL
MODEL 5
REMARK VINA RESULT:      -7.6     27.390     31.051
REMARK  Name = 45783983
REMARK  13 active torsions:
REMARK  status: ('A' for Active; 'I' for Inactive)
REMARK    1  A    between atoms: N_3  and  C_13
REMARK    2  A    between atoms: N_7  and  C_33
REMARK    3  A    between atoms: N_7  and  C_34
REMARK    4  A    between atoms: N_7  and  C_35
REMARK    5  A    between atoms: C_8  and  C_12
REMARK    6  A    between atoms: C_9  and  C_13
REMARK    7  A    between atoms: C_11  and  C_16
REMARK    8  A    between atoms: C_12  and  C_22
REMARK    9  A    between atoms: C_12  and  C_23
REMARK   10  A    between atoms: C_15  and  C_24
REMARK   11  A    between atoms: C_16  and  C_25
REMARK   12  A    between atoms: C_19  and  C_26
REMARK   13  A    between atoms: C_27  and  C_28
REMARK                            x       y       z     vdW  Elec       q    Type
REMARK                         _______ _______ _______ _____ _____    ______ ____
ROOT
ATOM      8  C   UNL     1      -3.939 -11.992  12.311  0.00  0.00    +0.000 C 
ATOM      9  C   UNL     1      -3.007 -11.424  13.406  0.00  0.00    +0.029 C 
ATOM     10  C   UNL     1      -4.378 -10.880  11.347  0.00  0.00    +0.012 C 
ATOM     11  C   UNL     1      -3.194 -10.145  10.684  0.00  0.00    +0.024 C 
ATOM     14  C   UNL     1      -1.973 -10.477  12.852  0.00  0.00    -0.023 C 
ATOM     15  C   UNL     1      -2.032  -9.906  11.635  0.00  0.00    -0.073 C 
ATOM     24  C   UNL     1      -0.900  -9.043  11.148  0.00  0.00    +0.039 C 
ENDROOT
BRANCH   8  12
ATOM     12  C   UNL     1      -3.274 -13.150  11.556  0.00  0.00    -0.013 C 
ATOM     22  C   UNL     1      -4.281 -13.836  10.640  0.00  0.00    +0.007 C 
ATOM     23  C   UNL     1      -2.668 -14.148  12.538  0.00  0.00    +0.007 C 
ENDBRANCH   8  12
BRANCH   9  13
ATOM     13  C   UNL     1      -3.798 -10.715  14.511  0.00  0.00    +0.092 C 
BRANCH  13   3
ATOM      3  N   UNL     1      -3.844 -11.536  15.722  0.00  0.00    -0.302 NA
ATOM     17  C   UNL     1      -4.042 -10.692  16.906  0.00  0.00    +0.085 C 
ATOM     18  C   UNL     1      -4.902 -12.548  15.615  0.00  0.00    +0.085 C 
ATOM     19  C   UNL     1      -5.008 -12.685  18.161  0.00  0.00    +0.077 C 
ATOM     20  C   UNL     1      -4.014 -11.526  18.189  0.00  0.00    +0.028 C 
ATOM     21  C   UNL     1      -4.927 -13.459  16.846  0.00  0.00    +0.028 C 
BRANCH  19  26
ATOM      2  O   UNL     1      -6.779 -11.085  18.010  0.00  0.00    -0.276 OA
ATOM      5  N   UNL     1      -7.183 -13.052  19.133  0.00  0.00    -0.329 N 
ATOM     26  C   UNL     1      -6.401 -12.183  18.410  0.00  0.00    +0.214 C 
ATOM     36  H   UNL     1      -6.834 -13.931  19.501  0.00  0.00    +0.145 HD
ATOM     37  H   UNL     1      -8.143 -12.818  19.360  0.00  0.00    +0.145 HD
ENDBRANCH  19  26
ENDBRANCH  13   3
ENDBRANCH   9  13
BRANCH  11  16
ATOM     16  C   UNL     1      -3.718  -8.852  10.044  0.00  0.00    +0.105 C 
BRANCH  16  25
ATOM      1  O   UNL     1      -4.454  -9.874   7.955  0.00  0.00    -0.420 OA
ATOM      4  N   UNL     1      -6.062  -8.772   9.053  0.00  0.00    -0.112 NA
ATOM      6  N   UNL     1      -6.614  -9.295   7.898  0.00  0.00    -0.107 NA
ATOM     25  C   UNL     1      -4.800  -9.134   9.044  0.00  0.00    +0.218 A 
ATOM     27  C   UNL     1      -5.641  -9.930   7.289  0.00  0.00    +0.248 A 
BRANCH  27  28
ATOM     28  C   UNL     1      -5.633 -10.660   6.055  0.00  0.00    +0.039 A 
ATOM     29  C   UNL     1      -4.580 -11.529   5.765  0.00  0.00    +0.015 A 
ATOM     30  C   UNL     1      -6.678 -10.503   5.144  0.00  0.00    +0.015 A 
ATOM     31  C   UNL     1      -4.573 -12.239   4.565  0.00  0.00    +0.024 A 
ATOM     32  C   UNL     1      -6.671 -11.214   3.945  0.00  0.00    +0.024 A 
ATOM     33  C   UNL     1      -5.617 -12.082   3.655  0.00  0.00    +0.029 A 
BRANCH  33   7
ATOM      7  N   UNL     1      -5.609 -12.799   2.441  0.00  0.00    -0.336 N 
ATOM     34  C   UNL     1      -6.844 -13.030   1.717  0.00  0.00    +0.129 C 
ATOM     35  C   UNL     1      -4.366 -13.310   1.897  0.00  0.00    +0.129 C 
ENDBRANCH  33   7
ENDBRANCH  27  28
ENDBRANCH  16  25
ENDBRANCH  11  16
TORSDOF 8
ENDMDL
MODEL 6
REMARK VINA RESULT:      -7.5      2.187      3.108
REMARK  Name = 45783983
REMARK  13 active torsions:
REMARK  status: ('A' for Active; 'I' for Inactive)
REMARK    1  A    between atoms: N_3  and  C_13
REMARK    2  A    between atoms: N_7  and  C_33
REMARK    3  A    between atoms: N_7  and  C_34
REMARK    4  A    between atoms: N_7  and  C_35
REMARK    5  A    between atoms: C_8  and  C_12
REMARK    6  A    between atoms: C_9  and  C_13
REMARK    7  A    between atoms: C_11  and  C_16
REMARK    8  A    between atoms: C_12  and  C_22
REMARK    9  A    between atoms: C_12  and  C_23
REMARK   10  A    between atoms: C_15  and  C_24
REMARK   11  A    between atoms: C_16  and  C_25
REMARK   12  A    between atoms: C_19  and  C_26
REMARK   13  A    between atoms: C_27  and  C_28
REMARK                            x       y       z     vdW  Elec       q    Type
REMARK                         _______ _______ _______ _____ _____    ______ ____
ROOT
ATOM      8  C   UNL     1      16.455  12.188  20.422  0.00  0.00    +0.000 C 
ATOM      9  C   UNL     1      15.152  12.999  20.230  0.00  0.00    +0.029 C 
ATOM     10  C   UNL     1      16.137  10.702  20.637  0.00  0.00    +0.012 C 
ATOM     11  C   UNL     1      15.309  10.081  19.492  0.00  0.00    +0.024 C 
ATOM     14  C   UNL     1      14.174  12.313  19.312  0.00  0.00    -0.023 C 
ATOM     15  C   UNL     1      14.233  11.016  18.961  0.00  0.00    -0.073 C 
ATOM     24  C   UNL     1      13.253  10.454  17.968  0.00  0.00    +0.039 C 
ENDROOT
BRANCH   8  12
ATOM     12  C   UNL     1      17.415  12.384  19.240  0.00  0.00    -0.013 C 
ATOM     22  C   UNL     1      18.843  12.047  19.654  0.00  0.00    +0.007 C 
ATOM     23  C   UNL     1      17.327  13.814  18.715  0.00  0.00    +0.007 C 
ENDBRANCH   8  12
BRANCH   9  13
ATOM     13  C   UNL     1      14.466  13.293  21.569  0.00  0.00    +0.092 C 
BRANCH  13   3
ATOM      3  N   UNL     1      13.224  12.529  21.693  0.00  0.00    -0.302 NA
ATOM     17  C   UNL     1      13.396  11.422  22.641  0.00  0.00    +0.085 C 
ATOM     18  C   UNL     1      12.121  13.407  22.105  0.00  0.00    +0.085 C 
ATOM     19  C   UNL     1      10.884  11.384  23.047  0.00  0.00    +0.077 C 
ATOM     20  C   UNL     1      12.131  10.564  22.723  0.00  0.00    +0.028 C 
ATOM     21  C   UNL     1      10.798  12.639  22.179  0.00  0.00    +0.028 C 
BRANCH  19  26
ATOM      2  O   UNL     1      10.323  12.758  24.923  0.00  0.00    -0.276 OA
ATOM      5  N   UNL     1      11.485  10.810  25.309  0.00  0.00    -0.329 N 
ATOM     26  C   UNL     1      10.853  11.731  24.507  0.00  0.00    +0.214 C 
ATOM     36  H   UNL     1      11.965   9.996  24.941  0.00  0.00    +0.145 HD
ATOM     37  H   UNL     1      11.526  10.940  26.314  0.00  0.00    +0.145 HD
ENDBRANCH  19  26
ENDBRANCH  13   3
ENDBRANCH   9  13
BRANCH  11  16
ATOM     16  C   UNL     1      14.750   8.734  19.967  0.00  0.00    +0.105 C 
BRANCH  16  25
ATOM      1  O   UNL     1      16.821   7.533  20.436  0.00  0.00    -0.420 OA
ATOM      4  N   UNL     1      15.616   6.664  18.764  0.00  0.00    -0.112 NA
ATOM      6  N   UNL     1      16.752   5.891  18.918  0.00  0.00    -0.107 NA
ATOM     25  C   UNL     1      15.699   7.610  19.669  0.00  0.00    +0.218 A 
ATOM     27  C   UNL     1      17.425   6.434  19.905  0.00  0.00    +0.248 A 
BRANCH  27  28
ATOM     28  C   UNL     1      18.674   6.057  20.499  0.00  0.00    +0.039 A 
ATOM     29  C   UNL     1      19.443   5.044  19.923  0.00  0.00    +0.015 A 
ATOM     30  C   UNL     1      19.124   6.704  21.650  0.00  0.00    +0.015 A 
ATOM     31  C   UNL     1      20.658   4.678  20.501  0.00  0.00    +0.024 A 
ATOM     32  C   UNL     1      20.339   6.338  22.227  0.00  0.00    +0.024 A 
ATOM     33  C   UNL     1      21.106   5.324  21.652  0.00  0.00    +0.029 A 
BRANCH  33   7
ATOM      7  N   UNL     1      22.335   4.953  22.236  0.00  0.00    -0.336 N 
ATOM     34  C   UNL     1      23.108   3.857  21.685  0.00  0.00    +0.129 C 
ATOM     35  C   UNL     1      22.845   5.666  23.391  0.00  0.00    +0.129 C 
ENDBRANCH  33   7
ENDBRANCH  27  28
ENDBRANCH  16  25
ENDBRANCH  11  16
TORSDOF 8
ENDMDL
MODEL 7
REMARK VINA RESULT:      -7.4     28.323     33.116
REMARK  Name = 45783983
REMARK  13 active torsions:
REMARK  status: ('A' for Active; 'I' for Inactive)
REMARK    1  A    between atoms: N_3  and  C_13
REMARK    2  A    between atoms: N_7  and  C_33
REMARK    3  A    between atoms: N_7  and  C_34
REMARK    4  A    between atoms: N_7  and  C_35
REMARK    5  A    between atoms: C_8  and  C_12
REMARK    6  A    between atoms: C_9  and  C_13
REMARK    7  A    between atoms: C_11  and  C_16
REMARK    8  A    between atoms: C_12  and  C_22
REMARK    9  A    between atoms: C_12  and  C_23
REMARK   10  A    between atoms: C_15  and  C_24
REMARK   11  A    between atoms: C_16  and  C_25
REMARK   12  A    between atoms: C_19  and  C_26
REMARK   13  A    between atoms: C_27  and  C_28
REMARK                            x       y       z     vdW  Elec       q    Type
REMARK                         _______ _______ _______ _____ _____    ______ ____
ROOT
ATOM      8  C   UNL     1     -15.138   2.396  29.833  0.00  0.00    +0.000 C 
ATOM      9  C   UNL     1     -16.424   2.205  28.995  0.00  0.00    +0.029 C 
ATOM     10  C   UNL     1     -15.003   3.856  30.286  0.00  0.00    +0.012 C 
ATOM     11  C   UNL     1     -16.221   4.362  31.090  0.00  0.00    +0.024 C 
ATOM     14  C   UNL     1     -17.616   2.904  29.597  0.00  0.00    -0.023 C 
ATOM     15  C   UNL     1     -17.547   3.860  30.541  0.00  0.00    -0.073 C 
ATOM     24  C   UNL     1     -18.806   4.431  31.135  0.00  0.00    +0.039 C 
ENDROOT
BRANCH   8  12
ATOM     12  C   UNL     1     -15.104   1.438  31.032  0.00  0.00    -0.013 C 
ATOM     22  C   UNL     1     -13.853   1.677  31.869  0.00  0.00    +0.007 C 
ATOM     23  C   UNL     1     -15.169  -0.010  30.557  0.00  0.00    +0.007 C 
ENDBRANCH   8  12
BRANCH   9  13
ATOM     13  C   UNL     1     -16.236   2.683  27.551  0.00  0.00    +0.092 C 
BRANCH  13   3
ATOM      3  N   UNL     1     -17.390   2.316  26.730  0.00  0.00    -0.302 NA
ATOM     17  C   UNL     1     -17.259   2.880  25.381  0.00  0.00    +0.085 C 
ATOM     18  C   UNL     1     -17.538   0.856  26.676  0.00  0.00    +0.085 C 
ATOM     19  C   UNL     1     -18.819   1.082  24.481  0.00  0.00    +0.077 C 
ATOM     20  C   UNL     1     -18.495   2.574  24.532  0.00  0.00    +0.028 C 
ATOM     21  C   UNL     1     -18.777   0.452  25.873  0.00  0.00    +0.028 C 
BRANCH  19  26
ATOM      2  O   UNL     1     -17.482  -0.763  23.751  0.00  0.00    -0.276 OA
ATOM      5  N   UNL     1     -17.519   1.136  22.452  0.00  0.00    -0.329 N 
ATOM     26  C   UNL     1     -17.885   0.378  23.539  0.00  0.00    +0.214 C 
ATOM     36  H   UNL     1     -17.820   2.096  22.323  0.00  0.00    +0.145 HD
ATOM     37  H   UNL     1     -16.892   0.762  21.747  0.00  0.00    +0.145 HD
ENDBRANCH  19  26
ENDBRANCH  13   3
ENDBRANCH   9  13
BRANCH  11  16
ATOM     16  C   UNL     1     -16.150   5.892  31.174  0.00  0.00    +0.105 C 
BRANCH  16  25
ATOM      1  O   UNL     1     -14.260   7.176  32.029  0.00  0.00    -0.420 OA
ATOM      4  N   UNL     1     -15.384   6.045  33.598  0.00  0.00    -0.112 NA
ATOM      6  N   UNL     1     -14.349   6.720  34.218  0.00  0.00    -0.107 NA
ATOM     25  C   UNL     1     -15.292   6.340  32.322  0.00  0.00    +0.218 A 
ATOM     27  C   UNL     1     -13.720   7.367  33.265  0.00  0.00    +0.248 A 
BRANCH  27  28
ATOM     28  C   UNL     1     -12.575   8.228  33.322  0.00  0.00    +0.039 A 
ATOM     29  C   UNL     1     -12.208   8.821  34.532  0.00  0.00    +0.015 A 
ATOM     30  C   UNL     1     -11.826   8.472  32.171  0.00  0.00    +0.015 A 
ATOM     31  C   UNL     1     -11.093   9.658  34.587  0.00  0.00    +0.024 A 
ATOM     32  C   UNL     1     -10.712   9.308  32.227  0.00  0.00    +0.024 A 
ATOM     33  C   UNL     1     -10.346   9.902  33.436  0.00  0.00    +0.029 A 
BRANCH  33   7
ATOM      7  N   UNL     1      -9.219  10.748  33.493  0.00  0.00    -0.336 N 
ATOM     34  C   UNL     1      -8.291  10.661  34.603  0.00  0.00    +0.129 C 
ATOM     35  C   UNL     1      -8.971  11.713  32.439  0.00  0.00    +0.129 C 
ENDBRANCH  33   7
ENDBRANCH  27  28
ENDBRANCH  16  25
ENDBRANCH  11  16
TORSDOF 8
ENDMDL
MODEL 8
REMARK VINA RESULT:      -7.4     27.022     30.838
REMARK  Name = 45783983
REMARK  13 active torsions:
REMARK  status: ('A' for Active; 'I' for Inactive)
REMARK    1  A    between atoms: N_3  and  C_13
REMARK    2  A    between atoms: N_7  and  C_33
REMARK    3  A    between atoms: N_7  and  C_34
REMARK    4  A    between atoms: N_7  and  C_35
REMARK    5  A    between atoms: C_8  and  C_12
REMARK    6  A    between atoms: C_9  and  C_13
REMARK    7  A    between atoms: C_11  and  C_16
REMARK    8  A    between atoms: C_12  and  C_22
REMARK    9  A    between atoms: C_12  and  C_23
REMARK   10  A    between atoms: C_15  and  C_24
REMARK   11  A    between atoms: C_16  and  C_25
REMARK   12  A    between atoms: C_19  and  C_26
REMARK   13  A    between atoms: C_27  and  C_28
REMARK                            x       y       z     vdW  Elec       q    Type
REMARK                         _______ _______ _______ _____ _____    ______ ____
ROOT
ATOM      8  C   UNL     1      -3.724 -10.457  15.320  0.00  0.00    +0.000 C 
ATOM      9  C   UNL     1      -4.881 -11.188  14.601  0.00  0.00    +0.029 C 
ATOM     10  C   UNL     1      -4.077 -10.208  16.793  0.00  0.00    +0.012 C 
ATOM     11  C   UNL     1      -4.428 -11.498  17.564  0.00  0.00    +0.024 C 
ATOM     14  C   UNL     1      -5.455 -12.313  15.423  0.00  0.00    -0.023 C 
ATOM     15  C   UNL     1      -5.254 -12.476  16.743  0.00  0.00    -0.073 C 
ATOM     24  C   UNL     1      -5.804 -13.685  17.450  0.00  0.00    +0.039 C 
ENDROOT
BRANCH   8  12
ATOM     12  C   UNL     1      -2.406 -11.234  15.189  0.00  0.00    -0.013 C 
ATOM     22  C   UNL     1      -1.246 -10.409  15.737  0.00  0.00    +0.007 C 
ATOM     23  C   UNL     1      -2.157 -11.618  13.735  0.00  0.00    +0.007 C 
ENDBRANCH   8  12
BRANCH   9  13
ATOM     13  C   UNL     1      -6.007 -10.222  14.214  0.00  0.00    +0.092 C 
BRANCH  13   3
ATOM      3  N   UNL     1      -6.383 -10.400  12.812  0.00  0.00    -0.302 NA
ATOM     17  C   UNL     1      -6.846  -9.130  12.240  0.00  0.00    +0.085 C 
ATOM     18  C   UNL     1      -5.255 -10.942  12.043  0.00  0.00    +0.085 C 
ATOM     19  C   UNL     1      -6.261  -9.970   9.909  0.00  0.00    +0.077 C 
ATOM     20  C   UNL     1      -7.319  -9.315  10.795  0.00  0.00    +0.028 C 
ATOM     21  C   UNL     1      -5.646 -11.195  10.584  0.00  0.00    +0.028 C 
BRANCH  19  26
ATOM      2  O   UNL     1      -4.008  -9.237   9.584  0.00  0.00    -0.276 OA
ATOM      5  N   UNL     1      -5.709  -7.749   9.152  0.00  0.00    -0.329 N 
ATOM     26  C   UNL     1      -5.206  -8.971   9.532  0.00  0.00    +0.214 C 
ATOM     36  H   UNL     1      -6.700  -7.532   9.169  0.00  0.00    +0.145 HD
ATOM     37  H   UNL     1      -5.088  -6.997   8.875  0.00  0.00    +0.145 HD
ENDBRANCH  19  26
ENDBRANCH  13   3
ENDBRANCH   9  13
BRANCH  11  16
ATOM     16  C   UNL     1      -5.103 -11.109  18.886  0.00  0.00    +0.105 C 
BRANCH  16  25
ATOM      1  O   UNL     1      -7.037 -10.121  17.776  0.00  0.00    -0.420 OA
ATOM      4  N   UNL     1      -7.554 -11.593  19.379  0.00  0.00    -0.112 NA
ATOM      6  N   UNL     1      -8.735 -11.116  18.840  0.00  0.00    -0.107 NA
ATOM     25  C   UNL     1      -6.590 -10.984  18.728  0.00  0.00    +0.218 A 
ATOM     27  C   UNL     1      -8.385 -10.261  17.909  0.00  0.00    +0.248 A 
BRANCH  27  28
ATOM     28  C   UNL     1      -9.188  -9.465  17.026  0.00  0.00    +0.039 A 
ATOM     29  C   UNL     1      -9.571  -9.973  15.784  0.00  0.00    +0.015 A 
ATOM     30  C   UNL     1      -9.588  -8.184  17.409  0.00  0.00    +0.015 A 
ATOM     31  C   UNL     1     -10.352  -9.199  14.926  0.00  0.00    +0.024 A 
ATOM     32  C   UNL     1     -10.369  -7.412  16.551  0.00  0.00    +0.024 A 
ATOM     33  C   UNL     1     -10.751  -7.919  15.308  0.00  0.00    +0.029 A 
BRANCH  33   7
ATOM      7  N   UNL     1     -11.539  -7.137  14.440  0.00  0.00    -0.336 N 
ATOM     34  C   UNL     1     -11.790  -5.740  14.735  0.00  0.00    +0.129 C 
ATOM     35  C   UNL     1     -12.105  -7.717  13.237  0.00  0.00    +0.129 C 
ENDBRANCH  33   7
ENDBRANCH  27  28
ENDBRANCH  16  25
ENDBRANCH  11  16
TORSDOF 8
ENDMDL
MODEL 9
REMARK VINA RESULT:      -7.4      1.901      2.760
REMARK  Name = 45783983
REMARK  13 active torsions:
REMARK  status: ('A' for Active; 'I' for Inactive)
REMARK    1  A    between atoms: N_3  and  C_13
REMARK    2  A    between atoms: N_7  and  C_33
REMARK    3  A    between atoms: N_7  and  C_34
REMARK    4  A    between atoms: N_7  and  C_35
REMARK    5  A    between atoms: C_8  and  C_12
REMARK    6  A    between atoms: C_9  and  C_13
REMARK    7  A    between atoms: C_11  and  C_16
REMARK    8  A    between atoms: C_12  and  C_22
REMARK    9  A    between atoms: C_12  and  C_23
REMARK   10  A    between atoms: C_15  and  C_24
REMARK   11  A    between atoms: C_16  and  C_25
REMARK   12  A    between atoms: C_19  and  C_26
REMARK   13  A    between atoms: C_27  and  C_28
REMARK                            x       y       z     vdW  Elec       q    Type
REMARK                         _______ _______ _______ _____ _____    ______ ____
ROOT
ATOM      8  C   UNL     1      14.219  11.444  19.468  0.00  0.00    +0.000 C 
ATOM      9  C   UNL     1      13.355  11.346  20.747  0.00  0.00    +0.029 C 
ATOM     10  C   UNL     1      14.551  10.044  18.934  0.00  0.00    +0.012 C 
ATOM     11  C   UNL     1      13.300   9.186  18.645  0.00  0.00    +0.024 C 
ATOM     14  C   UNL     1      12.256  10.322  20.626  0.00  0.00    -0.023 C 
ATOM     15  C   UNL     1      12.207   9.358  19.688  0.00  0.00    -0.073 C 
ATOM     24  C   UNL     1      11.018   8.440  19.606  0.00  0.00    +0.039 C 
ENDROOT
BRANCH   8  12
ATOM     12  C   UNL     1      13.531  12.298  18.393  0.00  0.00    -0.013 C 
ATOM     22  C   UNL     1      14.411  12.402  17.152  0.00  0.00    +0.007 C 
ATOM     23  C   UNL     1      13.205  13.683  18.943  0.00  0.00    +0.007 C 
ENDBRANCH   8  12
BRANCH   9  13
ATOM     13  C   UNL     1      14.207  11.028  21.981  0.00  0.00    +0.092 C 
BRANCH  13   3
ATOM      3  N   UNL     1      13.969  12.009  23.040  0.00  0.00    -0.302 NA
ATOM     17  C   UNL     1      13.095  13.085  22.555  0.00  0.00    +0.085 C 
ATOM     18  C   UNL     1      13.392  11.358  24.223  0.00  0.00    +0.085 C 
ATOM     19  C   UNL     1      12.396  13.592  24.950  0.00  0.00    +0.077 C 
ATOM     20  C   UNL     1      12.900  14.162  23.625  0.00  0.00    +0.028 C 
ATOM     21  C   UNL     1      13.193  12.357  25.367  0.00  0.00    +0.028 C 
BRANCH  19  26
ATOM      2  O   UNL     1      10.472  12.185  25.160  0.00  0.00    -0.276 OA
ATOM      5  N   UNL     1      10.170  14.334  24.397  0.00  0.00    -0.329 N 
ATOM     26  C   UNL     1      10.928  13.285  24.860  0.00  0.00    +0.214 C 
ATOM     36  H   UNL     1      10.573  15.217  24.102  0.00  0.00    +0.145 HD
ATOM     37  H   UNL     1       9.165  14.242  24.296  0.00  0.00    +0.145 HD
ENDBRANCH  19  26
ENDBRANCH  13   3
ENDBRANCH   9  13
BRANCH  11  16
ATOM     16  C   UNL     1      13.738   7.726  18.473  0.00  0.00    +0.105 C 
BRANCH  16  25
ATOM      1  O   UNL     1      15.954   7.187  19.338  0.00  0.00    -0.420 OA
ATOM      4  N   UNL     1      14.308   6.961  20.835  0.00  0.00    -0.112 NA
ATOM      6  N   UNL     1      15.498   6.626  21.454  0.00  0.00    -0.107 NA
ATOM     25  C   UNL     1      14.623   7.281  19.601  0.00  0.00    +0.218 A 
ATOM     27  C   UNL     1      16.431   6.772  20.544  0.00  0.00    +0.248 A 
BRANCH  27  28
ATOM     28  C   UNL     1      17.848   6.567  20.622  0.00  0.00    +0.039 A 
ATOM     29  C   UNL     1      18.649   7.487  21.301  0.00  0.00    +0.015 A 
ATOM     30  C   UNL     1      18.426   5.450  20.020  0.00  0.00    +0.015 A 
ATOM     31  C   UNL     1      20.028   7.286  21.376  0.00  0.00    +0.024 A 
ATOM     32  C   UNL     1      19.804   5.250  20.096  0.00  0.00    +0.024 A 
ATOM     33  C   UNL     1      20.605   6.169  20.775  0.00  0.00    +0.029 A 
BRANCH  33   7
ATOM      7  N   UNL     1      21.999   5.969  20.851  0.00  0.00    -0.336 N 
ATOM     34  C   UNL     1      22.914   7.028  20.474  0.00  0.00    +0.129 C 
ATOM     35  C   UNL     1      22.535   4.703  21.313  0.00  0.00    +0.129 C 
ENDBRANCH  33   7
ENDBRANCH  27  28
ENDBRANCH  16  25
ENDBRANCH  11  16
TORSDOF 8
ENDMDL
MODEL 10
REMARK VINA RESULT:      -7.3     28.305     32.080
REMARK  Name = 45783983
REMARK  13 active torsions:
REMARK  status: ('A' for Active; 'I' for Inactive)
REMARK    1  A    between atoms: N_3  and  C_13
REMARK    2  A    between atoms: N_7  and  C_33
REMARK    3  A    between atoms: N_7  and  C_34
REMARK    4  A    between atoms: N_7  and  C_35
REMARK    5  A    between atoms: C_8  and  C_12
REMARK    6  A    between atoms: C_9  and  C_13
REMARK    7  A    between atoms: C_11  and  C_16
REMARK    8  A    between atoms: C_12  and  C_22
REMARK    9  A    between atoms: C_12  and  C_23
REMARK   10  A    between atoms: C_15  and  C_24
REMARK   11  A    between atoms: C_16  and  C_25
REMARK   12  A    between atoms: C_19  and  C_26
REMARK   13  A    between atoms: C_27  and  C_28
REMARK                            x       y       z     vdW  Elec       q    Type
REMARK                         _______ _______ _______ _____ _____    ______ ____
ROOT
ATOM      8  C   UNL     1     -14.620   5.613  33.287  0.00  0.00    +0.000 C 
ATOM      9  C   UNL     1     -16.083   5.313  32.885  0.00  0.00    +0.029 C 
ATOM     10  C   UNL     1     -14.077   6.807  32.490  0.00  0.00    +0.012 C 
ATOM     11  C   UNL     1     -14.927   8.086  32.649  0.00  0.00    +0.024 C 
ATOM     14  C   UNL     1     -16.918   6.562  32.766  0.00  0.00    -0.023 C 
ATOM     15  C   UNL     1     -16.422   7.809  32.672  0.00  0.00    -0.073 C 
ATOM     24  C   UNL     1     -17.348   8.994  32.645  0.00  0.00    +0.039 C 
ENDROOT
BRANCH   8  12
ATOM     12  C   UNL     1     -14.493   5.851  34.798  0.00  0.00    -0.013 C 
ATOM     22  C   UNL     1     -13.293   6.742  35.097  0.00  0.00    +0.007 C 
ATOM     23  C   UNL     1     -14.378   4.522  35.538  0.00  0.00    +0.007 C 
ENDBRANCH   8  12
BRANCH   9  13
ATOM     13  C   UNL     1     -16.160   4.528  31.570  0.00  0.00    +0.092 C 
BRANCH  13   3
ATOM      3  N   UNL     1     -15.132   3.488  31.529  0.00  0.00    -0.302 NA
ATOM     17  C   UNL     1     -15.591   2.285  32.235  0.00  0.00    +0.085 C 
ATOM     18  C   UNL     1     -14.773   3.176  30.139  0.00  0.00    +0.085 C 
ATOM     19  C   UNL     1     -13.963   0.873  30.880  0.00  0.00    +0.077 C 
ATOM     20  C   UNL     1     -14.497   1.215  32.270  0.00  0.00    +0.028 C 
ATOM     21  C   UNL     1     -13.653   2.133  30.074  0.00  0.00    +0.028 C 
BRANCH  19  26
ATOM      2  O   UNL     1     -15.290   0.220  29.000  0.00  0.00    -0.276 OA
ATOM      5  N   UNL     1     -15.387  -1.072  30.901  0.00  0.00    -0.329 N 
ATOM     26  C   UNL     1     -14.933  -0.012  30.152  0.00  0.00    +0.214 C 
ATOM     36  H   UNL     1     -15.122  -1.215  31.870  0.00  0.00    +0.145 HD
ATOM     37  H   UNL     1     -16.045  -1.738  30.512  0.00  0.00    +0.145 HD
ENDBRANCH  19  26
ENDBRANCH  13   3
ENDBRANCH   9  13
BRANCH  11  16
ATOM     16  C   UNL     1     -14.520   9.083  31.556  0.00  0.00    +0.105 C 
BRANCH  16  25
ATOM      1  O   UNL     1     -12.545   9.395  32.954  0.00  0.00    -0.420 OA
ATOM      4  N   UNL     1     -12.265  10.012  30.822  0.00  0.00    -0.112 NA
ATOM      6  N   UNL     1     -11.078  10.242  31.493  0.00  0.00    -0.107 NA
ATOM     25  C   UNL     1     -13.092   9.518  31.714  0.00  0.00    +0.218 A 
ATOM     27  C   UNL     1     -11.287   9.867  32.733  0.00  0.00    +0.248 A 
BRANCH  27  28
ATOM     28  C   UNL     1     -10.413   9.878  33.869  0.00  0.00    +0.039 A 
ATOM     29  C   UNL     1     -10.902   9.527  35.129  0.00  0.00    +0.015 A 
ATOM     30  C   UNL     1      -9.074  10.238  33.717  0.00  0.00    +0.015 A 
ATOM     31  C   UNL     1     -10.051   9.538  36.234  0.00  0.00    +0.024 A 
ATOM     32  C   UNL     1      -8.224  10.247  34.822  0.00  0.00    +0.024 A 
ATOM     33  C   UNL     1      -8.713   9.897  36.081  0.00  0.00    +0.029 A 
BRANCH  33   7
ATOM      7  N   UNL     1      -7.853   9.908  37.199  0.00  0.00    -0.336 N 
ATOM     34  C   UNL     1      -8.396   9.984  38.541  0.00  0.00    +0.129 C 
ATOM     35  C   UNL     1      -6.416   9.837  37.022  0.00  0.00    +0.129 C 
ENDBRANCH  33   7
ENDBRANCH  27  28
ENDBRANCH  16  25
ENDBRANCH  11  16
TORSDOF 8
ENDMDL
