REMARK  Name = 56775549
REMARK  8 active torsions:
REMARK  status: ('A' for Active; 'I' for Inactive)
REMARK    1  A    between atoms: O_3  and  C_20
REMARK    2  A    between atoms: O_3  and  C_21
REMARK    3  A    between atoms: N_4  and  C_7
REMARK    4  A    between atoms: N_4  and  C_8
REMARK    5  A    between atoms: N_5  and  C_17
REMARK    6  A    between atoms: C_7  and  C_11
REMARK    7  A    between atoms: C_11  and  C_16
REMARK    8  A    between atoms: C_19  and  C_20
REMARK                            x       y       z     vdW  Elec       q    Type
REMARK                         _______ _______ _______ _____ _____    ______ ____
ROOT
ATOM      1  O   UNL     1       0.625   2.117  -1.692  0.00  0.00    -0.376 OA
ATOM      7  C   UNL     1      -0.396   1.191  -0.062  0.00  0.00    +0.072 C 
ATOM      9  C   UNL     1       0.499   2.405  -0.281  0.00  0.00    +0.184 C 
ATOM     10  C   UNL     1      -0.139   0.899  -1.536  0.00  0.00    +0.184 C 
ENDROOT
BRANCH   7   4
ATOM      4  N   UNL     1      -1.781   1.648   0.094  0.00  0.00    -0.304 NA
ATOM     22  H   UNL     1      -2.145   2.201  -0.681  0.00  0.00    +0.123 HD
BRANCH   4   8
ATOM      5  N   UNL     1      -4.981  -1.108  -0.384  0.00  0.00    -0.305 NA
ATOM      8  C   UNL     1      -2.643   0.495   0.344  0.00  0.00    +0.057 C 
ATOM     12  C   UNL     1      -2.650  -0.435  -0.872  0.00  0.00    +0.034 C 
ATOM     13  C   UNL     1      -4.072   0.940   0.668  0.00  0.00    +0.034 C 
ATOM     14  C   UNL     1      -3.625  -1.598  -0.668  0.00  0.00    +0.085 C 
ATOM     15  C   UNL     1      -5.002  -0.267   0.821  0.00  0.00    +0.085 C 
ATOM     17  C   UNL     1      -5.911  -2.228  -0.241  0.00  0.00    +0.104 C 
ENDBRANCH   4   8
ENDBRANCH   7   4
BRANCH   7  11
ATOM     11  C   UNL     1       0.001   0.172   0.961  0.00  0.00    +0.085 C 
BRANCH  11  16
ATOM      2  O   UNL     1       3.585   0.186   1.419  0.00  0.00    -0.357 OA
ATOM      6  N   UNL     1       2.308   0.664   1.689  0.00  0.00    -0.083 NA
ATOM     16  C   UNL     1       1.496  -0.072   0.925  0.00  0.00    +0.086 A 
ATOM     18  C   UNL     1       2.196  -1.020   0.160  0.00  0.00    +0.073 A 
ATOM     19  C   UNL     1       3.505  -0.816   0.507  0.00  0.00    +0.163 A 
BRANCH  19  20
ATOM     20  C   UNL     1       4.772  -1.439   0.105  0.00  0.00    +0.236 C 
BRANCH  20   3
ATOM      3  O   UNL     1       5.492  -0.575  -0.779  0.00  0.00    -0.375 OA
ATOM     21  C   UNL     1       6.720  -1.159  -1.179  0.00  0.00    +0.194 C 
ENDBRANCH  20   3
ENDBRANCH  19  20
ENDBRANCH  11  16
ENDBRANCH   7  11
TORSDOF 6
