MODEL 1
REMARK VINA RESULT:      -7.7      0.000      0.000
REMARK  Name = 71694378
REMARK  10 active torsions:
REMARK  status: ('A' for Active; 'I' for Inactive)
REMARK    1  A    between atoms: N_5  and  C_22
REMARK    2  A    between atoms: N_5  and  C_23
REMARK    3  A    between atoms: N_7  and  C_30
REMARK    4  A    between atoms: N_7  and  C_34
REMARK    5  A    between atoms: N_7  and  C_36
REMARK    6  A    between atoms: C_10  and  C_15
REMARK    7  A    between atoms: C_15  and  C_18
REMARK    8  A    between atoms: C_22  and  C_27
REMARK    9  A    between atoms: C_34  and  C_37
REMARK   10  A    between atoms: C_37  and  C_39
REMARK                            x       y       z     vdW  Elec       q    Type
REMARK                         _______ _______ _______ _____ _____    ______ ____
ROOT
ATOM      1  O   UNL     1      20.999  11.002  22.965  0.00  0.00    -0.274 OA
ATOM      3  O   UNL     1      20.042   6.279  20.746  0.00  0.00    -0.488 OA
ATOM      4  N   UNL     1      22.408   9.166  22.990  0.00  0.00    -0.300 N 
ATOM      6  N   UNL     1      19.413   8.102  22.924  0.00  0.00    -0.304 NA
ATOM     10  C   UNL     1      23.967   7.876  20.893  0.00  0.00    +0.008 C 
ATOM     11  C   UNL     1      22.782   7.182  21.630  0.00  0.00    +0.032 C 
ATOM     12  C   UNL     1      23.778   9.409  20.962  0.00  0.00    +0.023 C 
ATOM     13  C   UNL     1      22.644   7.720  23.067  0.00  0.00    +0.115 C 
ATOM     14  C   UNL     1      23.519   9.908  22.386  0.00  0.00    +0.108 C 
ATOM     16  C   UNL     1      22.842   5.678  21.613  0.00  0.00    -0.023 C 
ATOM     17  C   UNL     1      21.192   9.808  23.223  0.00  0.00    +0.229 C 
ATOM     19  C   UNL     1      21.952   4.805  21.110  0.00  0.00    +0.010 C 
ATOM     20  C   UNL     1      20.062   9.020  23.857  0.00  0.00    +0.178 C 
ATOM     21  C   UNL     1      20.607   5.004  20.459  0.00  0.00    +0.256 C 
ATOM     24  C   UNL     1      18.944   8.712  21.680  0.00  0.00    +0.120 C 
ATOM     25  C   UNL     1      18.171   7.724  20.824  0.00  0.00    +0.010 A 
ATOM     26  C   UNL     1      18.748   6.520  20.358  0.00  0.00    +0.125 A 
ATOM     28  C   UNL     1      16.849   8.032  20.464  0.00  0.00    +0.031 A 
ATOM     29  C   UNL     1      17.997   5.661  19.546  0.00  0.00    +0.048 A 
ATOM     30  C   UNL     1      16.109   7.165  19.661  0.00  0.00    +0.030 A 
ATOM     31  C   UNL     1      16.683   5.983  19.202  0.00  0.00    +0.027 A 
ATOM     44  H   UNL     1      18.630   7.658  23.401  0.00  0.00    +0.123 HD
ENDROOT
BRANCH  30   7
ATOM      7  N   UNL     1      14.783   7.488  19.309  0.00  0.00    -0.333 N 
ATOM     36  C   UNL     1      14.515   8.421  18.233  0.00  0.00    +0.129 C 
BRANCH   7  34
ATOM     34  C   UNL     1      13.669   6.885  20.013  0.00  0.00    +0.111 C 
BRANCH  34  37
ATOM     37  C   UNL     1      12.354   7.570  19.644  0.00  0.00    +0.074 C 
BRANCH  37  39
ATOM      9  N   UNL     1      11.210   7.849  21.777  0.00  0.00    -0.260 NA
ATOM     39  C   UNL     1      11.824   8.462  20.740  0.00  0.00    +0.043 A 
ATOM     40  C   UNL     1      11.988   9.834  20.638  0.00  0.00    +0.023 A 
ATOM     41  C   UNL     1      11.488  10.628  21.664  0.00  0.00    +0.003 A 
ATOM     42  C   UNL     1      10.737   8.654  22.756  0.00  0.00    +0.111 A 
ATOM     43  C   UNL     1      10.850  10.034  22.747  0.00  0.00    +0.020 A 
ENDBRANCH  37  39
ENDBRANCH  34  37
ENDBRANCH   7  34
ENDBRANCH  30   7
BRANCH  10  15
ATOM     15  C   UNL     1      25.358   7.480  21.403  0.00  0.00    +0.100 C 
BRANCH  15  18
ATOM      2  O   UNL     1      25.867   6.217  19.430  0.00  0.00    -0.276 OA
ATOM      5  N   UNL     1      26.493   5.286  21.460  0.00  0.00    -0.300 N 
ATOM     18  C   UNL     1      25.922   6.283  20.661  0.00  0.00    +0.216 C 
ATOM     23  C   UNL     1      26.546   5.386  22.915  0.00  0.00    +0.132 C 
BRANCH   5  22
ATOM     22  C   UNL     1      27.080   4.072  20.900  0.00  0.00    +0.144 C 
BRANCH  22  27
ATOM      8  N   UNL     1      26.018   0.708  22.263  0.00  0.00    -0.263 NA
ATOM     27  C   UNL     1      26.241   2.860  21.182  0.00  0.00    -0.012 A 
ATOM     32  C   UNL     1      24.959   2.738  20.660  0.00  0.00    +0.008 A 
ATOM     33  C   UNL     1      26.720   1.826  21.971  0.00  0.00    +0.115 A 
ATOM     35  C   UNL     1      24.205   1.603  20.937  0.00  0.00    +0.020 A 
ATOM     38  C   UNL     1      24.775   0.625  21.737  0.00  0.00    +0.111 A 
ENDBRANCH  22  27
ENDBRANCH   5  22
ENDBRANCH  15  18
ENDBRANCH  10  15
TORSDOF 8
ENDMDL
MODEL 2
REMARK VINA RESULT:      -7.3     30.260     33.642
REMARK  Name = 71694378
REMARK  10 active torsions:
REMARK  status: ('A' for Active; 'I' for Inactive)
REMARK    1  A    between atoms: N_5  and  C_22
REMARK    2  A    between atoms: N_5  and  C_23
REMARK    3  A    between atoms: N_7  and  C_30
REMARK    4  A    between atoms: N_7  and  C_34
REMARK    5  A    between atoms: N_7  and  C_36
REMARK    6  A    between atoms: C_10  and  C_15
REMARK    7  A    between atoms: C_15  and  C_18
REMARK    8  A    between atoms: C_22  and  C_27
REMARK    9  A    between atoms: C_34  and  C_37
REMARK   10  A    between atoms: C_37  and  C_39
REMARK                            x       y       z     vdW  Elec       q    Type
REMARK                         _______ _______ _______ _____ _____    ______ ____
ROOT
ATOM      1  O   UNL     1      -8.759 -11.064  11.700  0.00  0.00    -0.274 OA
ATOM      3  O   UNL     1      -3.692 -10.503  13.169  0.00  0.00    -0.488 OA
ATOM      4  N   UNL     1      -7.000 -10.430  10.336  0.00  0.00    -0.300 N 
ATOM      6  N   UNL     1      -6.381  -9.398  13.279  0.00  0.00    -0.304 NA
ATOM     10  C   UNL     1      -4.709 -11.901   9.298  0.00  0.00    +0.008 C 
ATOM     11  C   UNL     1      -4.582 -10.709  10.293  0.00  0.00    +0.032 C 
ATOM     12  C   UNL     1      -6.106 -12.544   9.453  0.00  0.00    +0.023 C 
ATOM     13  C   UNL     1      -5.741  -9.713  10.101  0.00  0.00    +0.115 C 
ATOM     14  C   UNL     1      -7.240 -11.517   9.383  0.00  0.00    +0.108 C 
ATOM     16  C   UNL     1      -3.249 -10.010  10.251  0.00  0.00    -0.023 C 
ATOM     17  C   UNL     1      -7.811 -10.306  11.464  0.00  0.00    +0.229 C 
ATOM     19  C   UNL     1      -2.351  -9.849  11.238  0.00  0.00    +0.010 C 
ATOM     20  C   UNL     1      -7.547  -9.167  12.430  0.00  0.00    +0.178 C 
ATOM     21  C   UNL     1      -2.376 -10.243  12.693  0.00  0.00    +0.256 C 
ATOM     24  C   UNL     1      -6.387 -10.664  14.009  0.00  0.00    +0.120 C 
ATOM     25  C   UNL     1      -5.210 -10.772  14.963  0.00  0.00    +0.010 A 
ATOM     26  C   UNL     1      -3.870 -10.701  14.515  0.00  0.00    +0.125 A 
ATOM     28  C   UNL     1      -5.463 -10.974  16.329  0.00  0.00    +0.031 A 
ATOM     29  C   UNL     1      -2.824 -10.838  15.436  0.00  0.00    +0.048 A 
ATOM     30  C   UNL     1      -4.413 -11.101  17.237  0.00  0.00    +0.030 A 
ATOM     31  C   UNL     1      -3.097 -11.034  16.790  0.00  0.00    +0.027 A 
ATOM     44  H   UNL     1      -6.304  -8.625  13.939  0.00  0.00    +0.123 HD
ENDROOT
BRANCH  30   7
ATOM      7  N   UNL     1      -4.684 -11.302  18.606  0.00  0.00    -0.333 N 
ATOM     36  C   UNL     1      -3.834 -12.163  19.404  0.00  0.00    +0.129 C 
BRANCH   7  34
ATOM     34  C   UNL     1      -5.812 -10.644  19.235  0.00  0.00    +0.111 C 
BRANCH  34  37
ATOM     37  C   UNL     1      -6.988 -11.608  19.393  0.00  0.00    +0.074 C 
BRANCH  37  39
ATOM      9  N   UNL     1      -9.215 -11.025  20.190  0.00  0.00    -0.260 NA
ATOM     39  C   UNL     1      -8.327 -10.948  19.173  0.00  0.00    +0.043 A 
ATOM     40  C   UNL     1      -8.580 -10.309  17.971  0.00  0.00    +0.023 A 
ATOM     41  C   UNL     1      -9.824  -9.711  17.799  0.00  0.00    +0.003 A 
ATOM     42  C   UNL     1     -10.413 -10.432  19.987  0.00  0.00    +0.111 A 
ATOM     43  C   UNL     1     -10.763  -9.768  18.823  0.00  0.00    +0.020 A 
ENDBRANCH  37  39
ENDBRANCH  34  37
ENDBRANCH   7  34
ENDBRANCH  30   7
BRANCH  10  15
ATOM     15  C   UNL     1      -4.440 -11.542   7.831  0.00  0.00    +0.100 C 
BRANCH  15  18
ATOM      2  O   UNL     1      -3.706 -13.723   7.160  0.00  0.00    -0.276 OA
ATOM      5  N   UNL     1      -5.334 -12.716   5.849  0.00  0.00    -0.300 N 
ATOM     18  C   UNL     1      -4.447 -12.763   6.931  0.00  0.00    +0.216 C 
ATOM     23  C   UNL     1      -6.199 -11.569   5.598  0.00  0.00    +0.132 C 
BRANCH   5  22
ATOM     22  C   UNL     1      -5.460 -13.811   4.891  0.00  0.00    +0.144 C 
BRANCH  22  27
ATOM      8  N   UNL     1      -2.970 -15.050   2.329  0.00  0.00    -0.263 NA
ATOM     27  C   UNL     1      -4.342 -13.813   3.890  0.00  0.00    -0.012 A 
ATOM     32  C   UNL     1      -3.648 -12.647   3.588  0.00  0.00    +0.008 A 
ATOM     33  C   UNL     1      -3.967 -14.978   3.239  0.00  0.00    +0.115 A 
ATOM     35  C   UNL     1      -2.615 -12.680   2.657  0.00  0.00    +0.020 A 
ATOM     38  C   UNL     1      -2.318 -13.895   2.061  0.00  0.00    +0.111 A 
ENDBRANCH  22  27
ENDBRANCH   5  22
ENDBRANCH  15  18
ENDBRANCH  10  15
TORSDOF 8
ENDMDL
MODEL 3
REMARK VINA RESULT:      -7.2     23.599     28.883
REMARK  Name = 71694378
REMARK  10 active torsions:
REMARK  status: ('A' for Active; 'I' for Inactive)
REMARK    1  A    between atoms: N_5  and  C_22
REMARK    2  A    between atoms: N_5  and  C_23
REMARK    3  A    between atoms: N_7  and  C_30
REMARK    4  A    between atoms: N_7  and  C_34
REMARK    5  A    between atoms: N_7  and  C_36
REMARK    6  A    between atoms: C_10  and  C_15
REMARK    7  A    between atoms: C_15  and  C_18
REMARK    8  A    between atoms: C_22  and  C_27
REMARK    9  A    between atoms: C_34  and  C_37
REMARK   10  A    between atoms: C_37  and  C_39
REMARK                            x       y       z     vdW  Elec       q    Type
REMARK                         _______ _______ _______ _____ _____    ______ ____
ROOT
ATOM      1  O   UNL     1       5.895   8.819  -1.425  0.00  0.00    -0.274 OA
ATOM      3  O   UNL     1       8.986   5.126  -3.651  0.00  0.00    -0.488 OA
ATOM      4  N   UNL     1       5.895   8.194  -3.654  0.00  0.00    -0.300 N 
ATOM      6  N   UNL     1       8.842   7.805  -2.527  0.00  0.00    -0.304 NA
ATOM     10  C   UNL     1       5.016   5.762  -4.997  0.00  0.00    +0.008 C 
ATOM     11  C   UNL     1       6.501   6.232  -4.959  0.00  0.00    +0.032 C 
ATOM     12  C   UNL     1       4.266   6.356  -3.782  0.00  0.00    +0.023 C 
ATOM     13  C   UNL     1       6.586   7.767  -4.875  0.00  0.00    +0.115 C 
ATOM     14  C   UNL     1       4.466   7.868  -3.646  0.00  0.00    +0.108 C 
ATOM     16  C   UNL     1       7.345   5.699  -6.087  0.00  0.00    -0.023 C 
ATOM     17  C   UNL     1       6.507   8.649  -2.486  0.00  0.00    +0.229 C 
ATOM     19  C   UNL     1       8.451   4.938  -6.024  0.00  0.00    +0.010 C 
ATOM     20  C   UNL     1       7.986   8.988  -2.523  0.00  0.00    +0.178 C 
ATOM     21  C   UNL     1       9.244   4.412  -4.856  0.00  0.00    +0.256 C 
ATOM     24  C   UNL     1       8.588   6.852  -1.448  0.00  0.00    +0.120 C 
ATOM     25  C   UNL     1       9.599   5.718  -1.445  0.00  0.00    +0.010 A 
ATOM     26  C   UNL     1       9.769   4.860  -2.556  0.00  0.00    +0.125 A 
ATOM     28  C   UNL     1      10.369   5.502  -0.291  0.00  0.00    +0.031 A 
ATOM     29  C   UNL     1      10.695   3.812  -2.486  0.00  0.00    +0.048 A 
ATOM     30  C   UNL     1      11.293   4.460  -0.236  0.00  0.00    +0.030 A 
ATOM     31  C   UNL     1      11.454   3.617  -1.332  0.00  0.00    +0.027 A 
ATOM     44  H   UNL     1       9.814   8.110  -2.489  0.00  0.00    +0.123 HD
ENDROOT
BRANCH  30   7
ATOM      7  N   UNL     1      12.060   4.257   0.929  0.00  0.00    -0.333 N 
ATOM     36  C   UNL     1      13.018   3.171   0.998  0.00  0.00    +0.129 C 
BRANCH   7  34
ATOM     34  C   UNL     1      11.907   5.137   2.071  0.00  0.00    +0.111 C 
BRANCH  34  37
ATOM     37  C   UNL     1      11.059   4.478   3.158  0.00  0.00    +0.074 C 
BRANCH  37  39
ATOM      9  N   UNL     1       9.514   5.036   4.957  0.00  0.00    -0.260 NA
ATOM     39  C   UNL     1      10.057   5.420   3.780  0.00  0.00    +0.043 A 
ATOM     40  C   UNL     1       9.748   6.605   3.133  0.00  0.00    +0.023 A 
ATOM     41  C   UNL     1       8.821   7.451   3.731  0.00  0.00    +0.003 A 
ATOM     42  C   UNL     1       8.617   5.884   5.508  0.00  0.00    +0.111 A 
ATOM     43  C   UNL     1       8.240   7.091   4.942  0.00  0.00    +0.020 A 
ENDBRANCH  37  39
ENDBRANCH  34  37
ENDBRANCH   7  34
ENDBRANCH  30   7
BRANCH  10  15
ATOM     15  C   UNL     1       4.275   6.088  -6.300  0.00  0.00    +0.100 C 
BRANCH  15  18
ATOM      2  O   UNL     1       4.776   4.138  -7.601  0.00  0.00    -0.276 OA
ATOM      5  N   UNL     1       2.538   4.552  -7.151  0.00  0.00    -0.300 N 
ATOM     18  C   UNL     1       3.905   4.839  -7.077  0.00  0.00    +0.216 C 
ATOM     23  C   UNL     1       1.527   5.396  -6.524  0.00  0.00    +0.132 C 
BRANCH   5  22
ATOM     22  C   UNL     1       2.019   3.387  -7.863  0.00  0.00    +0.144 C 
BRANCH  22  27
ATOM      8  N   UNL     1      -0.273   0.843  -6.257  0.00  0.00    -0.263 NA
ATOM     27  C   UNL     1       1.513   2.333  -6.922  0.00  0.00    -0.012 A 
ATOM     32  C   UNL     1       2.299   1.870  -5.874  0.00  0.00    +0.008 A 
ATOM     33  C   UNL     1       0.245   1.792  -7.068  0.00  0.00    +0.115 A 
ATOM     35  C   UNL     1       1.803   0.894  -5.017  0.00  0.00    +0.020 A 
ATOM     38  C   UNL     1       0.522   0.417  -5.248  0.00  0.00    +0.111 A 
ENDBRANCH  22  27
ENDBRANCH   5  22
ENDBRANCH  15  18
ENDBRANCH  10  15
TORSDOF 8
ENDMDL
MODEL 4
REMARK VINA RESULT:      -7.1      1.558      2.312
REMARK  Name = 71694378
REMARK  10 active torsions:
REMARK  status: ('A' for Active; 'I' for Inactive)
REMARK    1  A    between atoms: N_5  and  C_22
REMARK    2  A    between atoms: N_5  and  C_23
REMARK    3  A    between atoms: N_7  and  C_30
REMARK    4  A    between atoms: N_7  and  C_34
REMARK    5  A    between atoms: N_7  and  C_36
REMARK    6  A    between atoms: C_10  and  C_15
REMARK    7  A    between atoms: C_15  and  C_18
REMARK    8  A    between atoms: C_22  and  C_27
REMARK    9  A    between atoms: C_34  and  C_37
REMARK   10  A    between atoms: C_37  and  C_39
REMARK                            x       y       z     vdW  Elec       q    Type
REMARK                         _______ _______ _______ _____ _____    ______ ____
ROOT
ATOM      1  O   UNL     1      21.128  12.007  22.418  0.00  0.00    -0.274 OA
ATOM      3  O   UNL     1      19.950   6.962  21.272  0.00  0.00    -0.488 OA
ATOM      4  N   UNL     1      22.558  10.194  22.586  0.00  0.00    -0.300 N 
ATOM      6  N   UNL     1      19.601   9.166  23.139  0.00  0.00    -0.304 NA
ATOM     10  C   UNL     1      23.829   8.521  20.567  0.00  0.00    +0.008 C 
ATOM     11  C   UNL     1      22.772   7.988  21.580  0.00  0.00    +0.032 C 
ATOM     12  C   UNL     1      23.627  10.042  20.376  0.00  0.00    +0.023 C 
ATOM     13  C   UNL     1      22.826   8.786  22.896  0.00  0.00    +0.115 C 
ATOM     14  C   UNL     1      23.560  10.800  21.705  0.00  0.00    +0.108 C 
ATOM     16  C   UNL     1      22.854   6.507  21.835  0.00  0.00    -0.023 C 
ATOM     17  C   UNL     1      21.376  10.880  22.864  0.00  0.00    +0.229 C 
ATOM     19  C   UNL     1      21.917   5.564  21.633  0.00  0.00    +0.010 C 
ATOM     20  C   UNL     1      20.358  10.235  23.785  0.00  0.00    +0.178 C 
ATOM     21  C   UNL     1      20.491   5.651  21.151  0.00  0.00    +0.256 C 
ATOM     24  C   UNL     1      18.953   9.537  21.883  0.00  0.00    +0.120 C 
ATOM     25  C   UNL     1      18.084   8.414  21.342  0.00  0.00    +0.010 A 
ATOM     26  C   UNL     1      18.611   7.139  21.032  0.00  0.00    +0.125 A 
ATOM     28  C   UNL     1      16.720   8.662  21.120  0.00  0.00    +0.031 A 
ATOM     29  C   UNL     1      17.769   6.151  20.507  0.00  0.00    +0.048 A 
ATOM     30  C   UNL     1      15.890   7.668  20.604  0.00  0.00    +0.030 A 
ATOM     31  C   UNL     1      16.414   6.416  20.297  0.00  0.00    +0.027 A 
ATOM     44  H   UNL     1      18.899   8.825  23.796  0.00  0.00    +0.123 HD
ENDROOT
BRANCH  30   7
ATOM      7  N   UNL     1      14.523   7.932  20.388  0.00  0.00    -0.333 N 
ATOM     36  C   UNL     1      13.811   8.864  21.240  0.00  0.00    +0.129 C 
BRANCH   7  34
ATOM     34  C   UNL     1      13.811   7.282  19.305  0.00  0.00    +0.111 C 
BRANCH  34  37
ATOM     37  C   UNL     1      14.201   7.886  17.956  0.00  0.00    +0.074 C 
BRANCH  37  39
ATOM      9  N   UNL     1      11.799   7.919  17.552  0.00  0.00    -0.260 NA
ATOM     39  C   UNL     1      13.013   8.361  17.155  0.00  0.00    +0.043 A 
ATOM     40  C   UNL     1      13.216   9.206  16.077  0.00  0.00    +0.023 A 
ATOM     41  C   UNL     1      12.101   9.626  15.359  0.00  0.00    +0.003 A 
ATOM     42  C   UNL     1      10.739   8.348  16.831  0.00  0.00    +0.111 A 
ATOM     43  C   UNL     1      10.835   9.194  15.738  0.00  0.00    +0.020 A 
ENDBRANCH  37  39
ENDBRANCH  34  37
ENDBRANCH   7  34
ENDBRANCH  30   7
BRANCH  10  15
ATOM     15  C   UNL     1      25.285   8.214  20.942  0.00  0.00    +0.100 C 
BRANCH  15  18
ATOM      2  O   UNL     1      25.763   6.940  18.969  0.00  0.00    -0.276 OA
ATOM      5  N   UNL     1      26.387   6.003  20.997  0.00  0.00    -0.300 N 
ATOM     18  C   UNL     1      25.826   7.007  20.199  0.00  0.00    +0.216 C 
ATOM     23  C   UNL     1      26.450   6.104  22.451  0.00  0.00    +0.132 C 
BRANCH   5  22
ATOM     22  C   UNL     1      26.952   4.779  20.435  0.00  0.00    +0.144 C 
BRANCH  22  27
ATOM      8  N   UNL     1      25.889   1.400  21.757  0.00  0.00    -0.263 NA
ATOM     27  C   UNL     1      26.100   3.580  20.732  0.00  0.00    -0.012 A 
ATOM     32  C   UNL     1      24.786   3.506  20.287  0.00  0.00    +0.008 A 
ATOM     33  C   UNL     1      26.600   2.509  21.456  0.00  0.00    +0.115 A 
ATOM     35  C   UNL     1      24.021   2.381  20.575  0.00  0.00    +0.020 A 
ATOM     38  C   UNL     1      24.613   1.364  21.307  0.00  0.00    +0.111 A 
ENDBRANCH  22  27
ENDBRANCH   5  22
ENDBRANCH  15  18
ENDBRANCH  10  15
TORSDOF 8
ENDMDL
MODEL 5
REMARK VINA RESULT:      -7.1     16.817     22.080
REMARK  Name = 71694378
REMARK  10 active torsions:
REMARK  status: ('A' for Active; 'I' for Inactive)
REMARK    1  A    between atoms: N_5  and  C_22
REMARK    2  A    between atoms: N_5  and  C_23
REMARK    3  A    between atoms: N_7  and  C_30
REMARK    4  A    between atoms: N_7  and  C_34
REMARK    5  A    between atoms: N_7  and  C_36
REMARK    6  A    between atoms: C_10  and  C_15
REMARK    7  A    between atoms: C_15  and  C_18
REMARK    8  A    between atoms: C_22  and  C_27
REMARK    9  A    between atoms: C_34  and  C_37
REMARK   10  A    between atoms: C_37  and  C_39
REMARK                            x       y       z     vdW  Elec       q    Type
REMARK                         _______ _______ _______ _____ _____    ______ ____
ROOT
ATOM      1  O   UNL     1       7.873   6.132   5.418  0.00  0.00    -0.274 OA
ATOM      3  O   UNL     1      12.974   7.188   4.408  0.00  0.00    -0.488 OA
ATOM      4  N   UNL     1       9.367   7.170   6.849  0.00  0.00    -0.300 N 
ATOM      6  N   UNL     1      11.003   5.141   5.029  0.00  0.00    -0.304 NA
ATOM     10  C   UNL     1      10.625   9.798   6.784  0.00  0.00    +0.008 C 
ATOM     11  C   UNL     1      11.420   8.464   6.659  0.00  0.00    +0.032 C 
ATOM     12  C   UNL     1       9.167   9.564   6.324  0.00  0.00    +0.023 C 
ATOM     13  C   UNL     1      10.708   7.330   7.422  0.00  0.00    +0.115 C 
ATOM     14  C   UNL     1       8.520   8.356   7.005  0.00  0.00    +0.108 C 
ATOM     16  C   UNL     1      12.867   8.568   7.061  0.00  0.00    -0.023 C 
ATOM     17  C   UNL     1       8.952   6.126   6.023  0.00  0.00    +0.229 C 
ATOM     19  C   UNL     1      13.965   8.326   6.325  0.00  0.00    +0.010 C 
ATOM     20  C   UNL     1       9.844   4.906   5.887  0.00  0.00    +0.178 C 
ATOM     21  C   UNL     1      14.139   7.832   4.912  0.00  0.00    +0.256 C 
ATOM     24  C   UNL     1      10.695   5.670   3.702  0.00  0.00    +0.120 C 
ATOM     25  C   UNL     1      11.935   5.765   2.830  0.00  0.00    +0.010 A 
ATOM     26  C   UNL     1      13.057   6.542   3.201  0.00  0.00    +0.125 A 
ATOM     28  C   UNL     1      11.955   5.078   1.606  0.00  0.00    +0.031 A 
ATOM     29  C   UNL     1      14.161   6.616   2.343  0.00  0.00    +0.048 A 
ATOM     30  C   UNL     1      13.064   5.154   0.764  0.00  0.00    +0.030 A 
ATOM     31  C   UNL     1      14.163   5.923   1.132  0.00  0.00    +0.027 A 
ATOM     44  H   UNL     1      11.517   4.265   4.935  0.00  0.00    +0.123 HD
ENDROOT
BRANCH  30   7
ATOM      7  N   UNL     1      13.068   4.457  -0.462  0.00  0.00    -0.333 N 
ATOM     36  C   UNL     1      14.190   4.578  -1.371  0.00  0.00    +0.129 C 
BRANCH   7  34
ATOM     34  C   UNL     1      11.954   3.602  -0.824  0.00  0.00    +0.111 C 
BRANCH  34  37
ATOM     37  C   UNL     1      12.357   2.617  -1.921  0.00  0.00    +0.074 C 
BRANCH  37  39
ATOM      9  N   UNL     1      10.164   2.297  -2.933  0.00  0.00    -0.260 NA
ATOM     39  C   UNL     1      11.448   2.670  -3.126  0.00  0.00    +0.043 A 
ATOM     40  C   UNL     1      11.960   3.089  -4.343  0.00  0.00    +0.023 A 
ATOM     41  C   UNL     1      11.097   3.127  -5.434  0.00  0.00    +0.003 A 
ATOM     42  C   UNL     1       9.355   2.346  -4.016  0.00  0.00    +0.111 A 
ATOM     43  C   UNL     1       9.768   2.750  -5.274  0.00  0.00    +0.020 A 
ENDBRANCH  37  39
ENDBRANCH  34  37
ENDBRANCH   7  34
ENDBRANCH  30   7
BRANCH  10  15
ATOM     15  C   UNL     1      10.654  10.430   8.181  0.00  0.00    +0.100 C 
BRANCH  15  18
ATOM      2  O   UNL     1      10.507  12.630   7.240  0.00  0.00    -0.276 OA
ATOM      5  N   UNL     1       9.411  12.277   9.254  0.00  0.00    -0.300 N 
ATOM     18  C   UNL     1      10.195  11.876   8.166  0.00  0.00    +0.216 C 
ATOM     23  C   UNL     1       9.056  11.367  10.337  0.00  0.00    +0.132 C 
BRANCH   5  22
ATOM     22  C   UNL     1       8.890  13.634   9.388  0.00  0.00    +0.144 C 
BRANCH  22  27
ATOM      8  N   UNL     1       5.767  13.986   7.286  0.00  0.00    -0.263 NA
ATOM     27  C   UNL     1       7.441  13.720   9.011  0.00  0.00    -0.012 A 
ATOM     32  C   UNL     1       6.443  13.624   9.974  0.00  0.00    +0.008 A 
ATOM     33  C   UNL     1       7.053  13.900   7.692  0.00  0.00    +0.115 A 
ATOM     35  C   UNL     1       5.107  13.708   9.595  0.00  0.00    +0.020 A 
ATOM     38  C   UNL     1       4.824  13.888   8.251  0.00  0.00    +0.111 A 
ENDBRANCH  22  27
ENDBRANCH   5  22
ENDBRANCH  15  18
ENDBRANCH  10  15
TORSDOF 8
ENDMDL
MODEL 6
REMARK VINA RESULT:      -7.0     29.856     35.539
REMARK  Name = 71694378
REMARK  10 active torsions:
REMARK  status: ('A' for Active; 'I' for Inactive)
REMARK    1  A    between atoms: N_5  and  C_22
REMARK    2  A    between atoms: N_5  and  C_23
REMARK    3  A    between atoms: N_7  and  C_30
REMARK    4  A    between atoms: N_7  and  C_34
REMARK    5  A    between atoms: N_7  and  C_36
REMARK    6  A    between atoms: C_10  and  C_15
REMARK    7  A    between atoms: C_15  and  C_18
REMARK    8  A    between atoms: C_22  and  C_27
REMARK    9  A    between atoms: C_34  and  C_37
REMARK   10  A    between atoms: C_37  and  C_39
REMARK                            x       y       z     vdW  Elec       q    Type
REMARK                         _______ _______ _______ _____ _____    ______ ____
ROOT
ATOM      1  O   UNL     1     -10.304 -12.406  12.136  0.00  0.00    -0.274 OA
ATOM      3  O   UNL     1      -8.057  -9.678  16.094  0.00  0.00    -0.488 OA
ATOM      4  N   UNL     1     -11.408 -11.121  13.714  0.00  0.00    -0.300 N 
ATOM      6  N   UNL     1      -8.786 -12.302  15.071  0.00  0.00    -0.304 NA
ATOM     10  C   UNL     1     -11.535  -8.241  14.140  0.00  0.00    +0.008 C 
ATOM     11  C   UNL     1     -10.891  -9.230  15.157  0.00  0.00    +0.032 C 
ATOM     12  C   UNL     1     -11.496  -8.870  12.728  0.00  0.00    +0.023 C 
ATOM     13  C   UNL     1     -11.569 -10.611  15.080  0.00  0.00    +0.115 C 
ATOM     14  C   UNL     1     -12.063 -10.292  12.699  0.00  0.00    +0.108 C 
ATOM     16  C   UNL     1     -10.852  -8.720  16.573  0.00  0.00    -0.023 C 
ATOM     17  C   UNL     1     -10.540 -12.140  13.321  0.00  0.00    +0.229 C 
ATOM     19  C   UNL     1      -9.785  -8.514  17.365  0.00  0.00    +0.010 C 
ATOM     20  C   UNL     1      -9.881 -12.989  14.391  0.00  0.00    +0.178 C 
ATOM     21  C   UNL     1      -8.313  -8.760  17.152  0.00  0.00    +0.256 C 
ATOM     24  C   UNL     1      -7.760 -11.747  14.190  0.00  0.00    +0.120 C 
ATOM     25  C   UNL     1      -6.597 -11.164  14.974  0.00  0.00    +0.010 A 
ATOM     26  C   UNL     1      -6.771 -10.120  15.911  0.00  0.00    +0.125 A 
ATOM     28  C   UNL     1      -5.306 -11.663  14.739  0.00  0.00    +0.031 A 
ATOM     29  C   UNL     1      -5.658  -9.600  16.583  0.00  0.00    +0.048 A 
ATOM     30  C   UNL     1      -4.206 -11.142  15.420  0.00  0.00    +0.030 A 
ATOM     31  C   UNL     1      -4.383 -10.113  16.338  0.00  0.00    +0.027 A 
ATOM     44  H   UNL     1      -8.355 -12.952  15.727  0.00  0.00    +0.123 HD
ENDROOT
BRANCH  30   7
ATOM      7  N   UNL     1      -2.917 -11.655  15.173  0.00  0.00    -0.333 N 
ATOM     36  C   UNL     1      -1.757 -11.064  15.811  0.00  0.00    +0.129 C 
BRANCH   7  34
ATOM     34  C   UNL     1      -2.734 -12.786  14.285  0.00  0.00    +0.111 C 
BRANCH  34  37
ATOM     37  C   UNL     1      -1.743 -12.451  13.171  0.00  0.00    +0.074 C 
BRANCH  37  39
ATOM      9  N   UNL     1      -3.360 -12.100  11.384  0.00  0.00    -0.260 NA
ATOM     39  C   UNL     1      -2.337 -11.576  12.095  0.00  0.00    +0.043 A 
ATOM     40  C   UNL     1      -1.821 -10.307  11.890  0.00  0.00    +0.023 A 
ATOM     41  C   UNL     1      -2.390  -9.525  10.890  0.00  0.00    +0.003 A 
ATOM     42  C   UNL     1      -3.888 -11.311  10.421  0.00  0.00    +0.111 A 
ATOM     43  C   UNL     1      -3.445 -10.030  10.138  0.00  0.00    +0.020 A 
ENDBRANCH  37  39
ENDBRANCH  34  37
ENDBRANCH   7  34
ENDBRANCH  30   7
BRANCH  10  15
ATOM     15  C   UNL     1     -12.960  -7.798  14.494  0.00  0.00    +0.100 C 
BRANCH  15  18
ATOM      2  O   UNL     1     -12.600  -5.446  14.788  0.00  0.00    -0.276 OA
ATOM      5  N   UNL     1     -14.133  -6.077  13.164  0.00  0.00    -0.300 N 
ATOM     18  C   UNL     1     -13.201  -6.334  14.177  0.00  0.00    +0.216 C 
ATOM     23  C   UNL     1     -14.831  -7.144  12.456  0.00  0.00    +0.132 C 
BRANCH   5  22
ATOM     22  C   UNL     1     -14.476  -4.723  12.741  0.00  0.00    +0.144 C 
BRANCH  22  27
ATOM      8  N   UNL     1     -13.755  -3.902   9.121  0.00  0.00    -0.263 NA
ATOM     27  C   UNL     1     -13.732  -4.314  11.504  0.00  0.00    -0.012 A 
ATOM     32  C   UNL     1     -12.384  -3.980  11.556  0.00  0.00    +0.008 A 
ATOM     33  C   UNL     1     -14.366  -4.260  10.272  0.00  0.00    +0.115 A 
ATOM     35  C   UNL     1     -11.719  -3.607  10.393  0.00  0.00    +0.020 A 
ATOM     38  C   UNL     1     -12.443  -3.585   9.211  0.00  0.00    +0.111 A 
ENDBRANCH  22  27
ENDBRANCH   5  22
ENDBRANCH  15  18
ENDBRANCH  10  15
TORSDOF 8
ENDMDL
MODEL 7
REMARK VINA RESULT:      -7.0     30.600     35.477
REMARK  Name = 71694378
REMARK  10 active torsions:
REMARK  status: ('A' for Active; 'I' for Inactive)
REMARK    1  A    between atoms: N_5  and  C_22
REMARK    2  A    between atoms: N_5  and  C_23
REMARK    3  A    between atoms: N_7  and  C_30
REMARK    4  A    between atoms: N_7  and  C_34
REMARK    5  A    between atoms: N_7  and  C_36
REMARK    6  A    between atoms: C_10  and  C_15
REMARK    7  A    between atoms: C_15  and  C_18
REMARK    8  A    between atoms: C_22  and  C_27
REMARK    9  A    between atoms: C_34  and  C_37
REMARK   10  A    between atoms: C_37  and  C_39
REMARK                            x       y       z     vdW  Elec       q    Type
REMARK                         _______ _______ _______ _____ _____    ______ ____
ROOT
ATOM      1  O   UNL     1      -7.459 -10.591   2.328  0.00  0.00    -0.274 OA
ATOM      3  O   UNL     1      -3.981 -12.942   5.572  0.00  0.00    -0.488 OA
ATOM      4  N   UNL     1      -7.722 -10.933   4.602  0.00  0.00    -0.300 N 
ATOM      6  N   UNL     1      -5.941 -13.303   3.454  0.00  0.00    -0.304 NA
ATOM     10  C   UNL     1      -6.414  -9.741   6.917  0.00  0.00    +0.008 C 
ATOM     11  C   UNL     1      -6.283 -11.247   6.540  0.00  0.00    +0.032 C 
ATOM     12  C   UNL     1      -6.754  -8.928   5.646  0.00  0.00    +0.023 C 
ATOM     13  C   UNL     1      -7.549 -11.740   5.815  0.00  0.00    +0.115 C 
ATOM     14  C   UNL     1      -7.940  -9.509   4.873  0.00  0.00    +0.108 C 
ATOM     16  C   UNL     1      -5.931 -12.143   7.697  0.00  0.00    -0.023 C 
ATOM     17  C   UNL     1      -7.478 -11.360   3.296  0.00  0.00    +0.229 C 
ATOM     19  C   UNL     1      -4.862 -12.943   7.848  0.00  0.00    +0.010 C 
ATOM     20  C   UNL     1      -7.264 -12.840   3.042  0.00  0.00    +0.178 C 
ATOM     21  C   UNL     1      -3.707 -13.261   6.933  0.00  0.00    +0.256 C 
ATOM     24  C   UNL     1      -4.819 -12.547   2.901  0.00  0.00    +0.120 C 
ATOM     25  C   UNL     1      -3.483 -13.167   3.271  0.00  0.00    +0.010 A 
ATOM     26  C   UNL     1      -3.082 -13.341   4.616  0.00  0.00    +0.125 A 
ATOM     28  C   UNL     1      -2.609 -13.554   2.243  0.00  0.00    +0.031 A 
ATOM     29  C   UNL     1      -1.825 -13.891   4.898  0.00  0.00    +0.048 A 
ATOM     30  C   UNL     1      -1.364 -14.107   2.536  0.00  0.00    +0.030 A 
ATOM     31  C   UNL     1      -0.973 -14.273   3.861  0.00  0.00    +0.027 A 
ATOM     44  H   UNL     1      -5.849 -14.285   3.195  0.00  0.00    +0.123 HD
ENDROOT
BRANCH  30   7
ATOM      7  N   UNL     1      -0.499 -14.492   1.492  0.00  0.00    -0.333 N 
ATOM     36  C   UNL     1      -0.794 -14.125   0.121  0.00  0.00    +0.129 C 
BRANCH   7  34
ATOM     34  C   UNL     1       0.702 -15.253   1.776  0.00  0.00    +0.111 C 
BRANCH  34  37
ATOM     37  C   UNL     1       1.875 -14.325   2.090  0.00  0.00    +0.074 C 
BRANCH  37  39
ATOM      9  N   UNL     1       3.932 -15.557   1.659  0.00  0.00    -0.260 NA
ATOM     39  C   UNL     1       3.087 -14.593   1.231  0.00  0.00    +0.043 A 
ATOM     40  C   UNL     1       3.274 -13.856   0.073  0.00  0.00    +0.023 A 
ATOM     41  C   UNL     1       4.401 -14.126  -0.696  0.00  0.00    +0.003 A 
ATOM     42  C   UNL     1       5.016 -15.792   0.886  0.00  0.00    +0.111 A 
ATOM     43  C   UNL     1       5.293 -15.113  -0.289  0.00  0.00    +0.020 A 
ENDBRANCH  37  39
ENDBRANCH  34  37
ENDBRANCH   7  34
ENDBRANCH  30   7
BRANCH  10  15
ATOM     15  C   UNL     1      -7.426  -9.446   8.031  0.00  0.00    +0.100 C 
BRANCH  15  18
ATOM      2  O   UNL     1      -6.271  -7.693   9.189  0.00  0.00    -0.276 OA
ATOM      5  N   UNL     1      -6.783  -9.596  10.412  0.00  0.00    -0.300 N 
ATOM     18  C   UNL     1      -6.772  -8.819   9.249  0.00  0.00    +0.216 C 
ATOM     23  C   UNL     1      -7.381 -10.926  10.459  0.00  0.00    +0.132 C 
BRANCH   5  22
ATOM     22  C   UNL     1      -6.195  -9.136  11.667  0.00  0.00    +0.144 C 
BRANCH  22  27
ATOM      8  N   UNL     1      -3.214 -10.799  13.295  0.00  0.00    -0.263 NA
ATOM     27  C   UNL     1      -4.807  -9.670  11.867  0.00  0.00    -0.012 A 
ATOM     32  C   UNL     1      -3.843  -9.550  10.874  0.00  0.00    +0.008 A 
ATOM     33  C   UNL     1      -4.445 -10.297  13.050  0.00  0.00    +0.115 A 
ATOM     35  C   UNL     1      -2.564 -10.053  11.088  0.00  0.00    +0.020 A 
ATOM     38  C   UNL     1      -2.302 -10.663  12.305  0.00  0.00    +0.111 A 
ENDBRANCH  22  27
ENDBRANCH   5  22
ENDBRANCH  15  18
ENDBRANCH  10  15
TORSDOF 8
ENDMDL
MODEL 8
REMARK VINA RESULT:      -6.9     18.149     22.151
REMARK  Name = 71694378
REMARK  10 active torsions:
REMARK  status: ('A' for Active; 'I' for Inactive)
REMARK    1  A    between atoms: N_5  and  C_22
REMARK    2  A    between atoms: N_5  and  C_23
REMARK    3  A    between atoms: N_7  and  C_30
REMARK    4  A    between atoms: N_7  and  C_34
REMARK    5  A    between atoms: N_7  and  C_36
REMARK    6  A    between atoms: C_10  and  C_15
REMARK    7  A    between atoms: C_15  and  C_18
REMARK    8  A    between atoms: C_22  and  C_27
REMARK    9  A    between atoms: C_34  and  C_37
REMARK   10  A    between atoms: C_37  and  C_39
REMARK                            x       y       z     vdW  Elec       q    Type
REMARK                         _______ _______ _______ _____ _____    ______ ____
ROOT
ATOM      1  O   UNL     1      15.152   9.739   2.838  0.00  0.00    -0.274 OA
ATOM      3  O   UNL     1      12.152   5.387   2.376  0.00  0.00    -0.488 OA
ATOM      4  N   UNL     1      15.237   8.192   1.118  0.00  0.00    -0.300 N 
ATOM      6  N   UNL     1      14.364   6.666   3.766  0.00  0.00    -0.304 NA
ATOM     10  C   UNL     1      13.382   7.574  -1.042  0.00  0.00    +0.008 C 
ATOM     11  C   UNL     1      13.737   6.571   0.096  0.00  0.00    +0.032 C 
ATOM     12  C   UNL     1      13.617   9.016  -0.538  0.00  0.00    +0.023 C 
ATOM     13  C   UNL     1      15.166   6.816   0.614  0.00  0.00    +0.115 C 
ATOM     14  C   UNL     1      15.002   9.206   0.086  0.00  0.00    +0.108 C 
ATOM     16  C   UNL     1      13.528   5.125  -0.269  0.00  0.00    -0.023 C 
ATOM     17  C   UNL     1      15.281   8.568   2.460  0.00  0.00    +0.229 C 
ATOM     19  C   UNL     1      12.726   4.217   0.313  0.00  0.00    +0.010 C 
ATOM     20  C   UNL     1      15.534   7.500   3.508  0.00  0.00    +0.178 C 
ATOM     21  C   UNL     1      11.826   4.297   1.520  0.00  0.00    +0.256 C 
ATOM     24  C   UNL     1      13.143   7.396   4.101  0.00  0.00    +0.120 C 
ATOM     25  C   UNL     1      12.009   6.458   4.480  0.00  0.00    +0.010 A 
ATOM     26  C   UNL     1      11.523   5.470   3.592  0.00  0.00    +0.125 A 
ATOM     28  C   UNL     1      11.410   6.596   5.742  0.00  0.00    +0.031 A 
ATOM     29  C   UNL     1      10.455   4.653   3.984  0.00  0.00    +0.048 A 
ATOM     30  C   UNL     1      10.353   5.772   6.123  0.00  0.00    +0.030 A 
ATOM     31  C   UNL     1       9.876   4.804   5.245  0.00  0.00    +0.027 A 
ATOM     44  H   UNL     1      14.590   6.018   4.520  0.00  0.00    +0.123 HD
ENDROOT
BRANCH  30   7
ATOM      7  N   UNL     1       9.763   5.923   7.394  0.00  0.00    -0.333 N 
ATOM     36  C   UNL     1       9.766   4.825   8.340  0.00  0.00    +0.129 C 
BRANCH   7  34
ATOM     34  C   UNL     1       9.153   7.182   7.776  0.00  0.00    +0.111 C 
BRANCH  34  37
ATOM     37  C   UNL     1       7.974   7.516   6.863  0.00  0.00    +0.074 C 
BRANCH  37  39
ATOM      9  N   UNL     1       8.979   9.585   6.062  0.00  0.00    -0.260 NA
ATOM     39  C   UNL     1       8.347   8.438   5.728  0.00  0.00    +0.043 A 
ATOM     40  C   UNL     1       8.033   8.076   4.428  0.00  0.00    +0.023 A 
ATOM     41  C   UNL     1       8.390   8.947   3.405  0.00  0.00    +0.003 A 
ATOM     42  C   UNL     1       9.311  10.407   5.041  0.00  0.00    +0.111 A 
ATOM     43  C   UNL     1       9.043  10.137   3.709  0.00  0.00    +0.020 A 
ENDBRANCH  37  39
ENDBRANCH  34  37
ENDBRANCH   7  34
ENDBRANCH  30   7
BRANCH  10  15
ATOM     15  C   UNL     1      14.129   7.335  -2.360  0.00  0.00    +0.100 C 
BRANCH  15  18
ATOM      2  O   UNL     1      12.158   6.815  -3.621  0.00  0.00    -0.276 OA
ATOM      5  N   UNL     1      13.971   5.391  -3.877  0.00  0.00    -0.300 N 
ATOM     18  C   UNL     1      13.318   6.504  -3.337  0.00  0.00    +0.216 C 
ATOM     23  C   UNL     1      15.344   5.044  -3.525  0.00  0.00    +0.132 C 
BRANCH   5  22
ATOM     22  C   UNL     1      13.329   4.491  -4.831  0.00  0.00    +0.144 C 
BRANCH  22  27
ATOM      8  N   UNL     1      10.008   2.854  -4.064  0.00  0.00    -0.263 NA
ATOM     27  C   UNL     1      12.300   3.618  -4.175  0.00  0.00    -0.012 A 
ATOM     32  C   UNL     1      12.635   2.789  -3.112  0.00  0.00    +0.008 A 
ATOM     33  C   UNL     1      10.983   3.614  -4.610  0.00  0.00    +0.115 A 
ATOM     35  C   UNL     1      11.660   1.992  -2.523  0.00  0.00    +0.020 A 
ATOM     38  C   UNL     1      10.372   2.060  -3.031  0.00  0.00    +0.111 A 
ENDBRANCH  22  27
ENDBRANCH   5  22
ENDBRANCH  15  18
ENDBRANCH  10  15
TORSDOF 8
ENDMDL
MODEL 9
REMARK VINA RESULT:      -6.9     30.657     34.974
REMARK  Name = 71694378
REMARK  10 active torsions:
REMARK  status: ('A' for Active; 'I' for Inactive)
REMARK    1  A    between atoms: N_5  and  C_22
REMARK    2  A    between atoms: N_5  and  C_23
REMARK    3  A    between atoms: N_7  and  C_30
REMARK    4  A    between atoms: N_7  and  C_34
REMARK    5  A    between atoms: N_7  and  C_36
REMARK    6  A    between atoms: C_10  and  C_15
REMARK    7  A    between atoms: C_15  and  C_18
REMARK    8  A    between atoms: C_22  and  C_27
REMARK    9  A    between atoms: C_34  and  C_37
REMARK   10  A    between atoms: C_37  and  C_39
REMARK                            x       y       z     vdW  Elec       q    Type
REMARK                         _______ _______ _______ _____ _____    ______ ____
ROOT
ATOM      1  O   UNL     1     -12.389 -10.780   9.603  0.00  0.00    -0.274 OA
ATOM      3  O   UNL     1     -10.110  -6.071   8.723  0.00  0.00    -0.488 OA
ATOM      4  N   UNL     1     -10.221 -10.422   8.875  0.00  0.00    -0.300 N 
ATOM      6  N   UNL     1     -12.028  -8.045   7.782  0.00  0.00    -0.304 NA
ATOM     10  C   UNL     1      -7.868  -9.345  10.215  0.00  0.00    +0.008 C 
ATOM     11  C   UNL     1      -8.563  -8.645   9.008  0.00  0.00    +0.032 C 
ATOM     12  C   UNL     1      -8.897 -10.244  10.939  0.00  0.00    +0.023 C 
ATOM     13  C   UNL     1      -9.230  -9.683   8.086  0.00  0.00    +0.115 C 
ATOM     14  C   UNL     1      -9.637 -11.182   9.983  0.00  0.00    +0.108 C 
ATOM     16  C   UNL     1      -7.663  -7.721   8.230  0.00  0.00    -0.023 C 
ATOM     17  C   UNL     1     -11.606 -10.274   8.790  0.00  0.00    +0.229 C 
ATOM     19  C   UNL     1      -7.802  -6.403   8.006  0.00  0.00    +0.010 C 
ATOM     20  C   UNL     1     -12.185  -9.489   7.629  0.00  0.00    +0.178 C 
ATOM     21  C   UNL     1      -8.885  -5.427   8.388  0.00  0.00    +0.256 C 
ATOM     24  C   UNL     1     -12.531  -7.496   9.039  0.00  0.00    +0.120 C 
ATOM     25  C   UNL     1     -12.449  -5.980   9.067  0.00  0.00    +0.010 A 
ATOM     26  C   UNL     1     -11.222  -5.291   8.920  0.00  0.00    +0.125 A 
ATOM     28  C   UNL     1     -13.625  -5.242   9.272  0.00  0.00    +0.031 A 
ATOM     29  C   UNL     1     -11.202  -3.893   8.984  0.00  0.00    +0.048 A 
ATOM     30  C   UNL     1     -13.593  -3.850   9.327  0.00  0.00    +0.030 A 
ATOM     31  C   UNL     1     -12.384  -3.177   9.185  0.00  0.00    +0.027 A 
ATOM     44  H   UNL     1     -12.493  -7.585   7.000  0.00  0.00    +0.123 HD
ENDROOT
BRANCH  30   7
ATOM      7  N   UNL     1     -14.784  -3.124   9.532  0.00  0.00    -0.333 N 
ATOM     36  C   UNL     1     -15.177  -2.080   8.606  0.00  0.00    +0.129 C 
BRANCH   7  34
ATOM     34  C   UNL     1     -15.637  -3.417  10.668  0.00  0.00    +0.111 C 
BRANCH  34  37
ATOM     37  C   UNL     1     -15.010  -2.910  11.966  0.00  0.00    +0.074 C 
BRANCH  37  39
ATOM      9  N   UNL     1     -15.109  -4.932  13.321  0.00  0.00    -0.260 NA
ATOM     39  C   UNL     1     -14.317  -3.996  12.752  0.00  0.00    +0.043 A 
ATOM     40  C   UNL     1     -12.936  -3.986  12.852  0.00  0.00    +0.023 A 
ATOM     41  C   UNL     1     -12.327  -5.000  13.584  0.00  0.00    +0.003 A 
ATOM     42  C   UNL     1     -14.483  -5.902  14.024  0.00  0.00    +0.111 A 
ATOM     43  C   UNL     1     -13.109  -5.981  14.183  0.00  0.00    +0.020 A 
ENDBRANCH  37  39
ENDBRANCH  34  37
ENDBRANCH   7  34
ENDBRANCH  30   7
BRANCH  10  15
ATOM     15  C   UNL     1      -6.612 -10.146   9.852  0.00  0.00    +0.100 C 
BRANCH  15  18
ATOM      2  O   UNL     1      -5.409  -8.580  11.212  0.00  0.00    -0.276 OA
ATOM      5  N   UNL     1      -4.233 -10.432  10.457  0.00  0.00    -0.300 N 
ATOM     18  C   UNL     1      -5.378  -9.635  10.572  0.00  0.00    +0.216 C 
ATOM     23  C   UNL     1      -4.220 -11.675   9.694  0.00  0.00    +0.132 C 
BRANCH   5  22
ATOM     22  C   UNL     1      -2.966 -10.079  11.090  0.00  0.00    +0.144 C 
BRANCH  22  27
ATOM      8  N   UNL     1      -1.651 -12.517  13.664  0.00  0.00    -0.263 NA
ATOM     27  C   UNL     1      -2.774 -10.790  12.398  0.00  0.00    -0.012 A 
ATOM     32  C   UNL     1      -3.496 -10.422  13.527  0.00  0.00    +0.008 A 
ATOM     33  C   UNL     1      -1.871 -11.835  12.518  0.00  0.00    +0.115 A 
ATOM     35  C   UNL     1      -3.298 -11.100  14.725  0.00  0.00    +0.020 A 
ATOM     38  C   UNL     1      -2.373 -12.131  14.741  0.00  0.00    +0.111 A 
ENDBRANCH  22  27
ENDBRANCH   5  22
ENDBRANCH  15  18
ENDBRANCH  10  15
TORSDOF 8
ENDMDL
MODEL 10
REMARK VINA RESULT:      -6.8     30.469     33.754
REMARK  Name = 71694378
REMARK  10 active torsions:
REMARK  status: ('A' for Active; 'I' for Inactive)
REMARK    1  A    between atoms: N_5  and  C_22
REMARK    2  A    between atoms: N_5  and  C_23
REMARK    3  A    between atoms: N_7  and  C_30
REMARK    4  A    between atoms: N_7  and  C_34
REMARK    5  A    between atoms: N_7  and  C_36
REMARK    6  A    between atoms: C_10  and  C_15
REMARK    7  A    between atoms: C_15  and  C_18
REMARK    8  A    between atoms: C_22  and  C_27
REMARK    9  A    between atoms: C_34  and  C_37
REMARK   10  A    between atoms: C_37  and  C_39
REMARK                            x       y       z     vdW  Elec       q    Type
REMARK                         _______ _______ _______ _____ _____    ______ ____
ROOT
ATOM      1  O   UNL     1      -6.759 -14.441   8.882  0.00  0.00    -0.274 OA
ATOM      3  O   UNL     1      -5.810  -9.229   9.170  0.00  0.00    -0.488 OA
ATOM      4  N   UNL     1      -4.901 -13.437   9.829  0.00  0.00    -0.300 N 
ATOM      6  N   UNL     1      -5.918 -11.579   7.459  0.00  0.00    -0.304 NA
ATOM     10  C   UNL     1      -4.562 -11.857  12.254  0.00  0.00    +0.008 C 
ATOM     11  C   UNL     1      -4.343 -11.285  10.821  0.00  0.00    +0.032 C 
ATOM     12  C   UNL     1      -5.529 -13.061  12.177  0.00  0.00    +0.023 C 
ATOM     13  C   UNL     1      -3.872 -12.392   9.858  0.00  0.00    +0.115 C 
ATOM     14  C   UNL     1      -5.108 -14.090  11.125  0.00  0.00    +0.108 C 
ATOM     16  C   UNL     1      -3.430 -10.089  10.767  0.00  0.00    -0.023 C 
ATOM     17  C   UNL     1      -5.793 -13.675   8.784  0.00  0.00    +0.229 C 
ATOM     19  C   UNL     1      -3.693  -8.848  10.323  0.00  0.00    +0.010 C 
ATOM     20  C   UNL     1      -5.552 -12.993   7.450  0.00  0.00    +0.178 C 
ATOM     21  C   UNL     1      -4.924  -8.246   9.695  0.00  0.00    +0.256 C 
ATOM     24  C   UNL     1      -7.277 -11.293   7.912  0.00  0.00    +0.120 C 
ATOM     25  C   UNL     1      -7.623  -9.820   7.770  0.00  0.00    +0.010 A 
ATOM     26  C   UNL     1      -6.880  -8.808   8.421  0.00  0.00    +0.125 A 
ATOM     28  C   UNL     1      -8.730  -9.458   6.988  0.00  0.00    +0.031 A 
ATOM     29  C   UNL     1      -7.262  -7.469   8.278  0.00  0.00    +0.048 A 
ATOM     30  C   UNL     1      -9.097  -8.120   6.847  0.00  0.00    +0.030 A 
ATOM     31  C   UNL     1      -8.365  -7.129   7.493  0.00  0.00    +0.027 A 
ATOM     44  H   UNL     1      -5.788 -11.207   6.519  0.00  0.00    +0.123 HD
ENDROOT
BRANCH  30   7
ATOM      7  N   UNL     1     -10.211  -7.773   6.057  0.00  0.00    -0.333 N 
ATOM     36  C   UNL     1     -10.401  -8.373   4.751  0.00  0.00    +0.129 C 
BRANCH   7  34
ATOM     34  C   UNL     1     -11.187  -6.818   6.543  0.00  0.00    +0.111 C 
BRANCH  34  37
ATOM     37  C   UNL     1     -11.525  -7.081   8.010  0.00  0.00    +0.074 C 
BRANCH  37  39
ATOM      9  N   UNL     1     -12.940  -5.706   9.438  0.00  0.00    -0.260 NA
ATOM     39  C   UNL     1     -11.753  -5.816   8.801  0.00  0.00    +0.043 A 
ATOM     40  C   UNL     1     -10.760  -4.851   8.838  0.00  0.00    +0.023 A 
ATOM     41  C   UNL     1     -11.002  -3.696   9.575  0.00  0.00    +0.003 A 
ATOM     42  C   UNL     1     -13.139  -4.570  10.144  0.00  0.00    +0.111 A 
ATOM     43  C   UNL     1     -12.211  -3.546  10.245  0.00  0.00    +0.020 A 
ENDBRANCH  37  39
ENDBRANCH  34  37
ENDBRANCH   7  34
ENDBRANCH  30   7
BRANCH  10  15
ATOM     15  C   UNL     1      -3.274 -12.246  12.991  0.00  0.00    +0.100 C 
BRANCH  15  18
ATOM      2  O   UNL     1      -2.422 -10.294  14.092  0.00  0.00    -0.276 OA
ATOM      5  N   UNL     1      -3.500 -11.861  15.421  0.00  0.00    -0.300 N 
ATOM     18  C   UNL     1      -3.019 -11.369  14.202  0.00  0.00    +0.216 C 
ATOM     23  C   UNL     1      -4.203 -13.135  15.526  0.00  0.00    +0.132 C 
BRANCH   5  22
ATOM     22  C   UNL     1      -3.336 -11.137  16.678  0.00  0.00    +0.144 C 
BRANCH  22  27
ATOM      8  N   UNL     1      -6.753  -9.549  16.994  0.00  0.00    -0.263 NA
ATOM     27  C   UNL     1      -4.653 -10.718  17.262  0.00  0.00    -0.012 A 
ATOM     32  C   UNL     1      -5.009 -11.076  18.557  0.00  0.00    +0.008 A 
ATOM     33  C   UNL     1      -5.552  -9.961  16.528  0.00  0.00    +0.115 A 
ATOM     35  C   UNL     1      -6.236 -10.672  19.072  0.00  0.00    +0.020 A 
ATOM     38  C   UNL     1      -7.065  -9.916  18.258  0.00  0.00    +0.111 A 
ENDBRANCH  22  27
ENDBRANCH   5  22
ENDBRANCH  15  18
ENDBRANCH  10  15
TORSDOF 8
ENDMDL
