MODEL 1
REMARK VINA RESULT:      -7.2      0.000      0.000
REMARK  Name = 45784384
REMARK  11 active torsions:
REMARK  status: ('A' for Active; 'I' for Inactive)
REMARK    1  A    between atoms: O_1  and  C_11
REMARK    2  A    between atoms: N_4  and  C_15
REMARK    3  A    between atoms: N_5  and  C_25
REMARK    4  A    between atoms: N_5  and  C_26
REMARK    5  A    between atoms: C_8  and  C_18
REMARK    6  A    between atoms: C_10  and  C_20
REMARK    7  A    between atoms: C_13  and  C_19
REMARK    8  A    between atoms: C_19  and  C_21
REMARK    9  A    between atoms: C_19  and  C_22
REMARK   10  A    between atoms: C_23  and  C_24
REMARK   11  A    between atoms: C_25  and  C_27
REMARK                            x       y       z     vdW  Elec       q    Type
REMARK                         _______ _______ _______ _____ _____    ______ ____
ROOT
ATOM      8  C   UNL     1      -5.519 -11.193  17.708  0.00  0.00    -0.027 C 
ATOM      9  C   UNL     1      -6.079 -10.426  16.466  0.00  0.00    +0.028 C 
ATOM     10  C   UNL     1      -7.650 -10.443  16.461  0.00  0.00    +0.012 C 
ATOM     11  C   UNL     1      -5.403 -10.910  15.151  0.00  0.00    +0.122 C 
ATOM     12  C   UNL     1      -3.977 -11.061  17.743  0.00  0.00    +0.007 C 
ATOM     13  C   UNL     1      -3.859 -10.874  15.229  0.00  0.00    +0.029 C 
ATOM     14  C   UNL     1      -6.075 -10.543  18.996  0.00  0.00    +0.009 C 
ATOM     15  C   UNL     1      -8.198  -9.856  17.793  0.00  0.00    +0.076 C 
ATOM     16  C   UNL     1      -3.309 -11.570  16.473  0.00  0.00    +0.007 C 
ATOM     17  C   UNL     1      -7.596 -10.506  19.037  0.00  0.00    +0.023 C 
ATOM     18  C   UNL     1      -5.888 -12.698  17.696  0.00  0.00    +0.011 C 
ATOM     20  C   UNL     1      -8.272  -9.680  15.279  0.00  0.00    +0.010 C 
ENDROOT
BRANCH  15   4
ATOM      3  O   UNL     1     -10.091  -7.708  17.573  0.00  0.00    -0.268 OA
ATOM      4  N   UNL     1      -9.641  -9.962  17.872  0.00  0.00    -0.307 N 
ATOM     23  C   UNL     1     -10.472  -8.862  17.754  0.00  0.00    +0.264 C 
ATOM     36  H   UNL     1     -10.046 -10.870  18.079  0.00  0.00    +0.149 HD
BRANCH  23  24
ATOM      6  N   UNL     1     -12.324  -9.759  19.010  0.00  0.00    -0.247 NA
ATOM      7  N   UNL     1     -14.139  -9.010  17.006  0.00  0.00    -0.259 NA
ATOM     24  C   UNL     1     -11.926  -9.135  17.885  0.00  0.00    +0.143 A 
ATOM     28  C   UNL     1     -12.818  -8.766  16.900  0.00  0.00    +0.143 A 
ATOM     31  C   UNL     1     -13.645 -10.003  19.117  0.00  0.00    +0.131 A 
ATOM     32  C   UNL     1     -14.537  -9.636  18.132  0.00  0.00    +0.130 A 
ENDBRANCH  23  24
ENDBRANCH  15   4
BRANCH  11   1
ATOM      1  O   UNL     1      -5.778 -10.047  14.076  0.00  0.00    -0.391 OA
ATOM     37  H   UNL     1      -5.006  -9.504  13.842  0.00  0.00    +0.210 HD
ENDBRANCH  11   1
BRANCH  13  19
ATOM     19  C   UNL     1      -3.211 -11.477  13.976  0.00  0.00    +0.078 C 
ATOM     21  C   UNL     1      -2.554 -12.811  14.333  0.00  0.00    +0.017 C 
BRANCH  19  22
ATOM      2  O   UNL     1      -1.459  -9.857  14.167  0.00  0.00    -0.275 OA
ATOM      5  N   UNL     1      -2.135 -10.350  12.009  0.00  0.00    -0.300 N 
ATOM     22  C   UNL     1      -2.188 -10.496  13.399  0.00  0.00    +0.219 C 
ATOM     26  C   UNL     1      -1.185  -9.408  11.429  0.00  0.00    +0.132 C 
BRANCH   5  25
ATOM     25  C   UNL     1      -2.932 -11.091  11.034  0.00  0.00    +0.142 C 
BRANCH  25  27
ATOM     27  C   UNL     1      -3.963 -10.223  10.375  0.00  0.00    -0.030 A 
ATOM     29  C   UNL     1      -4.200 -10.337   9.005  0.00  0.00    +0.005 A 
ATOM     30  C   UNL     1      -4.685  -9.301  11.133  0.00  0.00    +0.005 A 
ATOM     33  C   UNL     1      -5.159  -9.529   8.394  0.00  0.00    +0.000 A 
ATOM     34  C   UNL     1      -5.644  -8.494  10.522  0.00  0.00    +0.000 A 
ATOM     35  C   UNL     1      -5.880  -8.608   9.152  0.00  0.00    +0.000 A 
ENDBRANCH  25  27
ENDBRANCH   5  25
ENDBRANCH  19  22
ENDBRANCH  13  19
TORSDOF 7
ENDMDL
MODEL 2
REMARK VINA RESULT:      -6.9      1.934      2.594
REMARK  Name = 45784384
REMARK  11 active torsions:
REMARK  status: ('A' for Active; 'I' for Inactive)
REMARK    1  A    between atoms: O_1  and  C_11
REMARK    2  A    between atoms: N_4  and  C_15
REMARK    3  A    between atoms: N_5  and  C_25
REMARK    4  A    between atoms: N_5  and  C_26
REMARK    5  A    between atoms: C_8  and  C_18
REMARK    6  A    between atoms: C_10  and  C_20
REMARK    7  A    between atoms: C_13  and  C_19
REMARK    8  A    between atoms: C_19  and  C_21
REMARK    9  A    between atoms: C_19  and  C_22
REMARK   10  A    between atoms: C_23  and  C_24
REMARK   11  A    between atoms: C_25  and  C_27
REMARK                            x       y       z     vdW  Elec       q    Type
REMARK                         _______ _______ _______ _____ _____    ______ ____
ROOT
ATOM      8  C   UNL     1      -4.821 -11.287  17.281  0.00  0.00    -0.027 C 
ATOM      9  C   UNL     1      -5.787 -10.455  16.375  0.00  0.00    +0.028 C 
ATOM     10  C   UNL     1      -7.253 -10.492  16.939  0.00  0.00    +0.012 C 
ATOM     11  C   UNL     1      -5.638 -10.851  14.878  0.00  0.00    +0.122 C 
ATOM     12  C   UNL     1      -3.371 -11.137  16.762  0.00  0.00    +0.007 C 
ATOM     13  C   UNL     1      -4.170 -10.799  14.393  0.00  0.00    +0.029 C 
ATOM     14  C   UNL     1      -4.867 -10.722  18.719  0.00  0.00    +0.009 C 
ATOM     15  C   UNL     1      -7.276  -9.992  18.411  0.00  0.00    +0.076 C 
ATOM     16  C   UNL     1      -3.213 -11.561  15.309  0.00  0.00    +0.007 C 
ATOM     17  C   UNL     1      -6.269 -10.707  19.311  0.00  0.00    +0.023 C 
ATOM     18  C   UNL     1      -5.184 -12.793  17.312  0.00  0.00    +0.011 C 
ATOM     20  C   UNL     1      -8.254  -9.668  16.110  0.00  0.00    +0.010 C 
ENDROOT
BRANCH  15   4
ATOM      3  O   UNL     1      -8.552 -12.426  19.240  0.00  0.00    -0.268 OA
ATOM      4  N   UNL     1      -8.592 -10.122  19.001  0.00  0.00    -0.307 N 
ATOM     23  C   UNL     1      -9.121 -11.346  19.370  0.00  0.00    +0.264 C 
ATOM     36  H   UNL     1      -9.163  -9.286  19.093  0.00  0.00    +0.149 HD
BRANCH  23  24
ATOM      6  N   UNL     1     -11.121 -10.119  19.927  0.00  0.00    -0.247 NA
ATOM      7  N   UNL     1     -12.331 -12.426  20.967  0.00  0.00    -0.259 NA
ATOM     24  C   UNL     1     -10.493 -11.312  19.937  0.00  0.00    +0.143 A 
ATOM     28  C   UNL     1     -11.088 -12.445  20.448  0.00  0.00    +0.143 A 
ATOM     31  C   UNL     1     -12.365 -10.100  20.446  0.00  0.00    +0.131 A 
ATOM     32  C   UNL     1     -12.960 -11.233  20.958  0.00  0.00    +0.130 A 
ENDBRANCH  23  24
ENDBRANCH  15   4
BRANCH  11   1
ATOM      1  O   UNL     1      -6.369  -9.931  14.065  0.00  0.00    -0.391 OA
ATOM     37  H   UNL     1      -7.206 -10.354  13.808  0.00  0.00    +0.210 HD
ENDBRANCH  11   1
BRANCH  13  19
ATOM     19  C   UNL     1      -4.026 -11.318  12.956  0.00  0.00    +0.078 C 
ATOM     21  C   UNL     1      -3.583 -12.781  12.985  0.00  0.00    +0.017 C 
BRANCH  19  22
ATOM      2  O   UNL     1      -1.885 -10.293  12.651  0.00  0.00    -0.275 OA
ATOM      5  N   UNL     1      -3.446  -9.858  10.999  0.00  0.00    -0.300 N 
ATOM     22  C   UNL     1      -3.021 -10.454  12.192  0.00  0.00    +0.219 C 
ATOM     26  C   UNL     1      -2.519  -9.011  10.257  0.00  0.00    +0.132 C 
BRANCH   5  25
ATOM     25  C   UNL     1      -4.756 -10.025  10.371  0.00  0.00    +0.142 C 
BRANCH  25  27
ATOM     27  C   UNL     1      -4.681 -10.864   9.129  0.00  0.00    -0.030 A 
ATOM     29  C   UNL     1      -4.214 -12.176   9.201  0.00  0.00    +0.005 A 
ATOM     30  C   UNL     1      -5.078 -10.331   7.903  0.00  0.00    +0.005 A 
ATOM     33  C   UNL     1      -4.145 -12.955   8.045  0.00  0.00    +0.000 A 
ATOM     34  C   UNL     1      -5.008 -11.109   6.748  0.00  0.00    +0.000 A 
ATOM     35  C   UNL     1      -4.541 -12.422   6.819  0.00  0.00    +0.000 A 
ENDBRANCH  25  27
ENDBRANCH   5  25
ENDBRANCH  19  22
ENDBRANCH  13  19
TORSDOF 7
ENDMDL
MODEL 3
REMARK VINA RESULT:      -6.9     24.973     27.711
REMARK  Name = 45784384
REMARK  11 active torsions:
REMARK  status: ('A' for Active; 'I' for Inactive)
REMARK    1  A    between atoms: O_1  and  C_11
REMARK    2  A    between atoms: N_4  and  C_15
REMARK    3  A    between atoms: N_5  and  C_25
REMARK    4  A    between atoms: N_5  and  C_26
REMARK    5  A    between atoms: C_8  and  C_18
REMARK    6  A    between atoms: C_10  and  C_20
REMARK    7  A    between atoms: C_13  and  C_19
REMARK    8  A    between atoms: C_19  and  C_21
REMARK    9  A    between atoms: C_19  and  C_22
REMARK   10  A    between atoms: C_23  and  C_24
REMARK   11  A    between atoms: C_25  and  C_27
REMARK                            x       y       z     vdW  Elec       q    Type
REMARK                         _______ _______ _______ _____ _____    ______ ____
ROOT
ATOM      8  C   UNL     1       9.508   6.044   5.981  0.00  0.00    -0.027 C 
ATOM      9  C   UNL     1      10.472   7.183   5.512  0.00  0.00    +0.028 C 
ATOM     10  C   UNL     1       9.943   8.589   5.973  0.00  0.00    +0.012 C 
ATOM     11  C   UNL     1      10.799   7.058   3.996  0.00  0.00    +0.122 C 
ATOM     12  C   UNL     1      10.115   4.670   5.609  0.00  0.00    +0.007 C 
ATOM     13  C   UNL     1      11.308   5.648   3.613  0.00  0.00    +0.029 C 
ATOM     14  C   UNL     1       9.373   6.099   7.519  0.00  0.00    +0.009 C 
ATOM     15  C   UNL     1       9.740   8.608   7.515  0.00  0.00    +0.076 C 
ATOM     16  C   UNL     1      10.400   4.529   4.121  0.00  0.00    +0.007 C 
ATOM     17  C   UNL     1       8.889   7.448   8.030  0.00  0.00    +0.023 C 
ATOM     18  C   UNL     1       8.101   6.155   5.341  0.00  0.00    +0.011 C 
ATOM     20  C   UNL     1      10.860   9.756   5.570  0.00  0.00    +0.010 C 
ENDROOT
BRANCH  15   4
ATOM      3  O   UNL     1      10.957  10.586   9.202  0.00  0.00    -0.268 OA
ATOM      4  N   UNL     1       9.143   9.849   7.962  0.00  0.00    -0.307 N 
ATOM     23  C   UNL     1       9.815  10.742   8.779  0.00  0.00    +0.264 C 
ATOM     36  H   UNL     1       8.177  10.037   7.710  0.00  0.00    +0.149 HD
BRANCH  23  24
ATOM      6  N   UNL     1       8.489  11.947  10.393  0.00  0.00    -0.247 NA
ATOM      7  N   UNL     1       8.247  14.141   8.663  0.00  0.00    -0.259 NA
ATOM     24  C   UNL     1       9.055  11.957   9.170  0.00  0.00    +0.143 A 
ATOM     28  C   UNL     1       8.936  13.035   8.320  0.00  0.00    +0.143 A 
ATOM     31  C   UNL     1       7.800  13.053  10.737  0.00  0.00    +0.131 A 
ATOM     32  C   UNL     1       7.681  14.131   9.886  0.00  0.00    +0.130 A 
ENDBRANCH  23  24
ENDBRANCH  15   4
BRANCH  11   1
ATOM      1  O   UNL     1      11.841   7.975   3.655  0.00  0.00    -0.391 OA
ATOM     37  H   UNL     1      12.091   7.816   2.729  0.00  0.00    +0.210 HD
ENDBRANCH  11   1
BRANCH  13  19
ATOM     19  C   UNL     1      11.499   5.505   2.097  0.00  0.00    +0.078 C 
ATOM     21  C   UNL     1      10.209   4.976   1.468  0.00  0.00    +0.017 C 
BRANCH  19  22
ATOM      2  O   UNL     1      12.529   3.350   1.949  0.00  0.00    -0.275 OA
ATOM      5  N   UNL     1      13.887   5.146   1.416  0.00  0.00    -0.300 N 
ATOM     22  C   UNL     1      12.675   4.570   1.810  0.00  0.00    +0.219 C 
ATOM     26  C   UNL     1      15.034   4.283   1.155  0.00  0.00    +0.132 C 
BRANCH   5  25
ATOM     25  C   UNL     1      14.132   6.570   1.194  0.00  0.00    +0.142 C 
BRANCH  25  27
ATOM     27  C   UNL     1      15.157   7.119   2.144  0.00  0.00    -0.030 A 
ATOM     29  C   UNL     1      16.290   7.765   1.651  0.00  0.00    +0.005 A 
ATOM     30  C   UNL     1      14.975   6.981   3.520  0.00  0.00    +0.005 A 
ATOM     33  C   UNL     1      17.241   8.275   2.535  0.00  0.00    +0.000 A 
ATOM     34  C   UNL     1      15.927   7.490   4.403  0.00  0.00    +0.000 A 
ATOM     35  C   UNL     1      17.060   8.137   3.910  0.00  0.00    +0.000 A 
ENDBRANCH  25  27
ENDBRANCH   5  25
ENDBRANCH  19  22
ENDBRANCH  13  19
TORSDOF 7
ENDMDL
MODEL 4
REMARK VINA RESULT:      -6.8     28.678     32.184
REMARK  Name = 45784384
REMARK  11 active torsions:
REMARK  status: ('A' for Active; 'I' for Inactive)
REMARK    1  A    between atoms: O_1  and  C_11
REMARK    2  A    between atoms: N_4  and  C_15
REMARK    3  A    between atoms: N_5  and  C_25
REMARK    4  A    between atoms: N_5  and  C_26
REMARK    5  A    between atoms: C_8  and  C_18
REMARK    6  A    between atoms: C_10  and  C_20
REMARK    7  A    between atoms: C_13  and  C_19
REMARK    8  A    between atoms: C_19  and  C_21
REMARK    9  A    between atoms: C_19  and  C_22
REMARK   10  A    between atoms: C_23  and  C_24
REMARK   11  A    between atoms: C_25  and  C_27
REMARK                            x       y       z     vdW  Elec       q    Type
REMARK                         _______ _______ _______ _____ _____    ______ ____
ROOT
ATOM      8  C   UNL     1      19.759   9.604  21.617  0.00  0.00    -0.027 C 
ATOM      9  C   UNL     1      19.481   8.126  21.185  0.00  0.00    +0.028 C 
ATOM     10  C   UNL     1      17.970   7.755  21.404  0.00  0.00    +0.012 C 
ATOM     11  C   UNL     1      20.508   7.149  21.826  0.00  0.00    +0.122 C 
ATOM     12  C   UNL     1      21.225   9.971  21.284  0.00  0.00    +0.007 C 
ATOM     13  C   UNL     1      21.973   7.579  21.577  0.00  0.00    +0.029 C 
ATOM     14  C   UNL     1      18.842  10.547  20.805  0.00  0.00    +0.009 C 
ATOM     15  C   UNL     1      17.055   8.756  20.644  0.00  0.00    +0.076 C 
ATOM     16  C   UNL     1      22.234   9.040  21.941  0.00  0.00    +0.007 C 
ATOM     17  C   UNL     1      17.364  10.219  20.956  0.00  0.00    +0.023 C 
ATOM     18  C   UNL     1      19.520   9.837  23.130  0.00  0.00    +0.011 C 
ATOM     20  C   UNL     1      17.619   6.320  20.973  0.00  0.00    +0.010 C 
ENDROOT
BRANCH  15   4
ATOM      3  O   UNL     1      14.984   8.303  18.708  0.00  0.00    -0.268 OA
ATOM      4  N   UNL     1      15.653   8.514  20.916  0.00  0.00    -0.307 N 
ATOM     23  C   UNL     1      14.728   8.306  19.908  0.00  0.00    +0.264 C 
ATOM     36  H   UNL     1      15.336   8.557  21.881  0.00  0.00    +0.149 HD
BRANCH  23  24
ATOM      6  N   UNL     1      12.412   8.980  19.899  0.00  0.00    -0.247 NA
ATOM      7  N   UNL     1      11.715   6.860  21.599  0.00  0.00    -0.259 NA
ATOM     24  C   UNL     1      13.325   8.099  20.352  0.00  0.00    +0.143 A 
ATOM     28  C   UNL     1      12.983   7.057  21.187  0.00  0.00    +0.143 A 
ATOM     31  C   UNL     1      11.144   8.783  20.310  0.00  0.00    +0.131 A 
ATOM     32  C   UNL     1      10.801   7.742  21.146  0.00  0.00    +0.130 A 
ENDBRANCH  23  24
ENDBRANCH  15   4
BRANCH  11   1
ATOM      1  O   UNL     1      20.359   5.852  21.245  0.00  0.00    -0.391 OA
ATOM     37  H   UNL     1      19.608   5.412  21.678  0.00  0.00    +0.210 HD
ENDBRANCH  11   1
BRANCH  13  19
ATOM     19  C   UNL     1      22.965   6.679  22.325  0.00  0.00    +0.078 C 
ATOM     21  C   UNL     1      23.311   7.312  23.673  0.00  0.00    +0.017 C 
BRANCH  19  22
ATOM      2  O   UNL     1      25.135   7.304  21.531  0.00  0.00    -0.275 OA
ATOM      5  N   UNL     1      24.270   5.350  20.644  0.00  0.00    -0.300 N 
ATOM     22  C   UNL     1      24.220   6.474  21.475  0.00  0.00    +0.219 C 
ATOM     26  C   UNL     1      25.444   5.137  19.804  0.00  0.00    +0.132 C 
BRANCH   5  25
ATOM     25  C   UNL     1      23.252   4.305  20.545  0.00  0.00    +0.142 C 
BRANCH  25  27
ATOM     27  C   UNL     1      23.601   3.101  21.369  0.00  0.00    -0.030 A 
ATOM     29  C   UNL     1      24.208   1.997  20.770  0.00  0.00    +0.005 A 
ATOM     30  C   UNL     1      23.318   3.085  22.735  0.00  0.00    +0.005 A 
ATOM     33  C   UNL     1      24.532   0.878  21.537  0.00  0.00    +0.000 A 
ATOM     34  C   UNL     1      23.641   1.966  23.501  0.00  0.00    +0.000 A 
ATOM     35  C   UNL     1      24.248   0.862  22.902  0.00  0.00    +0.000 A 
ENDBRANCH  25  27
ENDBRANCH   5  25
ENDBRANCH  19  22
ENDBRANCH  13  19
TORSDOF 7
ENDMDL
MODEL 5
REMARK VINA RESULT:      -6.7      2.412      3.871
REMARK  Name = 45784384
REMARK  11 active torsions:
REMARK  status: ('A' for Active; 'I' for Inactive)
REMARK    1  A    between atoms: O_1  and  C_11
REMARK    2  A    between atoms: N_4  and  C_15
REMARK    3  A    between atoms: N_5  and  C_25
REMARK    4  A    between atoms: N_5  and  C_26
REMARK    5  A    between atoms: C_8  and  C_18
REMARK    6  A    between atoms: C_10  and  C_20
REMARK    7  A    between atoms: C_13  and  C_19
REMARK    8  A    between atoms: C_19  and  C_21
REMARK    9  A    between atoms: C_19  and  C_22
REMARK   10  A    between atoms: C_23  and  C_24
REMARK   11  A    between atoms: C_25  and  C_27
REMARK                            x       y       z     vdW  Elec       q    Type
REMARK                         _______ _______ _______ _____ _____    ______ ____
ROOT
ATOM      8  C   UNL     1      -9.388 -10.815  18.257  0.00  0.00    -0.027 C 
ATOM      9  C   UNL     1      -8.767  -9.874  17.173  0.00  0.00    +0.028 C 
ATOM     10  C   UNL     1      -9.888  -9.258  16.260  0.00  0.00    +0.012 C 
ATOM     11  C   UNL     1      -7.602 -10.575  16.417  0.00  0.00    +0.122 C 
ATOM     12  C   UNL     1      -8.272 -11.314  19.206  0.00  0.00    +0.007 C 
ATOM     13  C   UNL     1      -6.540 -11.163  17.377  0.00  0.00    +0.029 C 
ATOM     14  C   UNL     1     -10.401 -10.011  19.103  0.00  0.00    +0.009 C 
ATOM     15  C   UNL     1     -10.942  -8.515  17.129  0.00  0.00    +0.076 C 
ATOM     16  C   UNL     1      -7.148 -12.035  18.475  0.00  0.00    +0.007 C 
ATOM     17  C   UNL     1     -11.498  -9.366  18.269  0.00  0.00    +0.023 C 
ATOM     18  C   UNL     1     -10.101 -12.045  17.640  0.00  0.00    +0.011 C 
ATOM     20  C   UNL     1      -9.350  -8.297  15.186  0.00  0.00    +0.010 C 
ENDROOT
BRANCH  15   4
ATOM      3  O   UNL     1     -11.462  -5.793  16.380  0.00  0.00    -0.268 OA
ATOM      4  N   UNL     1     -12.051  -8.034  16.332  0.00  0.00    -0.307 N 
ATOM     23  C   UNL     1     -12.215  -6.695  16.023  0.00  0.00    +0.264 C 
ATOM     36  H   UNL     1     -12.760  -8.701  16.041  0.00  0.00    +0.149 HD
BRANCH  23  24
ATOM      6  N   UNL     1     -14.585  -6.898  15.627  0.00  0.00    -0.247 NA
ATOM      7  N   UNL     1     -14.423  -5.234  13.374  0.00  0.00    -0.259 NA
ATOM     24  C   UNL     1     -13.419  -6.361  15.219  0.00  0.00    +0.143 A 
ATOM     28  C   UNL     1     -13.340  -5.543  14.112  0.00  0.00    +0.143 A 
ATOM     31  C   UNL     1     -15.670  -6.590  14.889  0.00  0.00    +0.131 A 
ATOM     32  C   UNL     1     -15.591  -5.773  13.781  0.00  0.00    +0.130 A 
ENDBRANCH  23  24
ENDBRANCH  15   4
BRANCH  11   1
ATOM      1  O   UNL     1      -6.925  -9.622  15.595  0.00  0.00    -0.391 OA
ATOM     37  H   UNL     1      -7.233  -8.735  15.845  0.00  0.00    +0.210 HD
ENDBRANCH  11   1
BRANCH  13  19
ATOM     19  C   UNL     1      -5.470 -11.961  16.622  0.00  0.00    +0.078 C 
ATOM     21  C   UNL     1      -5.454 -13.402  17.134  0.00  0.00    +0.017 C 
BRANCH  19  22
ATOM      2  O   UNL     1      -3.879 -10.640  17.827  0.00  0.00    -0.275 OA
ATOM      5  N   UNL     1      -3.163 -11.448  15.780  0.00  0.00    -0.300 N 
ATOM     22  C   UNL     1      -4.104 -11.297  16.804  0.00  0.00    +0.219 C 
ATOM     26  C   UNL     1      -1.858 -10.809  15.913  0.00  0.00    +0.132 C 
BRANCH   5  25
ATOM     25  C   UNL     1      -3.335 -12.234  14.560  0.00  0.00    +0.142 C 
BRANCH  25  27
ATOM     27  C   UNL     1      -3.506 -11.363  13.349  0.00  0.00    -0.030 A 
ATOM     29  C   UNL     1      -2.447 -11.192  12.458  0.00  0.00    +0.005 A 
ATOM     30  C   UNL     1      -4.724 -10.725  13.117  0.00  0.00    +0.005 A 
ATOM     33  C   UNL     1      -2.607 -10.382  11.333  0.00  0.00    +0.000 A 
ATOM     34  C   UNL     1      -4.883  -9.915  11.993  0.00  0.00    +0.000 A 
ATOM     35  C   UNL     1      -3.824  -9.744  11.101  0.00  0.00    +0.000 A 
ENDBRANCH  25  27
ENDBRANCH   5  25
ENDBRANCH  19  22
ENDBRANCH  13  19
TORSDOF 7
ENDMDL
MODEL 6
REMARK VINA RESULT:      -6.5     25.049     27.133
REMARK  Name = 45784384
REMARK  11 active torsions:
REMARK  status: ('A' for Active; 'I' for Inactive)
REMARK    1  A    between atoms: O_1  and  C_11
REMARK    2  A    between atoms: N_4  and  C_15
REMARK    3  A    between atoms: N_5  and  C_25
REMARK    4  A    between atoms: N_5  and  C_26
REMARK    5  A    between atoms: C_8  and  C_18
REMARK    6  A    between atoms: C_10  and  C_20
REMARK    7  A    between atoms: C_13  and  C_19
REMARK    8  A    between atoms: C_19  and  C_21
REMARK    9  A    between atoms: C_19  and  C_22
REMARK   10  A    between atoms: C_23  and  C_24
REMARK   11  A    between atoms: C_25  and  C_27
REMARK                            x       y       z     vdW  Elec       q    Type
REMARK                         _______ _______ _______ _____ _____    ______ ____
ROOT
ATOM      8  C   UNL     1       9.504   6.004   5.860  0.00  0.00    -0.027 C 
ATOM      9  C   UNL     1      10.380   7.174   5.302  0.00  0.00    +0.028 C 
ATOM     10  C   UNL     1       9.840   8.563   5.800  0.00  0.00    +0.012 C 
ATOM     11  C   UNL     1      10.578   7.048   3.764  0.00  0.00    +0.122 C 
ATOM     12  C   UNL     1      10.128   4.650   5.445  0.00  0.00    +0.007 C 
ATOM     13  C   UNL     1      11.104   5.654   3.346  0.00  0.00    +0.029 C 
ATOM     14  C   UNL     1       9.502   6.067   7.404  0.00  0.00    +0.009 C 
ATOM     15  C   UNL     1       9.771   8.588   7.353  0.00  0.00    +0.076 C 
ATOM     16  C   UNL     1      10.287   4.507   3.938  0.00  0.00    +0.007 C 
ATOM     17  C   UNL     1       9.013   7.402   7.947  0.00  0.00    +0.023 C 
ATOM     18  C   UNL     1       8.044   6.056   5.345  0.00  0.00    +0.011 C 
ATOM     20  C   UNL     1      10.673   9.760   5.311  0.00  0.00    +0.010 C 
ENDROOT
BRANCH  15   4
ATOM      3  O   UNL     1      10.999  10.538   9.064  0.00  0.00    -0.268 OA
ATOM      4  N   UNL     1       9.169   9.810   7.844  0.00  0.00    -0.307 N 
ATOM     23  C   UNL     1       9.847  10.691   8.669  0.00  0.00    +0.264 C 
ATOM     36  H   UNL     1       8.195   9.992   7.617  0.00  0.00    +0.149 HD
BRANCH  23  24
ATOM      6  N   UNL     1       8.557  11.846  10.348  0.00  0.00    -0.247 NA
ATOM      7  N   UNL     1       8.219  14.063   8.664  0.00  0.00    -0.259 NA
ATOM     24  C   UNL     1       9.080  11.885   9.107  0.00  0.00    +0.143 A 
ATOM     28  C   UNL     1       8.914  12.975   8.280  0.00  0.00    +0.143 A 
ATOM     31  C   UNL     1       7.862  12.934  10.733  0.00  0.00    +0.131 A 
ATOM     32  C   UNL     1       7.695  14.024   9.906  0.00  0.00    +0.130 A 
ENDBRANCH  23  24
ENDBRANCH  15   4
BRANCH  11   1
ATOM      1  O   UNL     1      11.550   7.999   3.328  0.00  0.00    -0.391 OA
ATOM     37  H   UNL     1      11.724   7.842   2.385  0.00  0.00    +0.210 HD
ENDBRANCH  11   1
BRANCH  13  19
ATOM     19  C   UNL     1      11.168   5.505   1.820  0.00  0.00    +0.078 C 
ATOM     21  C   UNL     1      10.376   4.267   1.396  0.00  0.00    +0.017 C 
BRANCH  19  22
ATOM      2  O   UNL     1      13.499   5.116   2.197  0.00  0.00    -0.275 OA
ATOM      5  N   UNL     1      12.916   5.671   0.027  0.00  0.00    -0.300 N 
ATOM     22  C   UNL     1      12.627   5.406   1.370  0.00  0.00    +0.219 C 
ATOM     26  C   UNL     1      14.300   5.607  -0.429  0.00  0.00    +0.132 C 
BRANCH   5  25
ATOM     25  C   UNL     1      11.943   5.985  -1.018  0.00  0.00    +0.142 C 
BRANCH  25  27
ATOM     27  C   UNL     1      11.497   4.758  -1.757  0.00  0.00    -0.030 A 
ATOM     29  C   UNL     1      10.344   4.796  -2.541  0.00  0.00    +0.005 A 
ATOM     30  C   UNL     1      12.236   3.579  -1.660  0.00  0.00    +0.005 A 
ATOM     33  C   UNL     1       9.931   3.654  -3.228  0.00  0.00    +0.000 A 
ATOM     34  C   UNL     1      11.822   2.438  -2.346  0.00  0.00    +0.000 A 
ATOM     35  C   UNL     1      10.669   2.475  -3.131  0.00  0.00    +0.000 A 
ENDBRANCH  25  27
ENDBRANCH   5  25
ENDBRANCH  19  22
ENDBRANCH  13  19
TORSDOF 7
ENDMDL
MODEL 7
REMARK VINA RESULT:      -6.5     24.582     28.269
REMARK  Name = 45784384
REMARK  11 active torsions:
REMARK  status: ('A' for Active; 'I' for Inactive)
REMARK    1  A    between atoms: O_1  and  C_11
REMARK    2  A    between atoms: N_4  and  C_15
REMARK    3  A    between atoms: N_5  and  C_25
REMARK    4  A    between atoms: N_5  and  C_26
REMARK    5  A    between atoms: C_8  and  C_18
REMARK    6  A    between atoms: C_10  and  C_20
REMARK    7  A    between atoms: C_13  and  C_19
REMARK    8  A    between atoms: C_19  and  C_21
REMARK    9  A    between atoms: C_19  and  C_22
REMARK   10  A    between atoms: C_23  and  C_24
REMARK   11  A    between atoms: C_25  and  C_27
REMARK                            x       y       z     vdW  Elec       q    Type
REMARK                         _______ _______ _______ _____ _____    ______ ____
ROOT
ATOM      8  C   UNL     1      13.326   7.553   2.415  0.00  0.00    -0.027 C 
ATOM      9  C   UNL     1      12.534   6.349   3.024  0.00  0.00    +0.028 C 
ATOM     10  C   UNL     1      11.613   5.681   1.940  0.00  0.00    +0.012 C 
ATOM     11  C   UNL     1      11.822   6.753   4.347  0.00  0.00    +0.122 C 
ATOM     12  C   UNL     1      14.304   8.115   3.475  0.00  0.00    +0.007 C 
ATOM     13  C   UNL     1      12.785   7.410   5.363  0.00  0.00    +0.029 C 
ATOM     14  C   UNL     1      14.167   7.051   1.220  0.00  0.00    +0.009 C 
ATOM     15  C   UNL     1      12.459   5.248   0.709  0.00  0.00    +0.076 C 
ATOM     16  C   UNL     1      13.605   8.548   4.757  0.00  0.00    +0.007 C 
ATOM     17  C   UNL     1      13.331   6.369   0.146  0.00  0.00    +0.023 C 
ATOM     18  C   UNL     1      12.397   8.698   1.940  0.00  0.00    +0.011 C 
ATOM     20  C   UNL     1      10.824   4.469   2.463  0.00  0.00    +0.010 C 
ENDROOT
BRANCH  15   4
ATOM      3  O   UNL     1      13.051   3.024  -1.007  0.00  0.00    -0.268 OA
ATOM      4  N   UNL     1      11.627   4.733  -0.359  0.00  0.00    -0.307 N 
ATOM     23  C   UNL     1      12.003   3.650  -1.134  0.00  0.00    +0.264 C 
ATOM     36  H   UNL     1      10.765   5.225  -0.578  0.00  0.00    +0.149 HD
BRANCH  23  24
ATOM      6  N   UNL     1      10.599   4.253  -3.000  0.00  0.00    -0.247 NA
ATOM      7  N   UNL     1       9.787   1.590  -3.341  0.00  0.00    -0.259 NA
ATOM     24  C   UNL     1      11.050   3.262  -2.206  0.00  0.00    +0.143 A 
ATOM     28  C   UNL     1      10.652   1.954  -2.374  0.00  0.00    +0.143 A 
ATOM     31  C   UNL     1       9.734   3.890  -3.967  0.00  0.00    +0.131 A 
ATOM     32  C   UNL     1       9.334   2.581  -4.135  0.00  0.00    +0.130 A 
ENDBRANCH  23  24
ENDBRANCH  15   4
BRANCH  11   1
ATOM      1  O   UNL     1      11.293   5.586   4.980  0.00  0.00    -0.391 OA
ATOM     37  H   UNL     1      10.475   5.336   4.518  0.00  0.00    +0.210 HD
ENDBRANCH  11   1
BRANCH  13  19
ATOM     19  C   UNL     1      12.042   7.919   6.605  0.00  0.00    +0.078 C 
ATOM     21  C   UNL     1      12.925   8.919   7.353  0.00  0.00    +0.017 C 
BRANCH  19  22
ATOM      2  O   UNL     1      12.490   5.842   7.707  0.00  0.00    -0.275 OA
ATOM      5  N   UNL     1      10.374   6.717   8.043  0.00  0.00    -0.300 N 
ATOM     22  C   UNL     1      11.664   6.739   7.502  0.00  0.00    +0.219 C 
ATOM     26  C   UNL     1       9.975   5.594   8.885  0.00  0.00    +0.132 C 
BRANCH   5  25
ATOM     25  C   UNL     1       9.353   7.750   7.880  0.00  0.00    +0.142 C 
BRANCH  25  27
ATOM     27  C   UNL     1       8.945   7.916   6.445  0.00  0.00    -0.030 A 
ATOM     29  C   UNL     1       8.434   6.830   5.735  0.00  0.00    +0.005 A 
ATOM     30  C   UNL     1       9.079   9.157   5.822  0.00  0.00    +0.005 A 
ATOM     33  C   UNL     1       8.056   6.986   4.401  0.00  0.00    +0.000 A 
ATOM     34  C   UNL     1       8.701   9.312   4.489  0.00  0.00    +0.000 A 
ATOM     35  C   UNL     1       8.189   8.226   3.778  0.00  0.00    +0.000 A 
ENDBRANCH  25  27
ENDBRANCH   5  25
ENDBRANCH  19  22
ENDBRANCH  13  19
TORSDOF 7
ENDMDL
MODEL 8
REMARK VINA RESULT:      -6.5      3.105      3.776
REMARK  Name = 45784384
REMARK  11 active torsions:
REMARK  status: ('A' for Active; 'I' for Inactive)
REMARK    1  A    between atoms: O_1  and  C_11
REMARK    2  A    between atoms: N_4  and  C_15
REMARK    3  A    between atoms: N_5  and  C_25
REMARK    4  A    between atoms: N_5  and  C_26
REMARK    5  A    between atoms: C_8  and  C_18
REMARK    6  A    between atoms: C_10  and  C_20
REMARK    7  A    between atoms: C_13  and  C_19
REMARK    8  A    between atoms: C_19  and  C_21
REMARK    9  A    between atoms: C_19  and  C_22
REMARK   10  A    between atoms: C_23  and  C_24
REMARK   11  A    between atoms: C_25  and  C_27
REMARK                            x       y       z     vdW  Elec       q    Type
REMARK                         _______ _______ _______ _____ _____    ______ ____
ROOT
ATOM      8  C   UNL     1      -4.985 -11.207  17.656  0.00  0.00    -0.027 C 
ATOM      9  C   UNL     1      -5.767 -12.349  16.926  0.00  0.00    +0.028 C 
ATOM     10  C   UNL     1      -6.686 -13.128  17.933  0.00  0.00    +0.012 C 
ATOM     11  C   UNL     1      -4.810 -13.233  16.075  0.00  0.00    +0.122 C 
ATOM     12  C   UNL     1      -4.178 -10.390  16.618  0.00  0.00    +0.007 C 
ATOM     13  C   UNL     1      -3.931 -12.400  15.112  0.00  0.00    +0.029 C 
ATOM     14  C   UNL     1      -5.998 -10.249  18.323  0.00  0.00    +0.009 C 
ATOM     15  C   UNL     1      -7.650 -12.144  18.654  0.00  0.00    +0.076 C 
ATOM     16  C   UNL     1      -3.213 -11.246  15.810  0.00  0.00    +0.007 C 
ATOM     17  C   UNL     1      -6.937 -10.953  19.292  0.00  0.00    +0.023 C 
ATOM     18  C   UNL     1      -4.009 -11.746  18.731  0.00  0.00    +0.011 C 
ATOM     20  C   UNL     1      -7.508 -14.251  17.276  0.00  0.00    +0.010 C 
ENDROOT
BRANCH  15   4
ATOM      3  O   UNL     1     -10.500 -12.026  18.978  0.00  0.00    -0.268 OA
ATOM      4  N   UNL     1      -8.434 -12.810  19.674  0.00  0.00    -0.307 N 
ATOM     23  C   UNL     1      -9.811 -12.690  19.746  0.00  0.00    +0.264 C 
ATOM     36  H   UNL     1      -7.943 -13.336  20.391  0.00  0.00    +0.149 HD
BRANCH  23  24
ATOM      6  N   UNL     1     -11.689 -12.989  21.229  0.00  0.00    -0.247 NA
ATOM      7  N   UNL     1     -10.421 -15.132  22.520  0.00  0.00    -0.259 NA
ATOM     24  C   UNL     1     -10.463 -13.415  20.867  0.00  0.00    +0.143 A 
ATOM     28  C   UNL     1      -9.841 -14.468  21.501  0.00  0.00    +0.143 A 
ATOM     31  C   UNL     1     -12.270 -13.652  22.248  0.00  0.00    +0.131 A 
ATOM     32  C   UNL     1     -11.647 -14.705  22.883  0.00  0.00    +0.130 A 
ENDBRANCH  23  24
ENDBRANCH  15   4
BRANCH  11   1
ATOM      1  O   UNL     1      -5.578 -14.121  15.261  0.00  0.00    -0.391 OA
ATOM     37  H   UNL     1      -6.507 -13.837  15.298  0.00  0.00    +0.210 HD
ENDBRANCH  11   1
BRANCH  13  19
ATOM     19  C   UNL     1      -2.905 -13.273  14.378  0.00  0.00    +0.078 C 
ATOM     21  C   UNL     1      -1.594 -12.501  14.226  0.00  0.00    +0.017 C 
BRANCH  19  22
ATOM      2  O   UNL     1      -4.034 -14.778  12.899  0.00  0.00    -0.275 OA
ATOM      5  N   UNL     1      -3.274 -12.815  11.939  0.00  0.00    -0.300 N 
ATOM     22  C   UNL     1      -3.460 -13.689  13.015  0.00  0.00    +0.219 C 
ATOM     26  C   UNL     1      -3.772 -13.192  10.621  0.00  0.00    +0.132 C 
BRANCH   5  25
ATOM     25  C   UNL     1      -2.641 -11.498  11.998  0.00  0.00    +0.142 C 
BRANCH  25  27
ATOM     27  C   UNL     1      -3.538 -10.419  11.467  0.00  0.00    -0.030 A 
ATOM     29  C   UNL     1      -3.197  -9.742  10.297  0.00  0.00    +0.005 A 
ATOM     30  C   UNL     1      -4.714 -10.094  12.144  0.00  0.00    +0.005 A 
ATOM     33  C   UNL     1      -4.032  -8.739   9.803  0.00  0.00    +0.000 A 
ATOM     34  C   UNL     1      -5.547  -9.091  11.651  0.00  0.00    +0.000 A 
ATOM     35  C   UNL     1      -5.206  -8.413  10.480  0.00  0.00    +0.000 A 
ENDBRANCH  25  27
ENDBRANCH   5  25
ENDBRANCH  19  22
ENDBRANCH  13  19
TORSDOF 7
ENDMDL
MODEL 9
REMARK VINA RESULT:      -6.3      3.844      8.543
REMARK  Name = 45784384
REMARK  11 active torsions:
REMARK  status: ('A' for Active; 'I' for Inactive)
REMARK    1  A    between atoms: O_1  and  C_11
REMARK    2  A    between atoms: N_4  and  C_15
REMARK    3  A    between atoms: N_5  and  C_25
REMARK    4  A    between atoms: N_5  and  C_26
REMARK    5  A    between atoms: C_8  and  C_18
REMARK    6  A    between atoms: C_10  and  C_20
REMARK    7  A    between atoms: C_13  and  C_19
REMARK    8  A    between atoms: C_19  and  C_21
REMARK    9  A    between atoms: C_19  and  C_22
REMARK   10  A    between atoms: C_23  and  C_24
REMARK   11  A    between atoms: C_25  and  C_27
REMARK                            x       y       z     vdW  Elec       q    Type
REMARK                         _______ _______ _______ _____ _____    ______ ____
ROOT
ATOM      8  C   UNL     1      -3.912 -10.593  10.404  0.00  0.00    -0.027 C 
ATOM      9  C   UNL     1      -5.293 -10.656  11.136  0.00  0.00    +0.028 C 
ATOM     10  C   UNL     1      -6.357  -9.766  10.398  0.00  0.00    +0.012 C 
ATOM     11  C   UNL     1      -5.138 -10.385  12.660  0.00  0.00    +0.122 C 
ATOM     12  C   UNL     1      -2.921 -11.566  11.089  0.00  0.00    +0.007 C 
ATOM     13  C   UNL     1      -4.070 -11.291  13.319  0.00  0.00    +0.029 C 
ATOM     14  C   UNL     1      -4.094 -11.059   8.942  0.00  0.00    +0.009 C 
ATOM     15  C   UNL     1      -6.477 -10.195   8.909  0.00  0.00    +0.076 C 
ATOM     16  C   UNL     1      -2.737 -11.279  12.572  0.00  0.00    +0.007 C 
ATOM     17  C   UNL     1      -5.134 -10.250   8.182  0.00  0.00    +0.023 C 
ATOM     18  C   UNL     1      -3.297  -9.171  10.414  0.00  0.00    +0.011 C 
ATOM     20  C   UNL     1      -7.750  -9.803  11.049  0.00  0.00    +0.010 C 
ENDROOT
BRANCH  15   4
ATOM      3  O   UNL     1      -8.420 -10.984   6.948  0.00  0.00    -0.268 OA
ATOM      4  N   UNL     1      -7.364  -9.321   8.168  0.00  0.00    -0.307 N 
ATOM     23  C   UNL     1      -8.271  -9.800   7.240  0.00  0.00    +0.264 C 
ATOM     36  H   UNL     1      -7.272  -8.318   8.300  0.00  0.00    +0.149 HD
BRANCH  23  24
ATOM      6  N   UNL     1      -8.632  -8.339   5.356  0.00  0.00    -0.247 NA
ATOM      7  N   UNL     1     -11.006  -7.357   6.483  0.00  0.00    -0.259 NA
ATOM     24  C   UNL     1      -9.090  -8.773   6.547  0.00  0.00    +0.143 A 
ATOM     28  C   UNL     1     -10.256  -8.290   7.100  0.00  0.00    +0.143 A 
ATOM     31  C   UNL     1      -9.382  -7.405   4.738  0.00  0.00    +0.131 A 
ATOM     32  C   UNL     1     -10.548  -6.922   5.292  0.00  0.00    +0.130 A 
ENDBRANCH  23  24
ENDBRANCH  15   4
BRANCH  11   1
ATOM      1  O   UNL     1      -6.373 -10.662  13.323  0.00  0.00    -0.391 OA
ATOM     37  H   UNL     1      -6.487 -11.626  13.357  0.00  0.00    +0.210 HD
ENDBRANCH  11   1
BRANCH  13  19
ATOM     19  C   UNL     1      -3.838 -10.920  14.789  0.00  0.00    +0.078 C 
ATOM     21  C   UNL     1      -2.414 -10.390  14.962  0.00  0.00    +0.017 C 
BRANCH  19  22
ATOM      2  O   UNL     1      -3.862 -13.272  15.227  0.00  0.00    -0.275 OA
ATOM      5  N   UNL     1      -4.570 -11.924  16.969  0.00  0.00    -0.300 N 
ATOM     22  C   UNL     1      -4.082 -12.142  15.676  0.00  0.00    +0.219 C 
ATOM     26  C   UNL     1      -4.834 -13.069  17.832  0.00  0.00    +0.132 C 
BRANCH   5  25
ATOM     25  C   UNL     1      -4.822 -10.623  17.587  0.00  0.00    +0.142 C 
BRANCH  25  27
ATOM     27  C   UNL     1      -6.286 -10.297  17.634  0.00  0.00    -0.030 A 
ATOM     29  C   UNL     1      -7.068 -10.750  18.696  0.00  0.00    +0.005 A 
ATOM     30  C   UNL     1      -6.865  -9.542  16.614  0.00  0.00    +0.005 A 
ATOM     33  C   UNL     1      -8.429 -10.446  18.738  0.00  0.00    +0.000 A 
ATOM     34  C   UNL     1      -8.225  -9.239  16.656  0.00  0.00    +0.000 A 
ATOM     35  C   UNL     1      -9.008  -9.692  17.719  0.00  0.00    +0.000 A 
ENDBRANCH  25  27
ENDBRANCH   5  25
ENDBRANCH  19  22
ENDBRANCH  13  19
TORSDOF 7
ENDMDL
MODEL 10
REMARK VINA RESULT:      -6.2     26.384     28.676
REMARK  Name = 45784384
REMARK  11 active torsions:
REMARK  status: ('A' for Active; 'I' for Inactive)
REMARK    1  A    between atoms: O_1  and  C_11
REMARK    2  A    between atoms: N_4  and  C_15
REMARK    3  A    between atoms: N_5  and  C_25
REMARK    4  A    between atoms: N_5  and  C_26
REMARK    5  A    between atoms: C_8  and  C_18
REMARK    6  A    between atoms: C_10  and  C_20
REMARK    7  A    between atoms: C_13  and  C_19
REMARK    8  A    between atoms: C_19  and  C_21
REMARK    9  A    between atoms: C_19  and  C_22
REMARK   10  A    between atoms: C_23  and  C_24
REMARK   11  A    between atoms: C_25  and  C_27
REMARK                            x       y       z     vdW  Elec       q    Type
REMARK                         _______ _______ _______ _____ _____    ______ ____
ROOT
ATOM      8  C   UNL     1      16.253  -5.664  30.597  0.00  0.00    -0.027 C 
ATOM      9  C   UNL     1      17.127  -4.590  29.868  0.00  0.00    +0.028 C 
ATOM     10  C   UNL     1      16.831  -3.154  30.431  0.00  0.00    +0.012 C 
ATOM     11  C   UNL     1      17.026  -4.735  28.322  0.00  0.00    +0.122 C 
ATOM     12  C   UNL     1      16.650  -7.075  30.100  0.00  0.00    +0.007 C 
ATOM     13  C   UNL     1      17.323  -6.175  27.840  0.00  0.00    +0.029 C 
ATOM     14  C   UNL     1      16.541  -5.602  32.114  0.00  0.00    +0.009 C 
ATOM     15  C   UNL     1      17.050  -3.123  31.969  0.00  0.00    +0.076 C 
ATOM     16  C   UNL     1      16.516  -7.233  28.592  0.00  0.00    +0.007 C 
ATOM     17  C   UNL     1      16.297  -4.225  32.713  0.00  0.00    +0.023 C 
ATOM     18  C   UNL     1      14.737  -5.461  30.356  0.00  0.00    +0.011 C 
ATOM     20  C   UNL     1      17.678  -2.049  29.776  0.00  0.00    +0.010 C 
ENDROOT
BRANCH  15   4
ATOM      3  O   UNL     1      18.743  -1.345  33.458  0.00  0.00    -0.268 OA
ATOM      4  N   UNL     1      16.675  -1.845  32.540  0.00  0.00    -0.307 N 
ATOM     23  C   UNL     1      17.569  -1.057  33.244  0.00  0.00    +0.264 C 
ATOM     36  H   UNL     1      15.706  -1.550  32.464  0.00  0.00    +0.149 HD
BRANCH  23  24
ATOM      6  N   UNL     1      16.648   1.143  32.887  0.00  0.00    -0.247 NA
ATOM      7  N   UNL     1      16.410   1.569  35.649  0.00  0.00    -0.259 NA
ATOM     24  C   UNL     1      17.021   0.212  33.787  0.00  0.00    +0.143 A 
ATOM     28  C   UNL     1      16.903   0.421  35.144  0.00  0.00    +0.143 A 
ATOM     31  C   UNL     1      16.155   2.291  33.391  0.00  0.00    +0.131 A 
ATOM     32  C   UNL     1      16.038   2.501  34.748  0.00  0.00    +0.130 A 
ENDBRANCH  23  24
ENDBRANCH  15   4
BRANCH  11   1
ATOM      1  O   UNL     1      17.994  -3.889  27.699  0.00  0.00    -0.391 OA
ATOM     37  H   UNL     1      17.573  -3.461  26.934  0.00  0.00    +0.210 HD
ENDBRANCH  11   1
BRANCH  13  19
ATOM     19  C   UNL     1      17.091  -6.329  26.332  0.00  0.00    +0.078 C 
ATOM     21  C   UNL     1      16.236  -7.570  26.072  0.00  0.00    +0.017 C 
BRANCH  19  22
ATOM      2  O   UNL     1      19.423  -6.855  26.216  0.00  0.00    -0.275 OA
ATOM      5  N   UNL     1      18.493  -6.000  24.277  0.00  0.00    -0.300 N 
ATOM     22  C   UNL     1      18.436  -6.426  25.608  0.00  0.00    +0.219 C 
ATOM     26  C   UNL     1      19.766  -6.059  23.566  0.00  0.00    +0.132 C 
BRANCH   5  25
ATOM     25  C   UNL     1      17.370  -5.515  23.478  0.00  0.00    +0.142 C 
BRANCH  25  27
ATOM     27  C   UNL     1      17.259  -4.019  23.513  0.00  0.00    -0.030 A 
ATOM     29  C   UNL     1      16.519  -3.398  24.518  0.00  0.00    +0.005 A 
ATOM     30  C   UNL     1      17.897  -3.250  22.539  0.00  0.00    +0.005 A 
ATOM     33  C   UNL     1      16.417  -2.006  24.549  0.00  0.00    +0.000 A 
ATOM     34  C   UNL     1      17.794  -1.860  22.570  0.00  0.00    +0.000 A 
ATOM     35  C   UNL     1      17.054  -1.238  23.576  0.00  0.00    +0.000 A 
ENDBRANCH  25  27
ENDBRANCH   5  25
ENDBRANCH  19  22
ENDBRANCH  13  19
TORSDOF 7
ENDMDL
