MODEL 1
REMARK VINA RESULT:      -7.4      0.000      0.000
REMARK  Name = 9424513
REMARK  2 active torsions:
REMARK  status: ('A' for Active; 'I' for Inactive)
REMARK    1  A    between atoms: C_14  and  C_19
REMARK    2  A    between atoms: C_16  and  C_20
REMARK                            x       y       z     vdW  Elec       q    Type
REMARK                         _______ _______ _______ _____ _____    ______ ____
ROOT
ATOM      3  O   UNL     1      11.225   9.186  17.308  0.00  0.00    -0.268 OA
ATOM      4  O   UNL     1      11.199  12.121  21.448  0.00  0.00    -0.269 OA
ATOM      5  N   UNL     1      12.257   8.572  19.319  0.00  0.00    -0.311 N 
ATOM      6  N   UNL     1      12.191  10.101  22.080  0.00  0.00    -0.296 N 
ATOM      7  C   UNL     1      10.890   8.089  21.435  0.00  0.00    +0.027 C 
ATOM      8  C   UNL     1      13.347   7.976  21.504  0.00  0.00    +0.054 C 
ATOM      9  C   UNL     1      12.067   7.203  21.817  0.00  0.00    +0.018 C 
ATOM     10  C   UNL     1      10.939   8.338  19.926  0.00  0.00    +0.130 C 
ATOM     11  C   UNL     1      10.918   9.401  22.237  0.00  0.00    +0.113 C 
ATOM     12  C   UNL     1      13.381   9.276  22.337  0.00  0.00    +0.117 C 
ATOM     13  C   UNL     1      13.455   8.309  20.014  0.00  0.00    +0.034 A 
ATOM     14  C   UNL     1      14.645   8.388  19.365  0.00  0.00    +0.005 A 
ATOM     15  C   UNL     1      12.240   8.957  17.967  0.00  0.00    +0.252 A 
ATOM     16  C   UNL     1      12.196  11.434  21.662  0.00  0.00    +0.253 C 
ATOM     17  C   UNL     1      14.668   8.788  17.971  0.00  0.00    +0.015 A 
ATOM     18  C   UNL     1      13.555   9.076  17.296  0.00  0.00    +0.071 A 
ENDROOT
BRANCH  14  19
ATOM      2  F   UNL     1      15.839   5.828  19.339  0.00  0.00    -0.205 F 
ATOM     19  C   UNL     1      15.926   8.097  20.048  0.00  0.00    +0.019 A 
ATOM     21  C   UNL     1      16.465   6.815  19.999  0.00  0.00    +0.131 A 
ATOM     22  C   UNL     1      16.583   9.112  20.736  0.00  0.00    +0.011 A 
ATOM     24  C   UNL     1      17.672   6.546  20.644  0.00  0.00    +0.039 A 
ATOM     25  C   UNL     1      17.790   8.844  21.383  0.00  0.00    +0.001 A 
ATOM     27  C   UNL     1      18.333   7.560  21.337  0.00  0.00    +0.003 A 
ENDBRANCH  14  19
BRANCH  16  20
ATOM      1  S   UNL     1      14.182  13.015  22.691  0.00  0.00    -0.092 S 
ATOM     20  C   UNL     1      13.492  12.085  21.434  0.00  0.00    +0.074 A 
ATOM     23  C   UNL     1      14.277  12.061  20.308  0.00  0.00    +0.021 A 
ATOM     26  C   UNL     1      15.471  12.821  20.477  0.00  0.00    +0.008 A 
ATOM     28  C   UNL     1      15.546  13.394  21.728  0.00  0.00    +0.046 A 
ENDBRANCH  16  20
TORSDOF 2
ENDMDL
MODEL 2
REMARK VINA RESULT:      -6.7      2.272      3.684
REMARK  Name = 9424513
REMARK  2 active torsions:
REMARK  status: ('A' for Active; 'I' for Inactive)
REMARK    1  A    between atoms: C_14  and  C_19
REMARK    2  A    between atoms: C_16  and  C_20
REMARK                            x       y       z     vdW  Elec       q    Type
REMARK                         _______ _______ _______ _____ _____    ______ ____
ROOT
ATOM      3  O   UNL     1      13.938   9.451  16.499  0.00  0.00    -0.268 OA
ATOM      4  O   UNL     1      10.845   8.178  20.315  0.00  0.00    -0.269 OA
ATOM      5  N   UNL     1      14.699   9.007  18.669  0.00  0.00    -0.311 N 
ATOM      6  N   UNL     1      13.023   7.984  21.141  0.00  0.00    -0.296 N 
ATOM      7  C   UNL     1      14.541   6.660  19.693  0.00  0.00    +0.027 C 
ATOM      8  C   UNL     1      15.447   8.523  21.019  0.00  0.00    +0.054 C 
ATOM      9  C   UNL     1      15.731   7.103  20.530  0.00  0.00    +0.018 C 
ATOM     10  C   UNL     1      14.440   7.573  18.469  0.00  0.00    +0.130 C 
ATOM     11  C   UNL     1      13.252   6.676  20.532  0.00  0.00    +0.113 C 
ATOM     12  C   UNL     1      14.170   8.524  21.887  0.00  0.00    +0.117 C 
ATOM     13  C   UNL     1      15.285   9.500  19.852  0.00  0.00    +0.034 A 
ATOM     14  C   UNL     1      15.651  10.805  19.933  0.00  0.00    +0.005 A 
ATOM     15  C   UNL     1      14.435   9.830  17.560  0.00  0.00    +0.252 A 
ATOM     16  C   UNL     1      11.802   8.633  20.939  0.00  0.00    +0.253 C 
ATOM     17  C   UNL     1      15.391  11.686  18.810  0.00  0.00    +0.015 A 
ATOM     18  C   UNL     1      14.807  11.257  17.690  0.00  0.00    +0.071 A 
ENDROOT
BRANCH  14  19
ATOM      2  F   UNL     1      18.415  10.539  20.455  0.00  0.00    -0.205 F 
ATOM     19  C   UNL     1      16.292  11.361  21.146  0.00  0.00    +0.019 A 
ATOM     21  C   UNL     1      17.660  11.198  21.348  0.00  0.00    +0.131 A 
ATOM     22  C   UNL     1      15.519  12.045  22.078  0.00  0.00    +0.011 A 
ATOM     24  C   UNL     1      18.259  11.724  22.492  0.00  0.00    +0.039 A 
ATOM     25  C   UNL     1      16.118  12.571  23.224  0.00  0.00    +0.001 A 
ATOM     27  C   UNL     1      17.487  12.409  23.430  0.00  0.00    +0.003 A 
ENDBRANCH  14  19
BRANCH  16  20
ATOM      1  S   UNL     1      10.889  10.156  23.025  0.00  0.00    -0.092 S 
ATOM     20  C   UNL     1      11.632   9.981  21.496  0.00  0.00    +0.074 A 
ATOM     23  C   UNL     1      11.997  11.186  20.948  0.00  0.00    +0.021 A 
ATOM     26  C   UNL     1      11.660  12.279  21.799  0.00  0.00    +0.008 A 
ATOM     28  C   UNL     1      11.052  11.860  22.962  0.00  0.00    +0.046 A 
ENDBRANCH  16  20
TORSDOF 2
ENDMDL
MODEL 3
REMARK VINA RESULT:      -6.7      3.088      5.553
REMARK  Name = 9424513
REMARK  2 active torsions:
REMARK  status: ('A' for Active; 'I' for Inactive)
REMARK    1  A    between atoms: C_14  and  C_19
REMARK    2  A    between atoms: C_16  and  C_20
REMARK                            x       y       z     vdW  Elec       q    Type
REMARK                         _______ _______ _______ _____ _____    ______ ____
ROOT
ATOM      3  O   UNL     1      15.966   7.637  21.916  0.00  0.00    -0.268 OA
ATOM      4  O   UNL     1      14.490   7.561  17.061  0.00  0.00    -0.269 OA
ATOM      5  N   UNL     1      13.886   8.440  21.198  0.00  0.00    -0.311 N 
ATOM      6  N   UNL     1      12.648   8.300  18.297  0.00  0.00    -0.296 N 
ATOM      7  C   UNL     1      12.096   6.867  20.246  0.00  0.00    +0.027 C 
ATOM      8  C   UNL     1      11.674   9.288  20.360  0.00  0.00    +0.054 C 
ATOM      9  C   UNL     1      11.115   7.918  20.744  0.00  0.00    +0.018 C 
ATOM     10  C   UNL     1      13.428   7.060  20.975  0.00  0.00    +0.130 C 
ATOM     11  C   UNL     1      12.257   6.957  18.719  0.00  0.00    +0.113 C 
ATOM     12  C   UNL     1      11.801   9.380  18.824  0.00  0.00    +0.117 C 
ATOM     13  C   UNL     1      13.033   9.547  21.013  0.00  0.00    +0.034 A 
ATOM     14  C   UNL     1      13.445  10.787  21.380  0.00  0.00    +0.005 A 
ATOM     15  C   UNL     1      15.184   8.569  21.721  0.00  0.00    +0.252 A 
ATOM     16  C   UNL     1      13.784   8.467  17.500  0.00  0.00    +0.253 C 
ATOM     17  C   UNL     1      14.781  10.960  21.919  0.00  0.00    +0.015 A 
ATOM     18  C   UNL     1      15.623   9.938  22.075  0.00  0.00    +0.071 A 
ENDROOT
BRANCH  14  19
ATOM      2  F   UNL     1      11.311  11.351  23.142  0.00  0.00    -0.205 F 
ATOM     19  C   UNL     1      12.576  11.975  21.226  0.00  0.00    +0.019 A 
ATOM     21  C   UNL     1      11.539  12.200  22.127  0.00  0.00    +0.131 A 
ATOM     22  C   UNL     1      12.802  12.861  20.177  0.00  0.00    +0.011 A 
ATOM     24  C   UNL     1      10.722  13.320  21.978  0.00  0.00    +0.039 A 
ATOM     25  C   UNL     1      11.985  13.981  20.027  0.00  0.00    +0.001 A 
ATOM     27  C   UNL     1      10.944  14.210  20.928  0.00  0.00    +0.003 A 
ENDBRANCH  14  19
BRANCH  16  20
ATOM      1  S   UNL     1      13.797  10.461  15.622  0.00  0.00    -0.092 S 
ATOM     20  C   UNL     1      14.198   9.834  17.161  0.00  0.00    +0.074 A 
ATOM     23  C   UNL     1      14.895  10.734  17.929  0.00  0.00    +0.021 A 
ATOM     26  C   UNL     1      15.106  11.965  17.242  0.00  0.00    +0.008 A 
ATOM     28  C   UNL     1      14.560  11.952  15.977  0.00  0.00    +0.046 A 
ENDBRANCH  16  20
TORSDOF 2
ENDMDL
MODEL 4
REMARK VINA RESULT:      -6.7     14.813     17.189
REMARK  Name = 9424513
REMARK  2 active torsions:
REMARK  status: ('A' for Active; 'I' for Inactive)
REMARK    1  A    between atoms: C_14  and  C_19
REMARK    2  A    between atoms: C_16  and  C_20
REMARK                            x       y       z     vdW  Elec       q    Type
REMARK                         _______ _______ _______ _____ _____    ______ ____
ROOT
ATOM      3  O   UNL     1       7.599   8.835   2.947  0.00  0.00    -0.268 OA
ATOM      4  O   UNL     1      10.949   9.796   6.636  0.00  0.00    -0.269 OA
ATOM      5  N   UNL     1       9.043   7.211   3.820  0.00  0.00    -0.311 N 
ATOM      6  N   UNL     1      11.040   7.492   6.248  0.00  0.00    -0.296 N 
ATOM      7  C   UNL     1       8.823   6.379   6.237  0.00  0.00    +0.027 C 
ATOM      8  C   UNL     1      10.622   5.517   4.797  0.00  0.00    +0.054 C 
ATOM      9  C   UNL     1       9.462   5.106   5.703  0.00  0.00    +0.018 C 
ATOM     10  C   UNL     1       8.249   7.166   5.056  0.00  0.00    +0.130 C 
ATOM     11  C   UNL     1       9.844   7.204   7.038  0.00  0.00    +0.113 C 
ATOM     12  C   UNL     1      11.658   6.317   5.617  0.00  0.00    +0.117 C 
ATOM     13  C   UNL     1      10.141   6.352   3.608  0.00  0.00    +0.034 A 
ATOM     14  C   UNL     1      10.748   6.316   2.394  0.00  0.00    +0.005 A 
ATOM     15  C   UNL     1       8.561   8.076   2.822  0.00  0.00    +0.252 A 
ATOM     16  C   UNL     1      11.468   8.815   6.106  0.00  0.00    +0.253 C 
ATOM     17  C   UNL     1      10.281   7.198   1.341  0.00  0.00    +0.015 A 
ATOM     18  C   UNL     1       9.266   8.044   1.521  0.00  0.00    +0.071 A 
ENDROOT
BRANCH  14  19
ATOM      2  F   UNL     1      10.419   3.557   1.881  0.00  0.00    -0.205 F 
ATOM     19  C   UNL     1      11.888   5.413   2.119  0.00  0.00    +0.019 A 
ATOM     21  C   UNL     1      11.663   4.062   1.873  0.00  0.00    +0.131 A 
ATOM     22  C   UNL     1      13.182   5.925   2.110  0.00  0.00    +0.011 A 
ATOM     24  C   UNL     1      12.740   3.215   1.615  0.00  0.00    +0.039 A 
ATOM     25  C   UNL     1      14.260   5.078   1.853  0.00  0.00    +0.001 A 
ATOM     27  C   UNL     1      14.039   3.724   1.605  0.00  0.00    +0.003 A 
ENDBRANCH  14  19
BRANCH  16  20
ATOM      1  S   UNL     1      14.171   9.230   5.952  0.00  0.00    -0.092 S 
ATOM     20  C   UNL     1      12.624   9.081   5.241  0.00  0.00    +0.074 A 
ATOM     23  C   UNL     1      12.655   9.238   3.878  0.00  0.00    +0.021 A 
ATOM     26  C   UNL     1      13.976   9.486   3.402  0.00  0.00    +0.008 A 
ATOM     28  C   UNL     1      14.898   9.508   4.426  0.00  0.00    +0.046 A 
ENDBRANCH  16  20
TORSDOF 2
ENDMDL
MODEL 5
REMARK VINA RESULT:      -6.5     14.417     17.009
REMARK  Name = 9424513
REMARK  2 active torsions:
REMARK  status: ('A' for Active; 'I' for Inactive)
REMARK    1  A    between atoms: C_14  and  C_19
REMARK    2  A    between atoms: C_16  and  C_20
REMARK                            x       y       z     vdW  Elec       q    Type
REMARK                         _______ _______ _______ _____ _____    ______ ____
ROOT
ATOM      3  O   UNL     1       8.642  10.470   3.031  0.00  0.00    -0.268 OA
ATOM      4  O   UNL     1      12.837   8.058   1.501  0.00  0.00    -0.269 OA
ATOM      5  N   UNL     1      10.092   9.365   4.502  0.00  0.00    -0.311 N 
ATOM      6  N   UNL     1      12.858   7.997   3.839  0.00  0.00    -0.296 N 
ATOM      7  C   UNL     1      12.482  10.202   4.912  0.00  0.00    +0.027 C 
ATOM      8  C   UNL     1      11.685   8.158   6.025  0.00  0.00    +0.054 C 
ATOM      9  C   UNL     1      12.333   9.522   6.264  0.00  0.00    +0.018 C 
ATOM     10  C   UNL     1      11.087  10.434   4.328  0.00  0.00    +0.130 C 
ATOM     11  C   UNL     1      13.366   9.361   3.976  0.00  0.00    +0.113 C 
ATOM     12  C   UNL     1      12.595   7.309   5.111  0.00  0.00    +0.117 C 
ATOM     13  C   UNL     1      10.297   8.296   5.396  0.00  0.00    +0.034 A 
ATOM     14  C   UNL     1       9.290   7.418   5.644  0.00  0.00    +0.005 A 
ATOM     15  C   UNL     1       8.880   9.548   3.812  0.00  0.00    +0.252 A 
ATOM     16  C   UNL     1      12.615   7.479   2.564  0.00  0.00    +0.253 C 
ATOM     17  C   UNL     1       8.028   7.572   4.946  0.00  0.00    +0.015 A 
ATOM     18  C   UNL     1       7.815   8.554   4.070  0.00  0.00    +0.071 A 
ENDROOT
BRANCH  14  19
ATOM      2  F   UNL     1       8.917   7.709   8.429  0.00  0.00    -0.205 F 
ATOM     19  C   UNL     1       9.452   6.294   6.593  0.00  0.00    +0.019 A 
ATOM     21  C   UNL     1       9.254   6.499   7.955  0.00  0.00    +0.131 A 
ATOM     22  C   UNL     1       9.803   5.036   6.113  0.00  0.00    +0.011 A 
ATOM     24  C   UNL     1       9.408   5.437   8.846  0.00  0.00    +0.039 A 
ATOM     25  C   UNL     1       9.957   3.973   7.004  0.00  0.00    +0.001 A 
ATOM     27  C   UNL     1       9.760   4.174   8.370  0.00  0.00    +0.003 A 
ENDBRANCH  14  19
BRANCH  16  20
ATOM      1  S   UNL     1      13.036   4.826   2.028  0.00  0.00    -0.092 S 
ATOM     20  C   UNL     1      12.029   6.138   2.460  0.00  0.00    +0.074 A 
ATOM     23  C   UNL     1      10.727   5.753   2.667  0.00  0.00    +0.021 A 
ATOM     26  C   UNL     1      10.550   4.353   2.468  0.00  0.00    +0.008 A 
ATOM     28  C   UNL     1      11.726   3.728   2.116  0.00  0.00    +0.046 A 
ENDBRANCH  16  20
TORSDOF 2
ENDMDL
MODEL 6
REMARK VINA RESULT:      -6.2      2.802      5.105
REMARK  Name = 9424513
REMARK  2 active torsions:
REMARK  status: ('A' for Active; 'I' for Inactive)
REMARK    1  A    between atoms: C_14  and  C_19
REMARK    2  A    between atoms: C_16  and  C_20
REMARK                            x       y       z     vdW  Elec       q    Type
REMARK                         _______ _______ _______ _____ _____    ______ ____
ROOT
ATOM      3  O   UNL     1      10.926   9.871  22.122  0.00  0.00    -0.268 OA
ATOM      4  O   UNL     1      14.255   6.281  20.787  0.00  0.00    -0.269 OA
ATOM      5  N   UNL     1      12.144   9.935  20.122  0.00  0.00    -0.311 N 
ATOM      6  N   UNL     1      14.088   7.735  18.963  0.00  0.00    -0.296 N 
ATOM      7  C   UNL     1      11.757   8.213  18.260  0.00  0.00    +0.027 C 
ATOM      8  C   UNL     1      13.485   9.944  17.997  0.00  0.00    +0.054 C 
ATOM      9  C   UNL     1      12.259   9.314  17.338  0.00  0.00    +0.018 C 
ATOM     10  C   UNL     1      11.314   8.849  19.580  0.00  0.00    +0.130 C 
ATOM     11  C   UNL     1      12.845   7.146  18.471  0.00  0.00    +0.113 C 
ATOM     12  C   UNL     1      14.583   8.873  18.175  0.00  0.00    +0.117 C 
ATOM     13  C   UNL     1      13.139  10.568  19.351  0.00  0.00    +0.034 A 
ATOM     14  C   UNL     1      13.773  11.667  19.834  0.00  0.00    +0.005 A 
ATOM     15  C   UNL     1      11.795  10.377  21.411  0.00  0.00    +0.252 A 
ATOM     16  C   UNL     1      14.672   7.234  20.130  0.00  0.00    +0.253 C 
ATOM     17  C   UNL     1      13.443  12.149  21.162  0.00  0.00    +0.015 A 
ATOM     18  C   UNL     1      12.530  11.553  21.929  0.00  0.00    +0.071 A 
ENDROOT
BRANCH  14  19
ATOM      2  F   UNL     1      13.145  13.665  17.939  0.00  0.00    -0.205 F 
ATOM     19  C   UNL     1      14.808  12.379  19.051  0.00  0.00    +0.019 A 
ATOM     21  C   UNL     1      14.436  13.354  18.130  0.00  0.00    +0.131 A 
ATOM     22  C   UNL     1      16.150  12.064  19.240  0.00  0.00    +0.011 A 
ATOM     24  C   UNL     1      15.414  14.021  17.394  0.00  0.00    +0.039 A 
ATOM     25  C   UNL     1      17.129  12.730  18.503  0.00  0.00    +0.001 A 
ATOM     27  C   UNL     1      16.761  13.709  17.580  0.00  0.00    +0.003 A 
ENDBRANCH  14  19
BRANCH  16  20
ATOM      1  S   UNL     1      17.396   7.156  20.406  0.00  0.00    -0.092 S 
ATOM     20  C   UNL     1      15.875   7.899  20.644  0.00  0.00    +0.074 A 
ATOM     23  C   UNL     1      15.973   9.088  21.323  0.00  0.00    +0.021 A 
ATOM     26  C   UNL     1      17.324   9.399  21.657  0.00  0.00    +0.008 A 
ATOM     28  C   UNL     1      18.201   8.432  21.217  0.00  0.00    +0.046 A 
ENDBRANCH  16  20
TORSDOF 2
ENDMDL
MODEL 7
REMARK VINA RESULT:      -6.2     27.578     29.432
REMARK  Name = 9424513
REMARK  2 active torsions:
REMARK  status: ('A' for Active; 'I' for Inactive)
REMARK    1  A    between atoms: C_14  and  C_19
REMARK    2  A    between atoms: C_16  and  C_20
REMARK                            x       y       z     vdW  Elec       q    Type
REMARK                         _______ _______ _______ _____ _____    ______ ____
ROOT
ATOM      3  O   UNL     1      -6.336 -15.000  16.435  0.00  0.00    -0.268 OA
ATOM      4  O   UNL     1      -8.113 -10.841  18.738  0.00  0.00    -0.269 OA
ATOM      5  N   UNL     1      -5.457 -12.860  16.069  0.00  0.00    -0.311 N 
ATOM      6  N   UNL     1      -6.225 -10.170  17.532  0.00  0.00    -0.296 N 
ATOM      7  C   UNL     1      -4.222 -11.582  17.920  0.00  0.00    +0.027 C 
ATOM      8  C   UNL     1      -4.565 -10.537  15.720  0.00  0.00    +0.054 C 
ATOM      9  C   UNL     1      -3.510 -10.892  16.766  0.00  0.00    +0.018 C 
ATOM     10  C   UNL     1      -4.836 -12.884  17.402  0.00  0.00    +0.130 C 
ATOM     11  C   UNL     1      -5.280 -10.652  18.538  0.00  0.00    +0.113 C 
ATOM     12  C   UNL     1      -5.604  -9.577  16.339  0.00  0.00    +0.117 C 
ATOM     13  C   UNL     1      -5.264 -11.785  15.178  0.00  0.00    +0.034 A 
ATOM     14  C   UNL     1      -5.724 -11.872  13.903  0.00  0.00    +0.005 A 
ATOM     15  C   UNL     1      -6.150 -14.027  15.703  0.00  0.00    +0.252 A 
ATOM     16  C   UNL     1      -7.596 -10.345  17.738  0.00  0.00    +0.253 C 
ATOM     17  C   UNL     1      -6.448 -13.060  13.490  0.00  0.00    +0.015 A 
ATOM     18  C   UNL     1      -6.675 -14.078  14.320  0.00  0.00    +0.071 A 
ENDROOT
BRANCH  14  19
ATOM      2  F   UNL     1      -3.369 -11.616  12.364  0.00  0.00    -0.205 F 
ATOM     19  C   UNL     1      -5.523 -10.779  12.925  0.00  0.00    +0.019 A 
ATOM     21  C   UNL     1      -4.340 -10.706  12.196  0.00  0.00    +0.131 A 
ATOM     22  C   UNL     1      -6.524  -9.830  12.743  0.00  0.00    +0.011 A 
ATOM     24  C   UNL     1      -4.156  -9.674  11.276  0.00  0.00    +0.039 A 
ATOM     25  C   UNL     1      -6.340  -8.796  11.824  0.00  0.00    +0.001 A 
ATOM     27  C   UNL     1      -5.156  -8.719  11.091  0.00  0.00    +0.003 A 
ENDBRANCH  14  19
BRANCH  16  20
ATOM      1  S   UNL     1      -9.315  -8.421  16.819  0.00  0.00    -0.092 S 
ATOM     20  C   UNL     1      -8.517  -9.925  16.674  0.00  0.00    +0.074 A 
ATOM     23  C   UNL     1      -8.853 -10.588  15.520  0.00  0.00    +0.021 A 
ATOM     26  C   UNL     1      -9.786  -9.849  14.736  0.00  0.00    +0.008 A 
ATOM     28  C   UNL     1     -10.122  -8.651  15.326  0.00  0.00    +0.046 A 
ENDBRANCH  16  20
TORSDOF 2
ENDMDL
MODEL 8
REMARK VINA RESULT:      -6.2     13.039     15.804
REMARK  Name = 9424513
REMARK  2 active torsions:
REMARK  status: ('A' for Active; 'I' for Inactive)
REMARK    1  A    between atoms: C_14  and  C_19
REMARK    2  A    between atoms: C_16  and  C_20
REMARK                            x       y       z     vdW  Elec       q    Type
REMARK                         _______ _______ _______ _____ _____    ______ ____
ROOT
ATOM      3  O   UNL     1      22.070  -0.581  28.677  0.00  0.00    -0.268 OA
ATOM      4  O   UNL     1      21.481  -5.621  28.726  0.00  0.00    -0.269 OA
ATOM      5  N   UNL     1      20.114  -1.648  27.955  0.00  0.00    -0.311 N 
ATOM      6  N   UNL     1      19.416  -4.724  28.095  0.00  0.00    -0.296 N 
ATOM      7  C   UNL     1      18.598  -2.919  29.588  0.00  0.00    +0.027 C 
ATOM      8  C   UNL     1      18.047  -2.856  27.191  0.00  0.00    +0.054 C 
ATOM      9  C   UNL     1      17.495  -2.591  28.592  0.00  0.00    +0.018 C 
ATOM     10  C   UNL     1      19.769  -1.963  29.349  0.00  0.00    +0.130 C 
ATOM     11  C   UNL     1      19.021  -4.392  29.462  0.00  0.00    +0.113 C 
ATOM     12  C   UNL     1      18.439  -4.344  27.064  0.00  0.00    +0.117 C 
ATOM     13  C   UNL     1      19.255  -1.969  26.884  0.00  0.00    +0.034 A 
ATOM     14  C   UNL     1      19.537  -1.522  25.633  0.00  0.00    +0.005 A 
ATOM     15  C   UNL     1      21.292  -0.901  27.777  0.00  0.00    +0.252 A 
ATOM     16  C   UNL     1      20.666  -5.304  27.861  0.00  0.00    +0.253 C 
ATOM     17  C   UNL     1      20.746  -0.753  25.411  0.00  0.00    +0.015 A 
ATOM     18  C   UNL     1      21.595  -0.461  26.397  0.00  0.00    +0.071 A 
ENDROOT
BRANCH  14  19
ATOM      2  F   UNL     1      17.281   0.059  25.004  0.00  0.00    -0.205 F 
ATOM     19  C   UNL     1      18.652  -1.814  24.483  0.00  0.00    +0.019 A 
ATOM     21  C   UNL     1      17.555  -0.998  24.224  0.00  0.00    +0.131 A 
ATOM     22  C   UNL     1      18.925  -2.908  23.668  0.00  0.00    +0.011 A 
ATOM     24  C   UNL     1      16.724  -1.278  23.139  0.00  0.00    +0.039 A 
ATOM     25  C   UNL     1      18.094  -3.189  22.583  0.00  0.00    +0.001 A 
ATOM     27  C   UNL     1      16.993  -2.374  22.320  0.00  0.00    +0.003 A 
ENDBRANCH  14  19
BRANCH  16  20
ATOM      1  S   UNL     1      20.812  -7.101  25.799  0.00  0.00    -0.092 S 
ATOM     20  C   UNL     1      21.067  -5.551  26.471  0.00  0.00    +0.074 A 
ATOM     23  C   UNL     1      21.648  -4.682  25.580  0.00  0.00    +0.021 A 
ATOM     26  C   UNL     1      21.890  -5.299  24.318  0.00  0.00    +0.008 A 
ATOM     28  C   UNL     1      21.482  -6.615  24.300  0.00  0.00    +0.046 A 
ENDBRANCH  16  20
TORSDOF 2
ENDMDL
MODEL 9
REMARK VINA RESULT:      -6.1     27.006     29.460
REMARK  Name = 9424513
REMARK  2 active torsions:
REMARK  status: ('A' for Active; 'I' for Inactive)
REMARK    1  A    between atoms: C_14  and  C_19
REMARK    2  A    between atoms: C_16  and  C_20
REMARK                            x       y       z     vdW  Elec       q    Type
REMARK                         _______ _______ _______ _____ _____    ______ ____
ROOT
ATOM      3  O   UNL     1      -0.869 -12.675  13.701  0.00  0.00    -0.268 OA
ATOM      4  O   UNL     1      -5.140 -13.281  11.027  0.00  0.00    -0.269 OA
ATOM      5  N   UNL     1      -2.948 -13.108  14.690  0.00  0.00    -0.311 N 
ATOM      6  N   UNL     1      -5.686 -13.745  13.253  0.00  0.00    -0.296 N 
ATOM      7  C   UNL     1      -4.150 -15.350  14.358  0.00  0.00    +0.027 C 
ATOM      8  C   UNL     1      -5.208 -13.570  15.687  0.00  0.00    +0.054 C 
ATOM      9  C   UNL     1      -4.790 -15.040  15.703  0.00  0.00    +0.018 C 
ATOM     10  C   UNL     1      -2.888 -14.498  14.213  0.00  0.00    +0.130 C 
ATOM     11  C   UNL     1      -5.148 -15.103  13.214  0.00  0.00    +0.113 C 
ATOM     12  C   UNL     1      -6.234 -13.338  14.556  0.00  0.00    +0.117 C 
ATOM     13  C   UNL     1      -4.005 -12.644  15.498  0.00  0.00    +0.034 A 
ATOM     14  C   UNL     1      -3.943 -11.403  16.046  0.00  0.00    +0.005 A 
ATOM     15  C   UNL     1      -1.826 -12.316  14.389  0.00  0.00    +0.252 A 
ATOM     16  C   UNL     1      -5.599 -12.937  12.116  0.00  0.00    +0.253 C 
ATOM     17  C   UNL     1      -2.803 -10.555  15.754  0.00  0.00    +0.015 A 
ATOM     18  C   UNL     1      -1.803 -10.953  14.966  0.00  0.00    +0.071 A 
ENDROOT
BRANCH  14  19
ATOM      2  F   UNL     1      -3.989 -11.847  18.835  0.00  0.00    -0.205 F 
ATOM     19  C   UNL     1      -5.018 -10.882  16.921  0.00  0.00    +0.019 A 
ATOM     21  C   UNL     1      -4.986 -11.134  18.289  0.00  0.00    +0.131 A 
ATOM     22  C   UNL     1      -6.056 -10.142  16.364  0.00  0.00    +0.011 A 
ATOM     24  C   UNL     1      -6.001 -10.642  19.108  0.00  0.00    +0.039 A 
ATOM     25  C   UNL     1      -7.073  -9.649  17.184  0.00  0.00    +0.001 A 
ATOM     27  C   UNL     1      -7.045  -9.900  18.555  0.00  0.00    +0.003 A 
ENDBRANCH  14  19
BRANCH  16  20
ATOM      1  S   UNL     1      -7.671 -11.190  11.721  0.00  0.00    -0.092 S 
ATOM     20  C   UNL     1      -6.074 -11.552  12.211  0.00  0.00    +0.074 A 
ATOM     23  C   UNL     1      -5.397 -10.443  12.655  0.00  0.00    +0.021 A 
ATOM     26  C   UNL     1      -6.204  -9.269  12.594  0.00  0.00    +0.008 A 
ATOM     28  C   UNL     1      -7.464  -9.533  12.104  0.00  0.00    +0.046 A 
ENDBRANCH  16  20
TORSDOF 2
ENDMDL
MODEL 10
REMARK VINA RESULT:      -5.9     14.012     16.815
REMARK  Name = 9424513
REMARK  2 active torsions:
REMARK  status: ('A' for Active; 'I' for Inactive)
REMARK    1  A    between atoms: C_14  and  C_19
REMARK    2  A    between atoms: C_16  and  C_20
REMARK                            x       y       z     vdW  Elec       q    Type
REMARK                         _______ _______ _______ _____ _____    ______ ____
ROOT
ATOM      3  O   UNL     1      22.401  -7.228  23.344  0.00  0.00    -0.268 OA
ATOM      4  O   UNL     1      20.190  -7.273  27.912  0.00  0.00    -0.269 OA
ATOM      5  N   UNL     1      21.309  -5.367  24.256  0.00  0.00    -0.311 N 
ATOM      6  N   UNL     1      20.063  -5.069  27.141  0.00  0.00    -0.296 N 
ATOM      7  C   UNL     1      22.221  -4.156  26.326  0.00  0.00    +0.027 C 
ATOM      8  C   UNL     1      20.118  -3.411  25.290  0.00  0.00    +0.054 C 
ATOM      9  C   UNL     1      21.496  -2.945  25.756  0.00  0.00    +0.018 C 
ATOM     10  C   UNL     1      22.418  -5.177  25.202  0.00  0.00    +0.130 C 
ATOM     11  C   UNL     1      21.439  -4.747  27.511  0.00  0.00    +0.113 C 
ATOM     12  C   UNL     1      19.329  -3.973  26.493  0.00  0.00    +0.117 C 
ATOM     13  C   UNL     1      20.222  -4.472  24.192  0.00  0.00    +0.034 A 
ATOM     14  C   UNL     1      19.301  -4.595  23.202  0.00  0.00    +0.005 A 
ATOM     15  C   UNL     1      21.467  -6.426  23.344  0.00  0.00    +0.252 A 
ATOM     16  C   UNL     1      19.573  -6.358  27.368  0.00  0.00    +0.253 C 
ATOM     17  C   UNL     1      19.428  -5.678  22.245  0.00  0.00    +0.015 A 
ATOM     18  C   UNL     1      20.426  -6.560  22.299  0.00  0.00    +0.071 A 
ENDROOT
BRANCH  14  19
ATOM      2  F   UNL     1      16.634  -5.384  23.695  0.00  0.00    -0.205 F 
ATOM     19  C   UNL     1      18.157  -3.663  23.081  0.00  0.00    +0.019 A 
ATOM     21  C   UNL     1      16.864  -4.112  23.338  0.00  0.00    +0.131 A 
ATOM     22  C   UNL     1      18.384  -2.342  22.710  0.00  0.00    +0.011 A 
ATOM     24  C   UNL     1      15.790  -3.231  23.222  0.00  0.00    +0.039 A 
ATOM     25  C   UNL     1      17.309  -1.460  22.594  0.00  0.00    +0.001 A 
ATOM     27  C   UNL     1      16.012  -1.905  22.850  0.00  0.00    +0.003 A 
ENDBRANCH  14  19
BRANCH  16  20
ATOM      1  S   UNL     1      18.011  -7.770  25.616  0.00  0.00    -0.092 S 
ATOM     20  C   UNL     1      18.214  -6.675  26.912  0.00  0.00    +0.074 A 
ATOM     23  C   UNL     1      17.018  -6.201  27.391  0.00  0.00    +0.021 A 
ATOM     26  C   UNL     1      15.909  -6.747  26.681  0.00  0.00    +0.008 A 
ATOM     28  C   UNL     1      16.307  -7.615  25.689  0.00  0.00    +0.046 A 
ENDBRANCH  16  20
TORSDOF 2
ENDMDL
