MODEL 1
REMARK VINA RESULT:      -5.4      0.000      0.000
REMARK  Name = 75536940
REMARK  6 active torsions:
REMARK  status: ('A' for Active; 'I' for Inactive)
REMARK    1  A    between atoms: O_2  and  C_7
REMARK    2  A    between atoms: O_2  and  C_15
REMARK    3  A    between atoms: N_4  and  C_9
REMARK    4  A    between atoms: C_9  and  C_12
REMARK    5  A    between atoms: C_13  and  C_16
REMARK    6  A    between atoms: C_14  and  C_17
REMARK                            x       y       z     vdW  Elec       q    Type
REMARK                         _______ _______ _______ _____ _____    ______ ____
ROOT
ATOM      1  O   UNL     1      13.899   6.616  21.019  0.00  0.00    -0.376 OA
ATOM      4  N   UNL     1      13.052   9.163  19.430  0.00  0.00    -0.293 NA
ATOM      6  C   UNL     1      12.320   9.418  20.675  0.00  0.00    +0.118 C 
ATOM      7  C   UNL     1      12.489   8.412  21.825  0.00  0.00    +0.157 C 
ATOM      8  C   UNL     1      14.387   8.595  19.619  0.00  0.00    +0.113 C 
ATOM     10  C   UNL     1      12.566   6.958  21.381  0.00  0.00    +0.192 C 
ATOM     11  C   UNL     1      14.295   7.072  19.732  0.00  0.00    +0.175 C 
ENDROOT
BRANCH   7   2
ATOM      2  O   UNL     1      11.371   8.547  22.702  0.00  0.00    -0.376 OA
ATOM     15  C   UNL     1      10.752   9.815  22.555  0.00  0.00    +0.194 C 
ENDBRANCH   7   2
BRANCH   4   9
ATOM      9  C   UNL     1      13.097  10.378  18.616  0.00  0.00    +0.125 C 
BRANCH   9  12
ATOM      3  O   UNL     1      13.707   9.975  14.994  0.00  0.00    -0.359 OA
ATOM      5  N   UNL     1      12.541   9.228  15.107  0.00  0.00    -0.083 NA
ATOM     12  C   UNL     1      13.122  10.066  17.143  0.00  0.00    +0.031 A 
ATOM     13  C   UNL     1      14.043  10.470  16.213  0.00  0.00    +0.139 A 
ATOM     14  C   UNL     1      12.211   9.297  16.399  0.00  0.00    +0.085 A 
ATOM     16  C   UNL     1      15.261  11.288  16.272  0.00  0.00    +0.089 C 
ATOM     17  C   UNL     1      11.003   8.605  16.879  0.00  0.00    +0.069 C 
ENDBRANCH   9  12
ENDBRANCH   4   9
TORSDOF 3
ENDMDL
MODEL 2
REMARK VINA RESULT:      -5.1      2.476      3.599
REMARK  Name = 75536940
REMARK  6 active torsions:
REMARK  status: ('A' for Active; 'I' for Inactive)
REMARK    1  A    between atoms: O_2  and  C_7
REMARK    2  A    between atoms: O_2  and  C_15
REMARK    3  A    between atoms: N_4  and  C_9
REMARK    4  A    between atoms: C_9  and  C_12
REMARK    5  A    between atoms: C_13  and  C_16
REMARK    6  A    between atoms: C_14  and  C_17
REMARK                            x       y       z     vdW  Elec       q    Type
REMARK                         _______ _______ _______ _____ _____    ______ ____
ROOT
ATOM      1  O   UNL     1      13.456  11.970  22.181  0.00  0.00    -0.376 OA
ATOM      4  N   UNL     1      11.933   9.493  21.054  0.00  0.00    -0.293 NA
ATOM      6  C   UNL     1      11.097   9.758  22.230  0.00  0.00    +0.118 C 
ATOM      7  C   UNL     1      11.448  10.977  23.098  0.00  0.00    +0.157 C 
ATOM      8  C   UNL     1      12.388  10.694  20.353  0.00  0.00    +0.113 C 
ATOM     10  C   UNL     1      12.941  11.216  23.272  0.00  0.00    +0.192 C 
ATOM     11  C   UNL     1      13.674  11.217  20.995  0.00  0.00    +0.175 C 
ENDROOT
BRANCH   7   2
ATOM      2  O   UNL     1      10.879  10.779  24.393  0.00  0.00    -0.376 OA
ATOM     15  C   UNL     1      10.996  11.945  25.191  0.00  0.00    +0.194 C 
ENDBRANCH   7   2
BRANCH   4   9
ATOM      9  C   UNL     1      11.247   8.571  20.149  0.00  0.00    +0.125 C 
BRANCH   9  12
ATOM      3  O   UNL     1      13.883   7.044  18.057  0.00  0.00    -0.359 OA
ATOM      5  N   UNL     1      13.046   7.513  17.052  0.00  0.00    -0.083 NA
ATOM     12  C   UNL     1      12.172   8.032  19.090  0.00  0.00    +0.031 A 
ATOM     13  C   UNL     1      13.352   7.360  19.266  0.00  0.00    +0.139 A 
ATOM     14  C   UNL     1      12.031   8.098  17.693  0.00  0.00    +0.085 A 
ATOM     16  C   UNL     1      14.117   6.934  20.445  0.00  0.00    +0.089 C 
ATOM     17  C   UNL     1      10.940   8.714  16.919  0.00  0.00    +0.069 C 
ENDBRANCH   9  12
ENDBRANCH   4   9
TORSDOF 3
ENDMDL
MODEL 3
REMARK VINA RESULT:      -5.0     12.491     15.799
REMARK  Name = 75536940
REMARK  6 active torsions:
REMARK  status: ('A' for Active; 'I' for Inactive)
REMARK    1  A    between atoms: O_2  and  C_7
REMARK    2  A    between atoms: O_2  and  C_15
REMARK    3  A    between atoms: N_4  and  C_9
REMARK    4  A    between atoms: C_9  and  C_12
REMARK    5  A    between atoms: C_13  and  C_16
REMARK    6  A    between atoms: C_14  and  C_17
REMARK                            x       y       z     vdW  Elec       q    Type
REMARK                         _______ _______ _______ _____ _____    ______ ____
ROOT
ATOM      1  O   UNL     1      12.824   6.827   2.779  0.00  0.00    -0.376 OA
ATOM      4  N   UNL     1      10.460   5.481   4.304  0.00  0.00    -0.293 NA
ATOM      6  C   UNL     1      10.805   4.379   3.401  0.00  0.00    +0.118 C 
ATOM      7  C   UNL     1      12.003   4.572   2.458  0.00  0.00    +0.157 C 
ATOM      8  C   UNL     1      11.613   6.205   4.842  0.00  0.00    +0.113 C 
ATOM     10  C   UNL     1      12.125   5.975   1.878  0.00  0.00    +0.192 C 
ATOM     11  C   UNL     1      12.041   7.302   3.867  0.00  0.00    +0.175 C 
ENDROOT
BRANCH   7   2
ATOM      2  O   UNL     1      11.866   3.657   1.371  0.00  0.00    -0.376 OA
ATOM     15  C   UNL     1      12.962   3.751   0.476  0.00  0.00    +0.194 C 
ENDBRANCH   7   2
BRANCH   4   9
ATOM      9  C   UNL     1       9.584   4.999   5.373  0.00  0.00    +0.125 C 
BRANCH   9  12
ATOM      3  O   UNL     1       8.118   8.018   6.920  0.00  0.00    -0.359 OA
ATOM      5  N   UNL     1       8.620   7.405   8.062  0.00  0.00    -0.083 NA
ATOM     12  C   UNL     1       9.077   6.126   6.234  0.00  0.00    +0.031 A 
ATOM     13  C   UNL     1       8.397   7.247   5.838  0.00  0.00    +0.139 A 
ATOM     14  C   UNL     1       9.187   6.277   7.626  0.00  0.00    +0.085 A 
ATOM     16  C   UNL     1       7.932   7.753   4.540  0.00  0.00    +0.089 C 
ATOM     17  C   UNL     1       9.830   5.367   8.590  0.00  0.00    +0.069 C 
ENDBRANCH   9  12
ENDBRANCH   4   9
TORSDOF 3
ENDMDL
MODEL 4
REMARK VINA RESULT:      -4.9      2.625      4.428
REMARK  Name = 75536940
REMARK  6 active torsions:
REMARK  status: ('A' for Active; 'I' for Inactive)
REMARK    1  A    between atoms: O_2  and  C_7
REMARK    2  A    between atoms: O_2  and  C_15
REMARK    3  A    between atoms: N_4  and  C_9
REMARK    4  A    between atoms: C_9  and  C_12
REMARK    5  A    between atoms: C_13  and  C_16
REMARK    6  A    between atoms: C_14  and  C_17
REMARK                            x       y       z     vdW  Elec       q    Type
REMARK                         _______ _______ _______ _____ _____    ______ ____
ROOT
ATOM      1  O   UNL     1      13.758   7.676  17.887  0.00  0.00    -0.376 OA
ATOM      4  N   UNL     1      13.281   9.549  20.335  0.00  0.00    -0.293 NA
ATOM      6  C   UNL     1      12.643   8.333  20.851  0.00  0.00    +0.118 C 
ATOM      7  C   UNL     1      12.686   7.073  19.972  0.00  0.00    +0.157 C 
ATOM      8  C   UNL     1      14.512   9.311  19.580  0.00  0.00    +0.113 C 
ATOM     10  C   UNL     1      12.511   7.339  18.483  0.00  0.00    +0.192 C 
ATOM     11  C   UNL     1      14.178   9.014  18.118  0.00  0.00    +0.175 C 
ENDROOT
BRANCH   7   2
ATOM      2  O   UNL     1      11.634   6.203  20.391  0.00  0.00    -0.376 OA
ATOM     15  C   UNL     1      11.030   6.665  21.588  0.00  0.00    +0.194 C 
ENDBRANCH   7   2
BRANCH   4   9
ATOM      9  C   UNL     1      13.495  10.504  21.423  0.00  0.00    +0.125 C 
BRANCH   9  12
ATOM      3  O   UNL     1      11.353  13.457  20.835  0.00  0.00    -0.359 OA
ATOM      5  N   UNL     1      10.703  12.929  21.944  0.00  0.00    -0.083 NA
ATOM     12  C   UNL     1      12.485  11.620  21.396  0.00  0.00    +0.031 A 
ATOM     13  C   UNL     1      12.412  12.669  20.518  0.00  0.00    +0.139 A 
ATOM     14  C   UNL     1      11.397  11.833  22.261  0.00  0.00    +0.085 A 
ATOM     16  C   UNL     1      13.213  13.087  19.360  0.00  0.00    +0.089 C 
ATOM     17  C   UNL     1      10.978  11.013  23.410  0.00  0.00    +0.069 C 
ENDBRANCH   9  12
ENDBRANCH   4   9
TORSDOF 3
ENDMDL
MODEL 5
REMARK VINA RESULT:      -4.9     26.216     27.767
REMARK  Name = 75536940
REMARK  6 active torsions:
REMARK  status: ('A' for Active; 'I' for Inactive)
REMARK    1  A    between atoms: O_2  and  C_7
REMARK    2  A    between atoms: O_2  and  C_15
REMARK    3  A    between atoms: N_4  and  C_9
REMARK    4  A    between atoms: C_9  and  C_12
REMARK    5  A    between atoms: C_13  and  C_16
REMARK    6  A    between atoms: C_14  and  C_17
REMARK                            x       y       z     vdW  Elec       q    Type
REMARK                         _______ _______ _______ _____ _____    ______ ____
ROOT
ATOM      1  O   UNL     1      -4.181 -14.211  14.504  0.00  0.00    -0.376 OA
ATOM      4  N   UNL     1      -4.176 -11.539  16.112  0.00  0.00    -0.293 NA
ATOM      6  C   UNL     1      -3.257 -11.158  15.034  0.00  0.00    +0.118 C 
ATOM      7  C   UNL     1      -2.990 -12.185  13.923  0.00  0.00    +0.157 C 
ATOM      8  C   UNL     1      -5.312 -12.353  15.678  0.00  0.00    +0.113 C 
ATOM     10  C   UNL     1      -2.888 -13.624  14.409  0.00  0.00    +0.192 C 
ATOM     11  C   UNL     1      -4.917 -13.830  15.658  0.00  0.00    +0.175 C 
ENDROOT
BRANCH   7   2
ATOM      2  O   UNL     1      -1.755 -11.845  13.291  0.00  0.00    -0.376 OA
ATOM     15  C   UNL     1      -1.969 -11.040  12.142  0.00  0.00    +0.194 C 
ENDBRANCH   7   2
BRANCH   4   9
ATOM      9  C   UNL     1      -4.616 -10.349  16.841  0.00  0.00    +0.125 C 
BRANCH   9  12
ATOM      3  O   UNL     1      -5.866 -11.542  20.107  0.00  0.00    -0.359 OA
ATOM      5  N   UNL     1      -6.990 -10.846  19.680  0.00  0.00    -0.083 NA
ATOM     12  C   UNL     1      -5.351 -10.706  18.106  0.00  0.00    +0.031 A 
ATOM     13  C   UNL     1      -4.897 -11.452  19.161  0.00  0.00    +0.139 A 
ATOM     14  C   UNL     1      -6.658 -10.355  18.483  0.00  0.00    +0.085 A 
ATOM     16  C   UNL     1      -3.631 -12.138  19.456  0.00  0.00    +0.089 C 
ATOM     17  C   UNL     1      -7.635  -9.550  17.731  0.00  0.00    +0.069 C 
ENDBRANCH   9  12
ENDBRANCH   4   9
TORSDOF 3
ENDMDL
MODEL 6
REMARK VINA RESULT:      -4.7     26.032     27.785
REMARK  Name = 75536940
REMARK  6 active torsions:
REMARK  status: ('A' for Active; 'I' for Inactive)
REMARK    1  A    between atoms: O_2  and  C_7
REMARK    2  A    between atoms: O_2  and  C_15
REMARK    3  A    between atoms: N_4  and  C_9
REMARK    4  A    between atoms: C_9  and  C_12
REMARK    5  A    between atoms: C_13  and  C_16
REMARK    6  A    between atoms: C_14  and  C_17
REMARK                            x       y       z     vdW  Elec       q    Type
REMARK                         _______ _______ _______ _____ _____    ______ ____
ROOT
ATOM      1  O   UNL     1      -4.598 -13.090  13.722  0.00  0.00    -0.376 OA
ATOM      4  N   UNL     1      -4.925 -11.071  16.075  0.00  0.00    -0.293 NA
ATOM      6  C   UNL     1      -3.508 -10.843  15.775  0.00  0.00    +0.118 C 
ATOM      7  C   UNL     1      -2.892 -11.613  14.596  0.00  0.00    +0.157 C 
ATOM      8  C   UNL     1      -5.770 -11.257  14.895  0.00  0.00    +0.113 C 
ATOM     10  C   UNL     1      -3.382 -13.048  14.459  0.00  0.00    +0.192 C 
ATOM     11  C   UNL     1      -5.752 -12.725  14.468  0.00  0.00    +0.175 C 
ENDROOT
BRANCH   7   2
ATOM      2  O   UNL     1      -1.476 -11.646  14.778  0.00  0.00    -0.376 OA
ATOM     15  C   UNL     1      -1.036 -10.568  15.588  0.00  0.00    +0.194 C 
ENDBRANCH   7   2
BRANCH   4   9
ATOM      9  C   UNL     1      -5.434 -10.002  16.935  0.00  0.00    +0.125 C 
BRANCH   9  12
ATOM      3  O   UNL     1      -7.760 -11.042  19.612  0.00  0.00    -0.359 OA
ATOM      5  N   UNL     1      -6.597 -11.634  20.087  0.00  0.00    -0.083 NA
ATOM     12  C   UNL     1      -6.168 -10.546  18.132  0.00  0.00    +0.031 A 
ATOM     13  C   UNL     1      -7.492 -10.396  18.448  0.00  0.00    +0.139 A 
ATOM     14  C   UNL     1      -5.660 -11.325  19.186  0.00  0.00    +0.085 A 
ATOM     16  C   UNL     1      -8.622  -9.711  17.807  0.00  0.00    +0.089 C 
ATOM     17  C   UNL     1      -4.280 -11.800  19.380  0.00  0.00    +0.069 C 
ENDBRANCH   9  12
ENDBRANCH   4   9
TORSDOF 3
ENDMDL
MODEL 7
REMARK VINA RESULT:      -4.6     23.608     25.030
REMARK  Name = 75536940
REMARK  6 active torsions:
REMARK  status: ('A' for Active; 'I' for Inactive)
REMARK    1  A    between atoms: O_2  and  C_7
REMARK    2  A    between atoms: O_2  and  C_15
REMARK    3  A    between atoms: N_4  and  C_9
REMARK    4  A    between atoms: C_9  and  C_12
REMARK    5  A    between atoms: C_13  and  C_16
REMARK    6  A    between atoms: C_14  and  C_17
REMARK                            x       y       z     vdW  Elec       q    Type
REMARK                         _______ _______ _______ _____ _____    ______ ____
ROOT
ATOM      1  O   UNL     1     -10.985  11.264  15.126  0.00  0.00    -0.376 OA
ATOM      4  N   UNL     1     -10.774   9.761  17.850  0.00  0.00    -0.293 NA
ATOM      6  C   UNL     1     -10.573   8.623  16.947  0.00  0.00    +0.118 C 
ATOM      7  C   UNL     1     -10.539   8.905  15.437  0.00  0.00    +0.157 C 
ATOM      8  C   UNL     1     -10.114  10.995  17.424  0.00  0.00    +0.113 C 
ATOM     10  C   UNL     1     -11.533   9.960  14.972  0.00  0.00    +0.192 C 
ATOM     11  C   UNL     1     -11.017  11.762  16.457  0.00  0.00    +0.175 C 
ENDROOT
BRANCH   7   2
ATOM      2  O   UNL     1     -10.834   7.688  14.751  0.00  0.00    -0.376 OA
ATOM     15  C   UNL     1     -10.273   7.680  13.449  0.00  0.00    +0.194 C 
ENDBRANCH   7   2
BRANCH   4   9
ATOM      9  C   UNL     1     -10.392   9.393  19.214  0.00  0.00    +0.125 C 
BRANCH   9  12
ATOM      3  O   UNL     1     -13.338   9.923  21.381  0.00  0.00    -0.359 OA
ATOM      5  N   UNL     1     -13.201   8.548  21.525  0.00  0.00    -0.083 NA
ATOM     12  C   UNL     1     -11.581   9.344  20.136  0.00  0.00    +0.031 A 
ATOM     13  C   UNL     1     -12.367  10.386  20.552  0.00  0.00    +0.139 A 
ATOM     14  C   UNL     1     -12.146   8.226  20.773  0.00  0.00    +0.085 A 
ATOM     16  C   UNL     1     -12.368  11.831  20.289  0.00  0.00    +0.089 C 
ATOM     17  C   UNL     1     -11.711   6.821  20.694  0.00  0.00    +0.069 C 
ENDBRANCH   9  12
ENDBRANCH   4   9
TORSDOF 3
ENDMDL
MODEL 8
REMARK VINA RESULT:      -4.5     11.913     14.585
REMARK  Name = 75536940
REMARK  6 active torsions:
REMARK  status: ('A' for Active; 'I' for Inactive)
REMARK    1  A    between atoms: O_2  and  C_7
REMARK    2  A    between atoms: O_2  and  C_15
REMARK    3  A    between atoms: N_4  and  C_9
REMARK    4  A    between atoms: C_9  and  C_12
REMARK    5  A    between atoms: C_13  and  C_16
REMARK    6  A    between atoms: C_14  and  C_17
REMARK                            x       y       z     vdW  Elec       q    Type
REMARK                         _______ _______ _______ _____ _____    ______ ____
ROOT
ATOM      1  O   UNL     1      12.830   6.846   2.453  0.00  0.00    -0.376 OA
ATOM      4  N   UNL     1      11.070   5.637   4.726  0.00  0.00    -0.293 NA
ATOM      6  C   UNL     1      11.655   6.761   5.465  0.00  0.00    +0.118 C 
ATOM      7  C   UNL     1      12.587   7.714   4.699  0.00  0.00    +0.157 C 
ATOM      8  C   UNL     1      10.706   5.947   3.343  0.00  0.00    +0.113 C 
ATOM     10  C   UNL     1      13.501   7.027   3.695  0.00  0.00    +0.192 C 
ATOM     11  C   UNL     1      11.917   5.756   2.430  0.00  0.00    +0.175 C 
ENDROOT
BRANCH   7   2
ATOM      2  O   UNL     1      13.408   8.392   5.651  0.00  0.00    -0.376 OA
ATOM     15  C   UNL     1      13.426   7.709   6.894  0.00  0.00    +0.194 C 
ENDBRANCH   7   2
BRANCH   4   9
ATOM      9  C   UNL     1       9.936   5.086   5.468  0.00  0.00    +0.125 C 
BRANCH   9  12
ATOM      3  O   UNL     1       8.056   7.874   7.001  0.00  0.00    -0.359 OA
ATOM      5  N   UNL     1       8.597   7.312   8.151  0.00  0.00    -0.083 NA
ATOM     12  C   UNL     1       9.266   6.127   6.324  0.00  0.00    +0.031 A 
ATOM     13  C   UNL     1       8.462   7.160   5.920  0.00  0.00    +0.139 A 
ATOM     14  C   UNL     1       9.315   6.270   7.722  0.00  0.00    +0.085 A 
ATOM     16  C   UNL     1       7.976   7.622   4.613  0.00  0.00    +0.089 C 
ATOM     17  C   UNL     1      10.037   5.434   8.695  0.00  0.00    +0.069 C 
ENDBRANCH   9  12
ENDBRANCH   4   9
TORSDOF 3
ENDMDL
MODEL 9
REMARK VINA RESULT:      -4.4     25.377     26.838
REMARK  Name = 75536940
REMARK  6 active torsions:
REMARK  status: ('A' for Active; 'I' for Inactive)
REMARK    1  A    between atoms: O_2  and  C_7
REMARK    2  A    between atoms: O_2  and  C_15
REMARK    3  A    between atoms: N_4  and  C_9
REMARK    4  A    between atoms: C_9  and  C_12
REMARK    5  A    between atoms: C_13  and  C_16
REMARK    6  A    between atoms: C_14  and  C_17
REMARK                            x       y       z     vdW  Elec       q    Type
REMARK                         _______ _______ _______ _____ _____    ______ ____
ROOT
ATOM      1  O   UNL     1      -7.176  -9.948  17.514  0.00  0.00    -0.376 OA
ATOM      4  N   UNL     1      -4.984 -11.422  15.855  0.00  0.00    -0.293 NA
ATOM      6  C   UNL     1      -4.792 -12.102  17.140  0.00  0.00    +0.118 C 
ATOM      7  C   UNL     1      -5.732 -11.727  18.297  0.00  0.00    +0.157 C 
ATOM      8  C   UNL     1      -6.382 -11.162  15.512  0.00  0.00    +0.113 C 
ATOM     10  C   UNL     1      -6.078 -10.246  18.370  0.00  0.00    +0.192 C 
ATOM     11  C   UNL     1      -6.836  -9.843  16.137  0.00  0.00    +0.175 C 
ENDROOT
BRANCH   7   2
ATOM      2  O   UNL     1      -5.096 -12.091  19.522  0.00  0.00    -0.376 OA
ATOM     15  C   UNL     1      -3.684 -12.114  19.383  0.00  0.00    +0.194 C 
ENDBRANCH   7   2
BRANCH   4   9
ATOM      9  C   UNL     1      -4.298 -12.156  14.791  0.00  0.00    +0.125 C 
BRANCH   9  12
ATOM      3  O   UNL     1      -1.535 -10.009  13.604  0.00  0.00    -0.359 OA
ATOM      5  N   UNL     1      -2.245 -10.133  12.416  0.00  0.00    -0.083 NA
ATOM     12  C   UNL     1      -3.296 -11.294  14.070  0.00  0.00    +0.031 A 
ATOM     13  C   UNL     1      -2.171 -10.705  14.582  0.00  0.00    +0.139 A 
ATOM     14  C   UNL     1      -3.292 -10.905  12.720  0.00  0.00    +0.085 A 
ATOM     16  C   UNL     1      -1.547 -10.678  15.911  0.00  0.00    +0.089 C 
ATOM     17  C   UNL     1      -4.272 -11.246  11.674  0.00  0.00    +0.069 C 
ENDBRANCH   9  12
ENDBRANCH   4   9
TORSDOF 3
ENDMDL
MODEL 10
REMARK VINA RESULT:      -4.4     25.843     27.254
REMARK  Name = 75536940
REMARK  6 active torsions:
REMARK  status: ('A' for Active; 'I' for Inactive)
REMARK    1  A    between atoms: O_2  and  C_7
REMARK    2  A    between atoms: O_2  and  C_15
REMARK    3  A    between atoms: N_4  and  C_9
REMARK    4  A    between atoms: C_9  and  C_12
REMARK    5  A    between atoms: C_13  and  C_16
REMARK    6  A    between atoms: C_14  and  C_17
REMARK                            x       y       z     vdW  Elec       q    Type
REMARK                         _______ _______ _______ _____ _____    ______ ____
ROOT
ATOM      1  O   UNL     1      -6.040 -11.200  19.389  0.00  0.00    -0.376 OA
ATOM      4  N   UNL     1      -5.346 -10.798  16.376  0.00  0.00    -0.293 NA
ATOM      6  C   UNL     1      -6.661 -10.149  16.395  0.00  0.00    +0.118 C 
ATOM      7  C   UNL     1      -7.393 -10.051  17.743  0.00  0.00    +0.157 C 
ATOM      8  C   UNL     1      -4.523 -10.531  17.556  0.00  0.00    +0.113 C 
ATOM     10  C   UNL     1      -7.241 -11.280  18.630  0.00  0.00    +0.192 C 
ATOM     11  C   UNL     1      -4.862 -11.528  18.664  0.00  0.00    +0.175 C 
ENDROOT
BRANCH   7   2
ATOM      2  O   UNL     1      -8.784  -9.867  17.480  0.00  0.00    -0.376 OA
ATOM     15  C   UNL     1      -9.067  -8.523  17.124  0.00  0.00    +0.194 C 
ENDBRANCH   7   2
BRANCH   4   9
ATOM      9  C   UNL     1      -4.637 -10.460  15.141  0.00  0.00    +0.125 C 
BRANCH   9  12
ATOM      3  O   UNL     1      -1.546 -12.403  14.566  0.00  0.00    -0.359 OA
ATOM      5  N   UNL     1      -2.483 -13.363  14.203  0.00  0.00    -0.083 NA
ATOM     12  C   UNL     1      -3.544 -11.448  14.833  0.00  0.00    +0.031 A 
ATOM     13  C   UNL     1      -2.190 -11.266  14.938  0.00  0.00    +0.139 A 
ATOM     14  C   UNL     1      -3.668 -12.770  14.371  0.00  0.00    +0.085 A 
ATOM     16  C   UNL     1      -1.341 -10.143  15.356  0.00  0.00    +0.089 C 
ATOM     17  C   UNL     1      -4.903 -13.515  14.073  0.00  0.00    +0.069 C 
ENDBRANCH   9  12
ENDBRANCH   4   9
TORSDOF 3
ENDMDL
