MODEL 1
REMARK VINA RESULT:      -7.8      0.000      0.000
REMARK  Name = 25314503
REMARK  6 active torsions:
REMARK  status: ('A' for Active; 'I' for Inactive)
REMARK    1  A    between atoms: O_3  and  C_9
REMARK    2  A    between atoms: N_5  and  C_8
REMARK    3  A    between atoms: N_6  and  C_10
REMARK    4  A    between atoms: N_7  and  C_21
REMARK    5  A    between atoms: C_15  and  C_19
REMARK    6  A    between atoms: C_19  and  C_22
REMARK                            x       y       z     vdW  Elec       q    Type
REMARK                         _______ _______ _______ _____ _____    ______ ____
ROOT
ATOM      1  O   UNL     1      10.731   8.640   5.615  0.00  0.00    -0.342 OA
ATOM      2  O   UNL     1      10.002   8.308   7.791  0.00  0.00    -0.347 OA
ATOM      8  C   UNL     1      12.313   7.842   7.250  0.00  0.00    +0.143 C 
ATOM      9  C   UNL     1      11.960   6.378   6.906  0.00  0.00    +0.159 C 
ATOM     10  C   UNL     1      10.975   6.244   5.724  0.00  0.00    +0.136 C 
ATOM     11  C   UNL     1      11.106   8.764   6.992  0.00  0.00    +0.270 C 
ATOM     12  C   UNL     1       9.982   7.422   5.625  0.00  0.00    +0.170 C 
ATOM     16  C   UNL     1       9.138   7.627   6.868  0.00  0.00    +0.196 C 
ENDROOT
BRANCH  10   6
ATOM      4  O   UNL     1      10.544   4.266   3.683  0.00  0.00    -0.253 OA
ATOM      6  N   UNL     1      11.702   6.110   4.480  0.00  0.00    -0.291 N 
ATOM      7  N   UNL     1      12.265   5.211   2.445  0.00  0.00    -0.297 N 
ATOM     20  C   UNL     1      11.422   5.118   3.549  0.00  0.00    +0.300 C 
ATOM     33  H   UNL     1      12.499   6.720   4.317  0.00  0.00    +0.151 HD
ATOM     35  H   UNL     1      13.004   5.907   2.470  0.00  0.00    +0.151 HD
BRANCH   7  21
ATOM     21  C   UNL     1      12.200   4.307   1.319  0.00  0.00    +0.074 C 
ATOM     23  C   UNL     1      12.508   5.036   0.007  0.00  0.00    +0.022 C 
ATOM     24  C   UNL     1      13.133   3.108   1.521  0.00  0.00    +0.022 C 
ATOM     25  C   UNL     1      13.985   5.411  -0.120  0.00  0.00    +0.002 C 
ATOM     26  C   UNL     1      14.608   3.486   1.392  0.00  0.00    +0.002 C 
ATOM     27  C   UNL     1      14.893   4.200   0.074  0.00  0.00    +0.000 C 
ENDBRANCH   7  21
ENDBRANCH  10   6
BRANCH   8   5
ATOM      5  N   UNL     1      13.455   8.287   6.449  0.00  0.00    -0.293 NA
ATOM     13  C   UNL     1      14.556   7.318   6.543  0.00  0.00    +0.085 C 
ATOM     14  C   UNL     1      13.890   9.625   6.872  0.00  0.00    +0.085 C 
ATOM     15  C   UNL     1      16.228   9.146   6.034  0.00  0.00    -0.004 C 
ATOM     17  C   UNL     1      15.739   7.741   5.669  0.00  0.00    +0.019 C 
ATOM     18  C   UNL     1      15.050  10.126   6.010  0.00  0.00    +0.019 C 
BRANCH  15  19
ATOM     19  C   UNL     1      17.341   9.602   5.095  0.00  0.00    +0.038 C 
BRANCH  19  22
ATOM     22  C   UNL     1      18.619   8.849   5.343  0.00  0.00    -0.047 A 
ATOM     28  C   UNL     1      19.176   8.068   4.331  0.00  0.00    +0.003 A 
ATOM     29  C   UNL     1      19.247   8.932   6.586  0.00  0.00    +0.003 A 
ATOM     30  C   UNL     1      20.361   7.369   4.561  0.00  0.00    +0.000 A 
ATOM     31  C   UNL     1      20.432   8.233   6.816  0.00  0.00    +0.000 A 
ATOM     32  C   UNL     1      20.990   7.452   5.804  0.00  0.00    +0.000 A 
ENDBRANCH  19  22
ENDBRANCH  15  19
ENDBRANCH   8   5
BRANCH   9   3
ATOM      3  O   UNL     1      11.367   5.785   8.069  0.00  0.00    -0.388 OA
ATOM     34  H   UNL     1      10.587   6.315   8.304  0.00  0.00    +0.210 HD
ENDBRANCH   9   3
TORSDOF 6
ENDMDL
MODEL 2
REMARK VINA RESULT:      -7.7     12.742     15.162
REMARK  Name = 25314503
REMARK  6 active torsions:
REMARK  status: ('A' for Active; 'I' for Inactive)
REMARK    1  A    between atoms: O_3  and  C_9
REMARK    2  A    between atoms: N_5  and  C_8
REMARK    3  A    between atoms: N_6  and  C_10
REMARK    4  A    between atoms: N_7  and  C_21
REMARK    5  A    between atoms: C_15  and  C_19
REMARK    6  A    between atoms: C_19  and  C_22
REMARK                            x       y       z     vdW  Elec       q    Type
REMARK                         _______ _______ _______ _____ _____    ______ ____
ROOT
ATOM      1  O   UNL     1      13.372   9.305  20.946  0.00  0.00    -0.342 OA
ATOM      2  O   UNL     1      11.803   7.733  21.615  0.00  0.00    -0.347 OA
ATOM      8  C   UNL     1      13.834   6.973  20.543  0.00  0.00    +0.143 C 
ATOM      9  C   UNL     1      13.159   7.058  19.156  0.00  0.00    +0.159 C 
ATOM     10  C   UNL     1      12.717   8.488  18.774  0.00  0.00    +0.136 C 
ATOM     11  C   UNL     1      13.212   7.997  21.511  0.00  0.00    +0.270 C 
ATOM     12  C   UNL     1      12.307   9.342  19.992  0.00  0.00    +0.170 C 
ATOM     16  C   UNL     1      11.179   8.748  20.814  0.00  0.00    +0.196 C 
ENDROOT
BRANCH  10   6
ATOM      4  O   UNL     1      12.520   9.629  16.143  0.00  0.00    -0.253 OA
ATOM      6  N   UNL     1      13.769   9.156  18.039  0.00  0.00    -0.291 N 
ATOM      7  N   UNL     1      14.748  10.267  16.285  0.00  0.00    -0.297 N 
ATOM     20  C   UNL     1      13.581   9.679  16.765  0.00  0.00    +0.300 C 
ATOM     33  H   UNL     1      14.703   9.176  18.440  0.00  0.00    +0.151 HD
ATOM     35  H   UNL     1      15.587  10.187  16.851  0.00  0.00    +0.151 HD
BRANCH   7  21
ATOM     21  C   UNL     1      14.844  10.891  14.984  0.00  0.00    +0.074 C 
ATOM     23  C   UNL     1      14.042  12.196  14.939  0.00  0.00    +0.022 C 
ATOM     24  C   UNL     1      16.306  11.122  14.591  0.00  0.00    +0.022 C 
ATOM     25  C   UNL     1      14.700  13.314  15.749  0.00  0.00    +0.002 C 
ATOM     26  C   UNL     1      16.960  12.241  15.400  0.00  0.00    +0.002 C 
ATOM     27  C   UNL     1      16.151  13.533  15.332  0.00  0.00    +0.000 C 
ENDBRANCH   7  21
ENDBRANCH  10   6
BRANCH   8   5
ATOM      5  N   UNL     1      15.272   7.217  20.420  0.00  0.00    -0.293 NA
ATOM     13  C   UNL     1      15.899   6.184  19.584  0.00  0.00    +0.085 C 
ATOM     14  C   UNL     1      15.899   7.277  21.747  0.00  0.00    +0.085 C 
ATOM     15  C   UNL     1      18.111   6.562  20.751  0.00  0.00    -0.004 C 
ATOM     17  C   UNL     1      17.394   6.455  19.401  0.00  0.00    +0.019 C 
ATOM     18  C   UNL     1      17.393   7.585  21.638  0.00  0.00    +0.019 C 
BRANCH  15  19
ATOM     19  C   UNL     1      19.580   6.931  20.566  0.00  0.00    +0.038 C 
BRANCH  19  22
ATOM     22  C   UNL     1      20.492   5.892  21.160  0.00  0.00    -0.047 A 
ATOM     28  C   UNL     1      20.694   4.681  20.500  0.00  0.00    +0.003 A 
ATOM     29  C   UNL     1      21.135   6.141  22.373  0.00  0.00    +0.003 A 
ATOM     30  C   UNL     1      21.538   3.718  21.051  0.00  0.00    +0.000 A 
ATOM     31  C   UNL     1      21.980   5.177  22.924  0.00  0.00    +0.000 A 
ATOM     32  C   UNL     1      22.182   3.966  22.264  0.00  0.00    +0.000 A 
ENDBRANCH  19  22
ENDBRANCH  15  19
ENDBRANCH   8   5
BRANCH   9   3
ATOM      3  O   UNL     1      12.004   6.209  19.178  0.00  0.00    -0.388 OA
ATOM     34  H   UNL     1      12.122   5.569  19.900  0.00  0.00    +0.210 HD
ENDBRANCH   9   3
TORSDOF 6
ENDMDL
MODEL 3
REMARK VINA RESULT:      -6.7      2.655      6.494
REMARK  Name = 25314503
REMARK  6 active torsions:
REMARK  status: ('A' for Active; 'I' for Inactive)
REMARK    1  A    between atoms: O_3  and  C_9
REMARK    2  A    between atoms: N_5  and  C_8
REMARK    3  A    between atoms: N_6  and  C_10
REMARK    4  A    between atoms: N_7  and  C_21
REMARK    5  A    between atoms: C_15  and  C_19
REMARK    6  A    between atoms: C_19  and  C_22
REMARK                            x       y       z     vdW  Elec       q    Type
REMARK                         _______ _______ _______ _____ _____    ______ ____
ROOT
ATOM      1  O   UNL     1      15.391   8.165   6.388  0.00  0.00    -0.342 OA
ATOM      2  O   UNL     1      16.305  10.286   6.173  0.00  0.00    -0.347 OA
ATOM      8  C   UNL     1      14.040   9.908   5.412  0.00  0.00    +0.143 C 
ATOM      9  C   UNL     1      14.553   9.542   4.001  0.00  0.00    +0.159 C 
ATOM     10  C   UNL     1      15.463   8.294   3.981  0.00  0.00    +0.136 C 
ATOM     11  C   UNL     1      15.099   9.565   6.477  0.00  0.00    +0.270 C 
ATOM     12  C   UNL     1      16.288   8.125   5.275  0.00  0.00    +0.170 C 
ATOM     16  C   UNL     1      17.183   9.306   5.598  0.00  0.00    +0.196 C 
ENDROOT
BRANCH  10   6
ATOM      4  O   UNL     1      14.900   7.085   1.435  0.00  0.00    -0.253 OA
ATOM      6  N   UNL     1      14.675   7.104   3.743  0.00  0.00    -0.291 N 
ATOM      7  N   UNL     1      13.667   5.444   2.520  0.00  0.00    -0.297 N 
ATOM     20  C   UNL     1      14.456   6.591   2.471  0.00  0.00    +0.300 C 
ATOM     33  H   UNL     1      14.201   6.672   4.531  0.00  0.00    +0.151 HD
ATOM     35  H   UNL     1      13.292   5.165   3.422  0.00  0.00    +0.151 HD
BRANCH   7  21
ATOM     21  C   UNL     1      13.278   4.699   1.344  0.00  0.00    +0.074 C 
ATOM     23  C   UNL     1      12.771   3.303   1.720  0.00  0.00    +0.022 C 
ATOM     24  C   UNL     1      12.237   5.467   0.524  0.00  0.00    +0.022 C 
ATOM     25  C   UNL     1      11.400   3.342   2.397  0.00  0.00    +0.002 C 
ATOM     26  C   UNL     1      10.868   5.502   1.202  0.00  0.00    +0.002 C 
ATOM     27  C   UNL     1      10.379   4.101   1.557  0.00  0.00    +0.000 C 
ENDBRANCH   7  21
ENDBRANCH  10   6
BRANCH   8   5
ATOM      5  N   UNL     1      12.798   9.188   5.698  0.00  0.00    -0.293 NA
ATOM     13  C   UNL     1      11.848   9.340   4.588  0.00  0.00    +0.085 C 
ATOM     14  C   UNL     1      12.214   9.655   6.963  0.00  0.00    +0.085 C 
ATOM     15  C   UNL     1       9.913   8.963   6.172  0.00  0.00    -0.004 C 
ATOM     17  C   UNL     1      10.563   8.550   4.848  0.00  0.00    +0.019 C 
ATOM     18  C   UNL     1      10.943   8.875   7.304  0.00  0.00    +0.019 C 
BRANCH  15  19
ATOM     19  C   UNL     1       8.689   8.103   6.476  0.00  0.00    +0.038 C 
BRANCH  19  22
ATOM     22  C   UNL     1       9.077   6.778   7.073  0.00  0.00    -0.047 A 
ATOM     28  C   UNL     1       9.483   5.732   6.245  0.00  0.00    +0.003 A 
ATOM     29  C   UNL     1       9.030   6.595   8.455  0.00  0.00    +0.003 A 
ATOM     30  C   UNL     1       9.842   4.503   6.798  0.00  0.00    +0.000 A 
ATOM     31  C   UNL     1       9.390   5.366   9.008  0.00  0.00    +0.000 A 
ATOM     32  C   UNL     1       9.795   4.320   8.181  0.00  0.00    +0.000 A 
ENDBRANCH  19  22
ENDBRANCH  15  19
ENDBRANCH   8   5
BRANCH   9   3
ATOM      3  O   UNL     1      15.295  10.662   3.500  0.00  0.00    -0.388 OA
ATOM     34  H   UNL     1      14.682  11.219   2.992  0.00  0.00    +0.210 HD
ENDBRANCH   9   3
TORSDOF 6
ENDMDL
MODEL 4
REMARK VINA RESULT:      -6.6     25.680     28.988
REMARK  Name = 25314503
REMARK  6 active torsions:
REMARK  status: ('A' for Active; 'I' for Inactive)
REMARK    1  A    between atoms: O_3  and  C_9
REMARK    2  A    between atoms: N_5  and  C_8
REMARK    3  A    between atoms: N_6  and  C_10
REMARK    4  A    between atoms: N_7  and  C_21
REMARK    5  A    between atoms: C_15  and  C_19
REMARK    6  A    between atoms: C_19  and  C_22
REMARK                            x       y       z     vdW  Elec       q    Type
REMARK                         _______ _______ _______ _____ _____    ______ ____
ROOT
ATOM      1  O   UNL     1      -7.974 -13.107  17.251  0.00  0.00    -0.342 OA
ATOM      2  O   UNL     1      -9.018 -11.718  18.787  0.00  0.00    -0.347 OA
ATOM      8  C   UNL     1      -8.174 -10.761  16.732  0.00  0.00    +0.143 C 
ATOM      9  C   UNL     1      -6.810 -10.476  17.400  0.00  0.00    +0.159 C 
ATOM     10  C   UNL     1      -6.079 -11.752  17.873  0.00  0.00    +0.136 C 
ATOM     11  C   UNL     1      -8.851 -11.981  17.383  0.00  0.00    +0.270 C 
ATOM     12  C   UNL     1      -7.041 -12.876  18.310  0.00  0.00    +0.170 C 
ATOM     16  C   UNL     1      -7.986 -12.482  19.430  0.00  0.00    +0.196 C 
ENDROOT
BRANCH  10   6
ATOM      4  O   UNL     1      -3.605 -10.563  17.018  0.00  0.00    -0.253 OA
ATOM      6  N   UNL     1      -5.199 -12.237  16.832  0.00  0.00    -0.291 N 
ATOM      7  N   UNL     1      -3.360 -12.265  15.458  0.00  0.00    -0.297 N 
ATOM     20  C   UNL     1      -4.017 -11.593  16.486  0.00  0.00    +0.300 C 
ATOM     33  H   UNL     1      -5.495 -13.039  16.282  0.00  0.00    +0.151 HD
ATOM     35  H   UNL     1      -3.826 -13.065  15.041  0.00  0.00    +0.151 HD
BRANCH   7  21
ATOM     21  C   UNL     1      -2.105 -11.820  14.896  0.00  0.00    +0.074 C 
ATOM     23  C   UNL     1      -1.531 -12.864  13.934  0.00  0.00    +0.022 C 
ATOM     24  C   UNL     1      -2.260 -10.458  14.211  0.00  0.00    +0.022 C 
ATOM     25  C   UNL     1      -2.319 -12.950  12.626  0.00  0.00    +0.002 C 
ATOM     26  C   UNL     1      -3.046 -10.548  12.904  0.00  0.00    +0.002 C 
ATOM     27  C   UNL     1      -2.450 -11.585  11.958  0.00  0.00    +0.000 C 
ENDBRANCH   7  21
ENDBRANCH  10   6
BRANCH   8   5
ATOM      5  N   UNL     1      -7.993 -11.001  15.299  0.00  0.00    -0.293 NA
ATOM     13  C   UNL     1      -6.848 -10.233  14.791  0.00  0.00    +0.085 C 
ATOM     14  C   UNL     1      -9.221 -10.670  14.563  0.00  0.00    +0.085 C 
ATOM     15  C   UNL     1      -7.866 -10.220  12.476  0.00  0.00    -0.004 C 
ATOM     17  C   UNL     1      -6.612 -10.514  13.305  0.00  0.00    +0.019 C 
ATOM     18  C   UNL     1      -9.066 -10.966  13.071  0.00  0.00    +0.019 C 
BRANCH  15  19
ATOM     19  C   UNL     1      -7.658 -10.597  11.011  0.00  0.00    +0.038 C 
BRANCH  19  22
ATOM     22  C   UNL     1      -6.360 -10.053  10.479  0.00  0.00    -0.047 A 
ATOM     28  C   UNL     1      -5.518 -10.871   9.726  0.00  0.00    +0.003 A 
ATOM     29  C   UNL     1      -5.999  -8.731  10.738  0.00  0.00    +0.003 A 
ATOM     30  C   UNL     1      -4.315 -10.367   9.232  0.00  0.00    +0.000 A 
ATOM     31  C   UNL     1      -4.795  -8.227  10.245  0.00  0.00    +0.000 A 
ATOM     32  C   UNL     1      -3.953  -9.045   9.492  0.00  0.00    +0.000 A 
ENDBRANCH  19  22
ENDBRANCH  15  19
ENDBRANCH   8   5
BRANCH   9   3
ATOM      3  O   UNL     1      -7.046  -9.633  18.535  0.00  0.00    -0.388 OA
ATOM     34  H   UNL     1      -7.977  -9.739  18.794  0.00  0.00    +0.210 HD
ENDBRANCH   9   3
TORSDOF 6
ENDMDL
MODEL 5
REMARK VINA RESULT:      -6.3      1.521      2.178
REMARK  Name = 25314503
REMARK  6 active torsions:
REMARK  status: ('A' for Active; 'I' for Inactive)
REMARK    1  A    between atoms: O_3  and  C_9
REMARK    2  A    between atoms: N_5  and  C_8
REMARK    3  A    between atoms: N_6  and  C_10
REMARK    4  A    between atoms: N_7  and  C_21
REMARK    5  A    between atoms: C_15  and  C_19
REMARK    6  A    between atoms: C_19  and  C_22
REMARK                            x       y       z     vdW  Elec       q    Type
REMARK                         _______ _______ _______ _____ _____    ______ ____
ROOT
ATOM      1  O   UNL     1      10.266   8.351   5.591  0.00  0.00    -0.342 OA
ATOM      2  O   UNL     1       9.492   7.900   7.730  0.00  0.00    -0.347 OA
ATOM      8  C   UNL     1      11.869   7.776   7.299  0.00  0.00    +0.143 C 
ATOM      9  C   UNL     1      11.747   6.279   6.937  0.00  0.00    +0.159 C 
ATOM     10  C   UNL     1      10.847   6.014   5.710  0.00  0.00    +0.136 C 
ATOM     11  C   UNL     1      10.555   8.517   6.985  0.00  0.00    +0.270 C 
ATOM     12  C   UNL     1       9.701   7.037   5.565  0.00  0.00    +0.170 C 
ATOM     16  C   UNL     1       8.779   7.109   6.767  0.00  0.00    +0.196 C 
ENDROOT
BRANCH  10   6
ATOM      4  O   UNL     1      10.639   4.140   3.540  0.00  0.00    -0.253 OA
ATOM      6  N   UNL     1      11.643   5.996   4.502  0.00  0.00    -0.291 N 
ATOM      7  N   UNL     1      12.361   5.253   2.452  0.00  0.00    -0.297 N 
ATOM     20  C   UNL     1      11.470   5.046   3.502  0.00  0.00    +0.300 C 
ATOM     33  H   UNL     1      12.410   6.658   4.417  0.00  0.00    +0.151 HD
ATOM     35  H   UNL     1      13.056   5.986   2.557  0.00  0.00    +0.151 HD
BRANCH   7  21
ATOM     21  C   UNL     1      12.407   4.415   1.275  0.00  0.00    +0.074 C 
ATOM     23  C   UNL     1      12.873   5.209   0.051  0.00  0.00    +0.022 C 
ATOM     24  C   UNL     1      13.289   3.185   1.509  0.00  0.00    +0.022 C 
ATOM     25  C   UNL     1      14.362   5.556   0.111  0.00  0.00    +0.002 C 
ATOM     26  C   UNL     1      14.776   3.534   1.566  0.00  0.00    +0.002 C 
ATOM     27  C   UNL     1      15.220   4.314   0.333  0.00  0.00    +0.000 C 
ENDBRANCH   7  21
ENDBRANCH  10   6
BRANCH   8   5
ATOM      5  N   UNL     1      12.971   8.387   6.553  0.00  0.00    -0.293 NA
ATOM     13  C   UNL     1      14.179   7.555   6.650  0.00  0.00    +0.085 C 
ATOM     14  C   UNL     1      13.227   9.750   7.038  0.00  0.00    +0.085 C 
ATOM     15  C   UNL     1      15.629   9.590   6.262  0.00  0.00    -0.004 C 
ATOM     17  C   UNL     1      15.326   8.151   5.831  0.00  0.00    +0.019 C 
ATOM     18  C   UNL     1      14.341  10.421   6.233  0.00  0.00    +0.019 C 
BRANCH  15  19
ATOM     19  C   UNL     1      16.705  10.214   5.378  0.00  0.00    +0.038 C 
BRANCH  19  22
ATOM     22  C   UNL     1      16.621   9.709   3.963  0.00  0.00    -0.047 A 
ATOM     28  C   UNL     1      17.522   8.745   3.512  0.00  0.00    +0.003 A 
ATOM     29  C   UNL     1      15.642  10.205   3.102  0.00  0.00    +0.003 A 
ATOM     30  C   UNL     1      17.445   8.277   2.201  0.00  0.00    +0.000 A 
ATOM     31  C   UNL     1      15.565   9.737   1.791  0.00  0.00    +0.000 A 
ATOM     32  C   UNL     1      16.466   8.774   1.339  0.00  0.00    +0.000 A 
ENDBRANCH  19  22
ENDBRANCH  15  19
ENDBRANCH   8   5
BRANCH   9   3
ATOM      3  O   UNL     1      11.192   5.598   8.070  0.00  0.00    -0.388 OA
ATOM     34  H   UNL     1      11.903   5.074   8.476  0.00  0.00    +0.210 HD
ENDBRANCH   9   3
TORSDOF 6
ENDMDL
MODEL 6
REMARK VINA RESULT:      -6.2     24.776     26.768
REMARK  Name = 25314503
REMARK  6 active torsions:
REMARK  status: ('A' for Active; 'I' for Inactive)
REMARK    1  A    between atoms: O_3  and  C_9
REMARK    2  A    between atoms: N_5  and  C_8
REMARK    3  A    between atoms: N_6  and  C_10
REMARK    4  A    between atoms: N_7  and  C_21
REMARK    5  A    between atoms: C_15  and  C_19
REMARK    6  A    between atoms: C_19  and  C_22
REMARK                            x       y       z     vdW  Elec       q    Type
REMARK                         _______ _______ _______ _____ _____    ______ ____
ROOT
ATOM      1  O   UNL     1      -4.553 -12.582   0.050  0.00  0.00    -0.342 OA
ATOM      2  O   UNL     1      -6.034 -14.270   0.631  0.00  0.00    -0.347 OA
ATOM      8  C   UNL     1      -3.683 -14.800   0.423  0.00  0.00    +0.143 C 
ATOM      9  C   UNL     1      -3.871 -15.146  -1.071  0.00  0.00    +0.159 C 
ATOM     10  C   UNL     1      -4.347 -13.950  -1.925  0.00  0.00    +0.136 C 
ATOM     11  C   UNL     1      -4.716 -13.748   0.868  0.00  0.00    +0.270 C 
ATOM     12  C   UNL     1      -5.242 -12.965  -1.143  0.00  0.00    +0.170 C 
ATOM     16  C   UNL     1      -6.489 -13.595  -0.552  0.00  0.00    +0.196 C 
ENDROOT
BRANCH  10   6
ATOM      4  O   UNL     1      -2.907 -14.621  -4.320  0.00  0.00    -0.253 OA
ATOM      6  N   UNL     1      -3.210 -13.247  -2.477  0.00  0.00    -0.291 N 
ATOM      7  N   UNL     1      -1.513 -12.801  -3.957  0.00  0.00    -0.297 N 
ATOM     20  C   UNL     1      -2.575 -13.646  -3.646  0.00  0.00    +0.300 C 
ATOM     33  H   UNL     1      -2.814 -12.475  -1.947  0.00  0.00    +0.151 HD
ATOM     35  H   UNL     1      -1.279 -12.070  -3.292  0.00  0.00    +0.151 HD
BRANCH   7  21
ATOM     21  C   UNL     1      -0.673 -12.977  -5.120  0.00  0.00    +0.074 C 
ATOM     23  C   UNL     1       0.342 -11.836  -5.245  0.00  0.00    +0.022 C 
ATOM     24  C   UNL     1       0.024 -14.341  -5.094  0.00  0.00    +0.022 C 
ATOM     25  C   UNL     1       1.443 -11.914  -4.187  0.00  0.00    +0.002 C 
ATOM     26  C   UNL     1       1.125 -14.415  -4.037  0.00  0.00    +0.002 C 
ATOM     27  C   UNL     1       2.129 -13.276  -4.189  0.00  0.00    +0.000 C 
ENDBRANCH   7  21
ENDBRANCH  10   6
BRANCH   8   5
ATOM      5  N   UNL     1      -2.329 -14.294   0.656  0.00  0.00    -0.293 NA
ATOM     13  C   UNL     1      -1.386 -14.890  -0.302  0.00  0.00    +0.085 C 
ATOM     14  C   UNL     1      -1.913 -14.557   2.040  0.00  0.00    +0.085 C 
ATOM     15  C   UNL     1       0.514 -14.542   1.330  0.00  0.00    -0.004 C 
ATOM     17  C   UNL     1       0.025 -14.331  -0.107  0.00  0.00    +0.019 C 
ATOM     18  C   UNL     1      -0.520 -13.987   2.315  0.00  0.00    +0.019 C 
BRANCH  15  19
ATOM     19  C   UNL     1       1.880 -13.895   1.546  0.00  0.00    +0.038 C 
BRANCH  19  22
ATOM     22  C   UNL     1       2.932 -14.516   0.669  0.00  0.00    -0.047 A 
ATOM     28  C   UNL     1       3.224 -15.875   0.784  0.00  0.00    +0.003 A 
ATOM     29  C   UNL     1       3.617 -13.732  -0.260  0.00  0.00    +0.003 A 
ATOM     30  C   UNL     1       4.200 -16.450  -0.029  0.00  0.00    +0.000 A 
ATOM     31  C   UNL     1       4.594 -14.308  -1.073  0.00  0.00    +0.000 A 
ATOM     32  C   UNL     1       4.886 -15.666  -0.958  0.00  0.00    +0.000 A 
ENDBRANCH  19  22
ENDBRANCH  15  19
ENDBRANCH   8   5
BRANCH   9   3
ATOM      3  O   UNL     1      -4.848 -16.192  -1.159  0.00  0.00    -0.388 OA
ATOM     34  H   UNL     1      -4.434 -16.944  -1.615  0.00  0.00    +0.210 HD
ENDBRANCH   9   3
TORSDOF 6
ENDMDL
MODEL 7
REMARK VINA RESULT:      -6.2     15.192     18.007
REMARK  Name = 25314503
REMARK  6 active torsions:
REMARK  status: ('A' for Active; 'I' for Inactive)
REMARK    1  A    between atoms: O_3  and  C_9
REMARK    2  A    between atoms: N_5  and  C_8
REMARK    3  A    between atoms: N_6  and  C_10
REMARK    4  A    between atoms: N_7  and  C_21
REMARK    5  A    between atoms: C_15  and  C_19
REMARK    6  A    between atoms: C_19  and  C_22
REMARK                            x       y       z     vdW  Elec       q    Type
REMARK                         _______ _______ _______ _____ _____    ______ ____
ROOT
ATOM      1  O   UNL     1      21.547   7.222  20.185  0.00  0.00    -0.342 OA
ATOM      2  O   UNL     1      22.075   5.854  21.983  0.00  0.00    -0.347 OA
ATOM      8  C   UNL     1      19.776   6.544  21.676  0.00  0.00    +0.143 C 
ATOM      9  C   UNL     1      20.011   7.793  22.555  0.00  0.00    +0.159 C 
ATOM     10  C   UNL     1      21.065   8.763  21.976  0.00  0.00    +0.136 C 
ATOM     11  C   UNL     1      21.083   6.121  20.977  0.00  0.00    +0.270 C 
ATOM     12  C   UNL     1      22.171   8.048  21.172  0.00  0.00    +0.170 C 
ATOM     16  C   UNL     1      22.936   7.003  21.963  0.00  0.00    +0.196 C 
ENDROOT
BRANCH  10   6
ATOM      4  O   UNL     1      19.103  10.690  22.811  0.00  0.00    -0.253 OA
ATOM      6  N   UNL     1      20.423   9.760  21.147  0.00  0.00    -0.291 N 
ATOM      7  N   UNL     1      19.022  11.505  20.639  0.00  0.00    -0.297 N 
ATOM     20  C   UNL     1      19.482  10.654  21.641  0.00  0.00    +0.300 C 
ATOM     33  H   UNL     1      20.614   9.756  20.149  0.00  0.00    +0.151 HD
ATOM     35  H   UNL     1      19.347  11.341  19.691  0.00  0.00    +0.151 HD
BRANCH   7  21
ATOM     21  C   UNL     1      18.035  12.538  20.867  0.00  0.00    +0.074 C 
ATOM     23  C   UNL     1      18.127  13.632  19.799  0.00  0.00    +0.022 C 
ATOM     24  C   UNL     1      16.624  11.945  20.937  0.00  0.00    +0.022 C 
ATOM     25  C   UNL     1      17.618  13.163  18.436  0.00  0.00    +0.002 C 
ATOM     26  C   UNL     1      16.118  11.479  19.573  0.00  0.00    +0.002 C 
ATOM     27  C   UNL     1      16.207  12.588  18.529  0.00  0.00    +0.000 C 
ENDBRANCH   7  21
ENDBRANCH  10   6
BRANCH   8   5
ATOM      5  N   UNL     1      18.746   6.820  20.673  0.00  0.00    -0.293 NA
ATOM     13  C   UNL     1      17.589   7.481  21.294  0.00  0.00    +0.085 C 
ATOM     14  C   UNL     1      18.345   5.580  19.994  0.00  0.00    +0.085 C 
ATOM     15  C   UNL     1      16.080   6.579  19.477  0.00  0.00    -0.004 C 
ATOM     17  C   UNL     1      16.524   7.824  20.250  0.00  0.00    +0.019 C 
ATOM     18  C   UNL     1      17.307   5.859  18.906  0.00  0.00    +0.019 C 
BRANCH  15  19
ATOM     19  C   UNL     1      15.093   6.942  18.370  0.00  0.00    +0.038 C 
BRANCH  19  22
ATOM     22  C   UNL     1      13.865   7.613  18.922  0.00  0.00    -0.047 A 
ATOM     28  C   UNL     1      13.008   6.913  19.769  0.00  0.00    +0.003 A 
ATOM     29  C   UNL     1      13.583   8.937  18.584  0.00  0.00    +0.003 A 
ATOM     30  C   UNL     1      11.869   7.535  20.280  0.00  0.00    +0.000 A 
ATOM     31  C   UNL     1      12.444   9.560  19.095  0.00  0.00    +0.000 A 
ATOM     32  C   UNL     1      11.587   8.859  19.942  0.00  0.00    +0.000 A 
ENDBRANCH  19  22
ENDBRANCH  15  19
ENDBRANCH   8   5
BRANCH   9   3
ATOM      3  O   UNL     1      20.455   7.345  23.842  0.00  0.00    -0.388 OA
ATOM     34  H   UNL     1      21.244   7.862  24.078  0.00  0.00    +0.210 HD
ENDBRANCH   9   3
TORSDOF 6
ENDMDL
MODEL 8
REMARK VINA RESULT:      -6.1     25.725     28.669
REMARK  Name = 25314503
REMARK  6 active torsions:
REMARK  status: ('A' for Active; 'I' for Inactive)
REMARK    1  A    between atoms: O_3  and  C_9
REMARK    2  A    between atoms: N_5  and  C_8
REMARK    3  A    between atoms: N_6  and  C_10
REMARK    4  A    between atoms: N_7  and  C_21
REMARK    5  A    between atoms: C_15  and  C_19
REMARK    6  A    between atoms: C_19  and  C_22
REMARK                            x       y       z     vdW  Elec       q    Type
REMARK                         _______ _______ _______ _____ _____    ______ ____
ROOT
ATOM      1  O   UNL     1      -5.564 -10.067  17.843  0.00  0.00    -0.342 OA
ATOM      2  O   UNL     1      -4.984 -11.694  19.391  0.00  0.00    -0.347 OA
ATOM      8  C   UNL     1      -4.341 -11.999  17.079  0.00  0.00    +0.143 C 
ATOM      9  C   UNL     1      -5.663 -12.745  16.788  0.00  0.00    +0.159 C 
ATOM     10  C   UNL     1      -6.921 -11.875  17.005  0.00  0.00    +0.136 C 
ATOM     11  C   UNL     1      -4.533 -10.987  18.223  0.00  0.00    +0.270 C 
ATOM     12  C   UNL     1      -6.746 -10.823  18.120  0.00  0.00    +0.170 C 
ATOM     16  C   UNL     1      -6.389 -11.408  19.474  0.00  0.00    +0.196 C 
ENDROOT
BRANCH  10   6
ATOM      4  O   UNL     1      -8.862 -12.792  15.093  0.00  0.00    -0.253 OA
ATOM      6  N   UNL     1      -7.295 -11.222  15.769  0.00  0.00    -0.291 N 
ATOM      7  N   UNL     1      -8.421 -10.921  13.792  0.00  0.00    -0.297 N 
ATOM     20  C   UNL     1      -8.249 -11.742  14.903  0.00  0.00    +0.300 C 
ATOM     33  H   UNL     1      -6.785 -10.389  15.488  0.00  0.00    +0.151 HD
ATOM     35  H   UNL     1      -7.810 -10.116  13.698  0.00  0.00    +0.151 HD
BRANCH   7  21
ATOM     21  C   UNL     1      -9.350 -11.216  12.725  0.00  0.00    +0.074 C 
ATOM     23  C   UNL     1      -9.704  -9.950  11.937  0.00  0.00    +0.022 C 
ATOM     24  C   UNL     1      -8.802 -12.310  11.803  0.00  0.00    +0.022 C 
ATOM     25  C   UNL     1      -8.547  -9.461  11.067  0.00  0.00    +0.002 C 
ATOM     26  C   UNL     1      -7.647 -11.817  10.933  0.00  0.00    +0.002 C 
ATOM     27  C   UNL     1      -8.026 -10.563  10.150  0.00  0.00    +0.000 C 
ENDBRANCH   7  21
ENDBRANCH  10   6
BRANCH   8   5
ATOM      5  N   UNL     1      -3.879 -11.305  15.876  0.00  0.00    -0.293 NA
ATOM     13  C   UNL     1      -4.312 -12.025  14.670  0.00  0.00    +0.085 C 
ATOM     14  C   UNL     1      -2.418 -11.148  15.902  0.00  0.00    +0.085 C 
ATOM     15  C   UNL     1      -2.368 -11.055  13.375  0.00  0.00    -0.004 C 
ATOM     17  C   UNL     1      -3.883 -11.283  13.401  0.00  0.00    +0.019 C 
ATOM     18  C   UNL     1      -1.925 -10.377  14.677  0.00  0.00    +0.019 C 
BRANCH  15  19
ATOM     19  C   UNL     1      -1.958 -10.229  12.159  0.00  0.00    +0.038 C 
BRANCH  19  22
ATOM     22  C   UNL     1      -2.891 -10.446  11.000  0.00  0.00    -0.047 A 
ATOM     28  C   UNL     1      -3.270 -11.740  10.643  0.00  0.00    +0.003 A 
ATOM     29  C   UNL     1      -3.378  -9.354  10.282  0.00  0.00    +0.003 A 
ATOM     30  C   UNL     1      -4.136 -11.942   9.568  0.00  0.00    +0.000 A 
ATOM     31  C   UNL     1      -4.243  -9.556   9.207  0.00  0.00    +0.000 A 
ATOM     32  C   UNL     1      -4.622 -10.850   8.850  0.00  0.00    +0.000 A 
ENDBRANCH  19  22
ENDBRANCH  15  19
ENDBRANCH   8   5
BRANCH   9   3
ATOM      3  O   UNL     1      -5.730 -13.878  17.665  0.00  0.00    -0.388 OA
ATOM     34  H   UNL     1      -4.824 -14.077  17.958  0.00  0.00    +0.210 HD
ENDBRANCH   9   3
TORSDOF 6
ENDMDL
MODEL 9
REMARK VINA RESULT:      -6.1      1.870      7.166
REMARK  Name = 25314503
REMARK  6 active torsions:
REMARK  status: ('A' for Active; 'I' for Inactive)
REMARK    1  A    between atoms: O_3  and  C_9
REMARK    2  A    between atoms: N_5  and  C_8
REMARK    3  A    between atoms: N_6  and  C_10
REMARK    4  A    between atoms: N_7  and  C_21
REMARK    5  A    between atoms: C_15  and  C_19
REMARK    6  A    between atoms: C_19  and  C_22
REMARK                            x       y       z     vdW  Elec       q    Type
REMARK                         _______ _______ _______ _____ _____    ______ ____
ROOT
ATOM      1  O   UNL     1      10.893   5.503   6.633  0.00  0.00    -0.342 OA
ATOM      2  O   UNL     1       8.663   6.129   6.529  0.00  0.00    -0.347 OA
ATOM      8  C   UNL     1      10.003   6.248   4.519  0.00  0.00    +0.143 C 
ATOM      9  C   UNL     1      10.399   7.706   4.844  0.00  0.00    +0.159 C 
ATOM     10  C   UNL     1      11.190   7.849   6.164  0.00  0.00    +0.136 C 
ATOM     11  C   UNL     1       9.718   5.464   5.814  0.00  0.00    +0.270 C 
ATOM     12  C   UNL     1      10.794   6.801   7.225  0.00  0.00    +0.170 C 
ATOM     16  C   UNL     1       9.324   6.822   7.599  0.00  0.00    +0.196 C 
ENDROOT
BRANCH  10   6
ATOM      4  O   UNL     1      13.159   9.854   6.767  0.00  0.00    -0.253 OA
ATOM      6  N   UNL     1      12.611   7.772   5.905  0.00  0.00    -0.291 N 
ATOM      7  N   UNL     1      14.798   8.470   5.879  0.00  0.00    -0.297 N 
ATOM     20  C   UNL     1      13.491   8.796   6.234  0.00  0.00    +0.300 C 
ATOM     33  H   UNL     1      12.968   6.969   5.395  0.00  0.00    +0.151 HD
ATOM     35  H   UNL     1      14.950   7.601   5.377  0.00  0.00    +0.151 HD
BRANCH   7  21
ATOM     21  C   UNL     1      15.923   9.350   6.103  0.00  0.00    +0.074 C 
ATOM     23  C   UNL     1      17.249   8.597   5.958  0.00  0.00    +0.022 C 
ATOM     24  C   UNL     1      15.867  10.564   5.169  0.00  0.00    +0.022 C 
ATOM     25  C   UNL     1      17.560   8.236   4.505  0.00  0.00    +0.002 C 
ATOM     26  C   UNL     1      16.180  10.200   3.718  0.00  0.00    +0.002 C 
ATOM     27  C   UNL     1      17.509   9.461   3.597  0.00  0.00    +0.000 C 
ENDBRANCH   7  21
ENDBRANCH  10   6
BRANCH   8   5
ATOM      5  N   UNL     1      11.074   5.590   3.769  0.00  0.00    -0.293 NA
ATOM     13  C   UNL     1      11.619   6.498   2.749  0.00  0.00    +0.085 C 
ATOM     14  C   UNL     1      10.587   4.344   3.162  0.00  0.00    +0.085 C 
ATOM     15  C   UNL     1      12.347   4.517   1.355  0.00  0.00    -0.004 C 
ATOM     17  C   UNL     1      12.776   5.844   1.990  0.00  0.00    +0.019 C 
ATOM     18  C   UNL     1      11.708   3.617   2.418  0.00  0.00    +0.019 C 
BRANCH  15  19
ATOM     19  C   UNL     1      13.529   3.821   0.685  0.00  0.00    +0.038 C 
BRANCH  19  22
ATOM     22  C   UNL     1      13.305   3.647  -0.792  0.00  0.00    -0.047 A 
ATOM     28  C   UNL     1      12.372   2.719  -1.251  0.00  0.00    +0.003 A 
ATOM     29  C   UNL     1      14.032   4.414  -1.703  0.00  0.00    +0.003 A 
ATOM     30  C   UNL     1      12.164   2.556  -2.621  0.00  0.00    +0.000 A 
ATOM     31  C   UNL     1      13.825   4.251  -3.072  0.00  0.00    +0.000 A 
ATOM     32  C   UNL     1      12.891   3.323  -3.532  0.00  0.00    +0.000 A 
ENDBRANCH  19  22
ENDBRANCH  15  19
ENDBRANCH   8   5
BRANCH   9   3
ATOM      3  O   UNL     1       9.194   8.476   4.943  0.00  0.00    -0.388 OA
ATOM     34  H   UNL     1       9.416   9.315   5.382  0.00  0.00    +0.210 HD
ENDBRANCH   9   3
TORSDOF 6
ENDMDL
MODEL 10
REMARK VINA RESULT:      -6.1     26.039     29.879
REMARK  Name = 25314503
REMARK  6 active torsions:
REMARK  status: ('A' for Active; 'I' for Inactive)
REMARK    1  A    between atoms: O_3  and  C_9
REMARK    2  A    between atoms: N_5  and  C_8
REMARK    3  A    between atoms: N_6  and  C_10
REMARK    4  A    between atoms: N_7  and  C_21
REMARK    5  A    between atoms: C_15  and  C_19
REMARK    6  A    between atoms: C_19  and  C_22
REMARK                            x       y       z     vdW  Elec       q    Type
REMARK                         _______ _______ _______ _____ _____    ______ ____
ROOT
ATOM      1  O   UNL     1      -4.816 -10.337  17.995  0.00  0.00    -0.342 OA
ATOM      2  O   UNL     1      -4.279 -12.550  18.437  0.00  0.00    -0.347 OA
ATOM      8  C   UNL     1      -5.740 -12.052  16.574  0.00  0.00    +0.143 C 
ATOM      9  C   UNL     1      -6.980 -12.169  17.488  0.00  0.00    +0.159 C 
ATOM     10  C   UNL     1      -7.003 -11.129  18.630  0.00  0.00    +0.136 C 
ATOM     11  C   UNL     1      -4.512 -11.598  17.385  0.00  0.00    +0.270 C 
ATOM     12  C   UNL     1      -5.594 -10.740  19.125  0.00  0.00    +0.170 C 
ATOM     16  C   UNL     1      -4.769 -11.911  19.626  0.00  0.00    +0.196 C 
ENDROOT
BRANCH  10   6
ATOM      4  O   UNL     1      -9.842 -10.877  18.255  0.00  0.00    -0.253 OA
ATOM      6  N   UNL     1      -7.719  -9.944  18.211  0.00  0.00    -0.291 N 
ATOM      7  N   UNL     1      -9.535  -8.658  17.646  0.00  0.00    -0.297 N 
ATOM     20  C   UNL     1      -9.100  -9.916  18.056  0.00  0.00    +0.300 C 
ATOM     33  H   UNL     1      -7.183  -9.122  17.947  0.00  0.00    +0.151 HD
ATOM     35  H   UNL     1      -8.830  -7.957  17.440  0.00  0.00    +0.151 HD
BRANCH   7  21
ATOM     21  C   UNL     1     -10.925  -8.339  17.406  0.00  0.00    +0.074 C 
ATOM     23  C   UNL     1     -11.087  -6.881  16.967  0.00  0.00    +0.022 C 
ATOM     24  C   UNL     1     -11.541  -9.300  16.384  0.00  0.00    +0.022 C 
ATOM     25  C   UNL     1     -10.576  -6.637  15.547  0.00  0.00    +0.002 C 
ATOM     26  C   UNL     1     -11.029  -9.052  14.966  0.00  0.00    +0.002 C 
ATOM     27  C   UNL     1     -11.212  -7.597  14.547  0.00  0.00    +0.000 C 
ENDBRANCH   7  21
ENDBRANCH  10   6
BRANCH   8   5
ATOM      5  N   UNL     1      -5.999 -11.100  15.493  0.00  0.00    -0.293 NA
ATOM     13  C   UNL     1      -7.366 -11.265  14.980  0.00  0.00    +0.085 C 
ATOM     14  C   UNL     1      -5.009 -11.260  14.419  0.00  0.00    +0.085 C 
ATOM     15  C   UNL     1      -6.656 -10.328  12.741  0.00  0.00    -0.004 C 
ATOM     17  C   UNL     1      -7.672 -10.241  13.884  0.00  0.00    +0.019 C 
ATOM     18  C   UNL     1      -5.233 -10.236  13.305  0.00  0.00    +0.019 C 
BRANCH  15  19
ATOM     19  C   UNL     1      -6.905  -9.240  11.700  0.00  0.00    +0.038 C 
BRANCH  19  22
ATOM     22  C   UNL     1      -6.167  -9.519  10.420  0.00  0.00    -0.047 A 
ATOM     28  C   UNL     1      -6.530 -10.608   9.628  0.00  0.00    +0.003 A 
ATOM     29  C   UNL     1      -5.118  -8.688  10.024  0.00  0.00    +0.003 A 
ATOM     30  C   UNL     1      -5.845 -10.867   8.441  0.00  0.00    +0.000 A 
ATOM     31  C   UNL     1      -4.433  -8.948   8.837  0.00  0.00    +0.000 A 
ATOM     32  C   UNL     1      -4.797 -10.036   8.045  0.00  0.00    +0.000 A 
ENDBRANCH  19  22
ENDBRANCH  15  19
ENDBRANCH   8   5
BRANCH   9   3
ATOM      3  O   UNL     1      -6.979 -13.483  18.062  0.00  0.00    -0.388 OA
ATOM     34  H   UNL     1      -6.054 -13.777  18.123  0.00  0.00    +0.210 HD
ENDBRANCH   9   3
TORSDOF 6
ENDMDL
