REMARK  Name = 11885131
REMARK  4 active torsions:
REMARK  status: ('A' for Active; 'I' for Inactive)
REMARK    1  A    between atoms: O_3  and  C_30
REMARK    2  A    between atoms: O_3  and  C_31
REMARK    3  A    between atoms: N_6  and  C_15
REMARK    4  A    between atoms: C_22  and  C_25
REMARK                            x       y       z     vdW  Elec       q    Type
REMARK                         _______ _______ _______ _____ _____    ______ ____
ROOT
ATOM      1  O   UNL     1      -2.715   0.097   2.269  0.00  0.00    -0.253 OA
ATOM      2  O   UNL     1       1.565  -0.351  -1.956  0.00  0.00    -0.267 OA
ATOM      4  N   UNL     1      -2.753  -1.364   0.465  0.00  0.00    -0.285 N 
ATOM      5  N   UNL     1       0.206  -1.795  -0.729  0.00  0.00    -0.311 N 
ATOM      6  N   UNL     1      -3.325   0.918   0.216  0.00  0.00    -0.296 N 
ATOM      7  C   UNL     1      -2.054  -2.627  -1.591  0.00  0.00    +0.027 C 
ATOM      8  C   UNL     1      -1.251  -3.352   0.611  0.00  0.00    +0.054 C 
ATOM      9  C   UNL     1      -1.784  -3.851  -0.728  0.00  0.00    +0.018 C 
ATOM     10  C   UNL     1      -3.089  -1.697  -0.928  0.00  0.00    +0.114 C 
ATOM     11  C   UNL     1      -2.328  -2.496   1.298  0.00  0.00    +0.119 C 
ATOM     12  C   UNL     1      -0.726  -1.908  -1.858  0.00  0.00    +0.130 C 
ATOM     13  C   UNL     1       0.019  -2.541   0.437  0.00  0.00    +0.027 A 
ATOM     14  C   UNL     1      -2.915  -0.102   1.067  0.00  0.00    +0.302 C 
ATOM     16  C   UNL     1       0.947  -2.518   1.407  0.00  0.00    +0.022 A 
ATOM     17  C   UNL     1       1.347  -0.993  -0.927  0.00  0.00    +0.259 A 
ATOM     22  C   UNL     1       2.351  -0.957   0.194  0.00  0.00    +0.047 A 
ATOM     24  C   UNL     1       2.125  -1.708   1.282  0.00  0.00    +0.015 A 
ATOM     32  H   UNL     1      -3.630   0.716  -0.725  0.00  0.00    +0.151 HD
ENDROOT
BRANCH   6  15
ATOM     15  C   UNL     1      -3.542   2.269   0.684  0.00  0.00    +0.074 C 
ATOM     18  C   UNL     1      -3.204   3.290  -0.407  0.00  0.00    +0.022 C 
ATOM     19  C   UNL     1      -4.976   2.453   1.192  0.00  0.00    +0.022 C 
ATOM     20  C   UNL     1      -4.232   3.300  -1.538  0.00  0.00    +0.002 C 
ATOM     21  C   UNL     1      -6.001   2.463   0.058  0.00  0.00    +0.002 C 
ATOM     23  C   UNL     1      -5.650   3.495  -1.009  0.00  0.00    +0.000 C 
ENDBRANCH   6  15
BRANCH  22  25
ATOM     25  C   UNL     1       3.556  -0.114   0.113  0.00  0.00    -0.012 A 
ATOM     26  C   UNL     1       4.734  -0.628  -0.431  0.00  0.00    +0.012 A 
ATOM     27  C   UNL     1       3.521   1.201   0.581  0.00  0.00    +0.012 A 
ATOM     28  C   UNL     1       5.875   0.171  -0.506  0.00  0.00    +0.046 A 
ATOM     29  C   UNL     1       4.662   2.000   0.505  0.00  0.00    +0.046 A 
ATOM     30  C   UNL     1       5.839   1.485  -0.039  0.00  0.00    +0.120 A 
BRANCH  30   3
ATOM      3  O   UNL     1       6.952   2.264  -0.113  0.00  0.00    -0.495 OA
ATOM     31  C   UNL     1       6.846   3.597   0.384  0.00  0.00    +0.277 C 
ENDBRANCH  30   3
ENDBRANCH  22  25
TORSDOF 3
