REMARK  Name = 75368584
REMARK  6 active torsions:
REMARK  status: ('A' for Active; 'I' for Inactive)
REMARK    1  A    between atoms: N_4  and  C_13
REMARK    2  A    between atoms: N_5  and  C_14
REMARK    3  A    between atoms: N_6  and  C_23
REMARK    4  A    between atoms: C_13  and  C_15
REMARK    5  A    between atoms: C_14  and  C_16
REMARK    6  A    between atoms: C_27  and  C_28
REMARK                            x       y       z     vdW  Elec       q    Type
REMARK                         _______ _______ _______ _____ _____    ______ ____
ROOT
ATOM      1  O   UNL     1       4.017   2.554  -0.743  0.00  0.00    -0.252 OA
ATOM      3  N   UNL     1       1.785   1.875  -0.468  0.00  0.00    -0.278 N 
ATOM      4  N   UNL     1      -0.723   1.533   0.759  0.00  0.00    -0.295 NA
ATOM      5  N   UNL     1       3.244   0.408  -1.342  0.00  0.00    -0.279 N 
ATOM      7  C   UNL     1       0.976   0.731  -0.832  0.00  0.00    +0.109 C 
ATOM      8  C   UNL     1       0.045   0.350   0.319  0.00  0.00    +0.109 C 
ATOM      9  C   UNL     1       2.003  -0.336  -1.206  0.00  0.00    +0.133 C 
ATOM     10  C   UNL     1       1.147   3.038   0.114  0.00  0.00    +0.125 C 
ATOM     11  C   UNL     1       0.181   2.606   1.220  0.00  0.00    +0.104 C 
ATOM     12  C   UNL     1       3.127   1.721  -0.842  0.00  0.00    +0.305 C 
ENDROOT
BRANCH   4  13
ATOM     13  C   UNL     1      -1.660   1.165   1.820  0.00  0.00    +0.119 C 
BRANCH  13  15
ATOM     15  C   UNL     1      -2.870   0.460   1.281  0.00  0.00    -0.033 A 
ATOM     17  C   UNL     1      -3.000  -0.921   1.437  0.00  0.00    +0.007 A 
ATOM     18  C   UNL     1      -3.865   1.184   0.624  0.00  0.00    +0.007 A 
ATOM     21  C   UNL     1      -4.125  -1.576   0.936  0.00  0.00    +0.023 A 
ATOM     22  C   UNL     1      -4.990   0.528   0.123  0.00  0.00    +0.023 A 
ATOM     23  C   UNL     1      -5.120  -0.852   0.279  0.00  0.00    +0.033 A 
BRANCH  23   6
ATOM      2  O   UNL     1      -7.514   0.223  -1.197  0.00  0.00    -0.276 OA
ATOM      6  N   UNL     1      -6.244  -1.508  -0.222  0.00  0.00    -0.286 N 
ATOM     27  C   UNL     1      -7.337  -0.955  -0.904  0.00  0.00    +0.214 C 
ATOM     28  C   UNL     1      -8.351  -2.006  -1.280  0.00  0.00    +0.109 C 
ATOM     29  H   UNL     1      -6.264  -2.514  -0.068  0.00  0.00    +0.155 HD
ENDBRANCH  23   6
ENDBRANCH  13  15
ENDBRANCH   4  13
BRANCH   5  14
ATOM     14  C   UNL     1       4.465  -0.216  -1.800  0.00  0.00    +0.144 C 
BRANCH  14  16
ATOM     16  C   UNL     1       5.158  -0.968  -0.700  0.00  0.00    -0.030 A 
ATOM     19  C   UNL     1       6.098  -0.322   0.102  0.00  0.00    +0.005 A 
ATOM     20  C   UNL     1       4.861  -2.313  -0.481  0.00  0.00    +0.005 A 
ATOM     24  C   UNL     1       6.742  -1.021   1.124  0.00  0.00    +0.000 A 
ATOM     25  C   UNL     1       5.505  -3.013   0.540  0.00  0.00    +0.000 A 
ATOM     26  C   UNL     1       6.445  -2.366   1.343  0.00  0.00    +0.000 A 
ENDBRANCH  14  16
ENDBRANCH   5  14
TORSDOF 5
