MODEL 1
REMARK VINA RESULT:      -6.9      0.000      0.000
REMARK  Name = 7674734
REMARK  5 active torsions:
REMARK  status: ('A' for Active; 'I' for Inactive)
REMARK    1  A    between atoms: S_1  and  N_10
REMARK    2  A    between atoms: S_1  and  C_23
REMARK    3  A    between atoms: O_9  and  C_32
REMARK    4  A    between atoms: O_9  and  C_33
REMARK    5  A    between atoms: C_21  and  C_24
REMARK                            x       y       z     vdW  Elec       q    Type
REMARK                         _______ _______ _______ _____ _____    ______ ____
ROOT
ATOM      8  O   UNL     1      10.937   3.938   3.290  0.00  0.00    -0.267 OA
ATOM     10  N   UNL     1      13.564   5.872  -0.480  0.00  0.00    -0.175 NA
ATOM     11  N   UNL     1      11.048   5.088   1.265  0.00  0.00    -0.311 N 
ATOM     12  C   UNL     1      11.941   4.017  -0.884  0.00  0.00    +0.025 C 
ATOM     13  C   UNL     1      11.163   6.346  -0.914  0.00  0.00    +0.052 C 
ATOM     14  C   UNL     1      11.003   4.987  -1.589  0.00  0.00    +0.017 C 
ATOM     15  C   UNL     1      13.399   4.488  -1.011  0.00  0.00    +0.114 C 
ATOM     16  C   UNL     1      12.609   6.842  -1.093  0.00  0.00    +0.119 C 
ATOM     17  C   UNL     1      11.498   3.871   0.577  0.00  0.00    +0.130 C 
ATOM     18  C   UNL     1      10.808   6.270   0.559  0.00  0.00    +0.026 A 
ATOM     19  C   UNL     1      10.287   7.335   1.187  0.00  0.00    +0.022 A 
ATOM     20  C   UNL     1      10.772   4.973   2.641  0.00  0.00    +0.259 A 
ATOM     21  C   UNL     1      10.223   6.195   3.326  0.00  0.00    +0.047 A 
ATOM     22  C   UNL     1       9.998   7.296   2.592  0.00  0.00    +0.015 A 
ENDROOT
BRANCH  21  24
ATOM     24  C   UNL     1       9.943   6.199   4.772  0.00  0.00    -0.012 A 
ATOM     26  C   UNL     1       8.626   6.254   5.229  0.00  0.00    +0.012 A 
ATOM     27  C   UNL     1      10.995   6.150   5.687  0.00  0.00    +0.012 A 
ATOM     30  C   UNL     1       8.360   6.259   6.597  0.00  0.00    +0.046 A 
ATOM     31  C   UNL     1      10.730   6.154   7.057  0.00  0.00    +0.046 A 
ATOM     32  C   UNL     1       9.413   6.209   7.512  0.00  0.00    +0.130 A 
BRANCH  32   9
ATOM      9  O   UNL     1       9.154   6.214   8.848  0.00  0.00    -0.406 OA
BRANCH   9  33
ATOM      3  F   UNL     1       9.293   3.934   8.718  0.00  0.00    -0.133 F 
ATOM      4  F   UNL     1       8.201   4.852  10.375  0.00  0.00    -0.133 F 
ATOM      5  F   UNL     1      10.381   4.981  10.332  0.00  0.00    -0.133 F 
ATOM     33  C   UNL     1       9.273   4.988   9.562  0.00  0.00    +0.575 C 
ENDBRANCH   9  33
ENDBRANCH  32   9
ENDBRANCH  21  24
BRANCH  10   1
ATOM      1  S   UNL     1      15.178   6.419  -0.326  0.00  0.00    +0.067 S 
ATOM      6  O   UNL     1      15.355   7.605  -1.137  0.00  0.00    -0.152 OA
ATOM      7  O   UNL     1      16.073   5.288  -0.456  0.00  0.00    -0.152 OA
BRANCH   1  23
ATOM      2  S   UNL     1      16.504   7.891   1.823  0.00  0.00    -0.077 S 
ATOM     23  C   UNL     1      15.175   6.918   1.367  0.00  0.00    +0.143 A 
ATOM     25  C   UNL     1      14.312   6.684   2.409  0.00  0.00    +0.036 A 
ATOM     28  C   UNL     1      14.749   7.315   3.609  0.00  0.00    +0.010 A 
ATOM     29  C   UNL     1      15.929   8.005   3.432  0.00  0.00    +0.047 A 
ENDBRANCH   1  23
ENDBRANCH  10   1
TORSDOF 5
ENDMDL
MODEL 2
REMARK VINA RESULT:      -6.8      3.171      5.029
REMARK  Name = 7674734
REMARK  5 active torsions:
REMARK  status: ('A' for Active; 'I' for Inactive)
REMARK    1  A    between atoms: S_1  and  N_10
REMARK    2  A    between atoms: S_1  and  C_23
REMARK    3  A    between atoms: O_9  and  C_32
REMARK    4  A    between atoms: O_9  and  C_33
REMARK    5  A    between atoms: C_21  and  C_24
REMARK                            x       y       z     vdW  Elec       q    Type
REMARK                         _______ _______ _______ _____ _____    ______ ____
ROOT
ATOM      8  O   UNL     1      11.573   6.958   1.210  0.00  0.00    -0.267 OA
ATOM     10  N   UNL     1      11.701   4.074  -2.854  0.00  0.00    -0.175 NA
ATOM     11  N   UNL     1      12.660   5.414  -0.158  0.00  0.00    -0.311 N 
ATOM     12  C   UNL     1      13.334   5.942  -2.572  0.00  0.00    +0.025 C 
ATOM     13  C   UNL     1      13.833   3.734  -1.622  0.00  0.00    +0.052 C 
ATOM     14  C   UNL     1      14.450   4.935  -2.332  0.00  0.00    +0.017 C 
ATOM     15  C   UNL     1      12.235   5.329  -3.456  0.00  0.00    +0.114 C 
ATOM     16  C   UNL     1      12.774   3.087  -2.532  0.00  0.00    +0.119 C 
ATOM     17  C   UNL     1      12.797   6.422  -1.218  0.00  0.00    +0.130 C 
ATOM     18  C   UNL     1      13.214   4.139  -0.297  0.00  0.00    +0.026 A 
ATOM     19  C   UNL     1      13.180   3.274   0.728  0.00  0.00    +0.022 A 
ATOM     20  C   UNL     1      12.041   5.832   1.037  0.00  0.00    +0.259 A 
ATOM     21  C   UNL     1      11.985   4.828   2.156  0.00  0.00    +0.047 A 
ATOM     22  C   UNL     1      12.550   3.625   1.969  0.00  0.00    +0.015 A 
ENDROOT
BRANCH  21  24
ATOM     24  C   UNL     1      11.320   5.143   3.432  0.00  0.00    -0.012 A 
ATOM     26  C   UNL     1      11.775   6.206   4.213  0.00  0.00    +0.012 A 
ATOM     27  C   UNL     1      10.235   4.377   3.861  0.00  0.00    +0.012 A 
ATOM     30  C   UNL     1      11.146   6.503   5.422  0.00  0.00    +0.046 A 
ATOM     31  C   UNL     1       9.606   4.676   5.070  0.00  0.00    +0.046 A 
ATOM     32  C   UNL     1      10.060   5.738   5.850  0.00  0.00    +0.130 A 
BRANCH  32   9
ATOM      9  O   UNL     1       9.447   6.029   7.030  0.00  0.00    -0.406 OA
BRANCH   9  33
ATOM      3  F   UNL     1       9.834   4.019   8.052  0.00  0.00    -0.133 F 
ATOM      4  F   UNL     1       9.083   5.699   9.233  0.00  0.00    -0.133 F 
ATOM      5  F   UNL     1      11.150   5.730   8.526  0.00  0.00    -0.133 F 
ATOM     33  C   UNL     1       9.893   5.360   8.204  0.00  0.00    +0.575 C 
ENDBRANCH   9  33
ENDBRANCH  32   9
ENDBRANCH  21  24
BRANCH  10   1
ATOM      1  S   UNL     1      10.303   3.430  -3.602  0.00  0.00    +0.067 S 
ATOM      6  O   UNL     1       9.832   2.299  -2.830  0.00  0.00    -0.152 OA
ATOM      7  O   UNL     1      10.542   3.312  -5.025  0.00  0.00    -0.152 OA
BRANCH   1  23
ATOM      2  S   UNL     1       8.213   5.148  -4.708  0.00  0.00    -0.077 S 
ATOM     23  C   UNL     1       9.175   4.764  -3.349  0.00  0.00    +0.143 A 
ATOM     25  C   UNL     1       8.906   5.569  -2.270  0.00  0.00    +0.036 A 
ATOM     28  C   UNL     1       7.889   6.523  -2.562  0.00  0.00    +0.010 A 
ATOM     29  C   UNL     1       7.424   6.405  -3.853  0.00  0.00    +0.047 A 
ENDBRANCH   1  23
ENDBRANCH  10   1
TORSDOF 5
ENDMDL
MODEL 3
REMARK VINA RESULT:      -6.8     27.137     30.413
REMARK  Name = 7674734
REMARK  5 active torsions:
REMARK  status: ('A' for Active; 'I' for Inactive)
REMARK    1  A    between atoms: S_1  and  N_10
REMARK    2  A    between atoms: S_1  and  C_23
REMARK    3  A    between atoms: O_9  and  C_32
REMARK    4  A    between atoms: O_9  and  C_33
REMARK    5  A    between atoms: C_21  and  C_24
REMARK                            x       y       z     vdW  Elec       q    Type
REMARK                         _______ _______ _______ _____ _____    ______ ____
ROOT
ATOM      8  O   UNL     1     -14.864   9.337  20.013  0.00  0.00    -0.267 OA
ATOM     10  N   UNL     1     -11.428   9.565  16.409  0.00  0.00    -0.175 NA
ATOM     11  N   UNL     1     -12.641   9.489  19.325  0.00  0.00    -0.311 N 
ATOM     12  C   UNL     1     -11.744  11.477  17.982  0.00  0.00    +0.025 C 
ATOM     13  C   UNL     1     -10.237   9.636  18.589  0.00  0.00    +0.052 C 
ATOM     14  C   UNL     1     -10.417  11.150  18.653  0.00  0.00    +0.017 C 
ATOM     15  C   UNL     1     -11.736  11.020  16.514  0.00  0.00    +0.114 C 
ATOM     16  C   UNL     1     -10.170   9.187  17.119  0.00  0.00    +0.119 C 
ATOM     17  C   UNL     1     -12.880  10.836  18.789  0.00  0.00    +0.130 C 
ATOM     18  C   UNL     1     -11.365   8.921  19.309  0.00  0.00    +0.026 A 
ATOM     19  C   UNL     1     -11.146   7.740  19.909  0.00  0.00    +0.022 A 
ATOM     20  C   UNL     1     -13.733   8.852  19.948  0.00  0.00    +0.259 A 
ATOM     21  C   UNL     1     -13.465   7.513  20.579  0.00  0.00    +0.047 A 
ATOM     22  C   UNL     1     -12.214   7.026  20.546  0.00  0.00    +0.015 A 
ENDROOT
BRANCH  21  24
ATOM     24  C   UNL     1     -14.544   6.739  21.216  0.00  0.00    -0.012 A 
ATOM     26  C   UNL     1     -14.625   6.665  22.606  0.00  0.00    +0.012 A 
ATOM     27  C   UNL     1     -15.487   6.077  20.428  0.00  0.00    +0.012 A 
ATOM     30  C   UNL     1     -15.646   5.932  23.209  0.00  0.00    +0.046 A 
ATOM     31  C   UNL     1     -16.509   5.344  21.031  0.00  0.00    +0.046 A 
ATOM     32  C   UNL     1     -16.589   5.271  22.420  0.00  0.00    +0.130 A 
BRANCH  32   9
ATOM      9  O   UNL     1     -17.586   4.555  23.009  0.00  0.00    -0.406 OA
BRANCH   9  33
ATOM      3  F   UNL     1     -16.118   2.826  23.302  0.00  0.00    -0.133 F 
ATOM      4  F   UNL     1     -17.856   2.551  22.006  0.00  0.00    -0.133 F 
ATOM      5  F   UNL     1     -18.145   2.664  24.168  0.00  0.00    -0.133 F 
ATOM     33  C   UNL     1     -17.419   3.147  23.138  0.00  0.00    +0.575 C 
ENDBRANCH   9  33
ENDBRANCH  32   9
ENDBRANCH  21  24
BRANCH  10   1
ATOM      1  S   UNL     1     -11.638   8.875  14.857  0.00  0.00    +0.067 S 
ATOM      6  O   UNL     1     -10.722   7.763  14.705  0.00  0.00    -0.152 OA
ATOM      7  O   UNL     1     -11.690   9.935  13.873  0.00  0.00    -0.152 OA
BRANCH   1  23
ATOM      2  S   UNL     1     -13.863   7.423  13.637  0.00  0.00    -0.077 S 
ATOM     23  C   UNL     1     -13.265   8.213  15.030  0.00  0.00    +0.143 A 
ATOM     25  C   UNL     1     -14.164   8.201  16.068  0.00  0.00    +0.036 A 
ATOM     28  C   UNL     1     -15.370   7.530  15.715  0.00  0.00    +0.010 A 
ATOM     29  C   UNL     1     -15.341   7.058  14.421  0.00  0.00    +0.047 A 
ENDBRANCH   1  23
ENDBRANCH  10   1
TORSDOF 5
ENDMDL
MODEL 4
REMARK VINA RESULT:      -6.7     25.220     28.204
REMARK  Name = 7674734
REMARK  5 active torsions:
REMARK  status: ('A' for Active; 'I' for Inactive)
REMARK    1  A    between atoms: S_1  and  N_10
REMARK    2  A    between atoms: S_1  and  C_23
REMARK    3  A    between atoms: O_9  and  C_32
REMARK    4  A    between atoms: O_9  and  C_33
REMARK    5  A    between atoms: C_21  and  C_24
REMARK                            x       y       z     vdW  Elec       q    Type
REMARK                         _______ _______ _______ _____ _____    ______ ____
ROOT
ATOM      8  O   UNL     1      -6.802 -10.377  13.978  0.00  0.00    -0.267 OA
ATOM     10  N   UNL     1      -2.576 -12.966  13.443  0.00  0.00    -0.175 NA
ATOM     11  N   UNL     1      -4.493 -10.582  14.234  0.00  0.00    -0.311 N 
ATOM     12  C   UNL     1      -2.899 -10.801  12.241  0.00  0.00    +0.025 C 
ATOM     13  C   UNL     1      -2.002 -10.804  14.527  0.00  0.00    +0.052 C 
ATOM     14  C   UNL     1      -1.884 -10.135  13.161  0.00  0.00    +0.017 C 
ATOM     15  C   UNL     1      -2.602 -12.304  12.107  0.00  0.00    +0.114 C 
ATOM     16  C   UNL     1      -1.648 -12.296  14.402  0.00  0.00    +0.119 C 
ATOM     17  C   UNL     1      -4.309 -10.528  12.777  0.00  0.00    +0.130 C 
ATOM     18  C   UNL     1      -3.398 -10.639  15.099  0.00  0.00    +0.026 A 
ATOM     19  C   UNL     1      -3.583 -10.568  16.426  0.00  0.00    +0.022 A 
ATOM     20  C   UNL     1      -5.815 -10.465  14.710  0.00  0.00    +0.259 A 
ATOM     21  C   UNL     1      -5.994 -10.426  16.203  0.00  0.00    +0.047 A 
ATOM     22  C   UNL     1      -4.902 -10.467  16.983  0.00  0.00    +0.015 A 
ENDROOT
BRANCH  21  24
ATOM     24  C   UNL     1      -7.334 -10.352  16.809  0.00  0.00    -0.012 A 
ATOM     26  C   UNL     1      -7.935  -9.112  17.029  0.00  0.00    +0.012 A 
ATOM     27  C   UNL     1      -8.004 -11.523  17.166  0.00  0.00    +0.012 A 
ATOM     30  C   UNL     1      -9.203  -9.042  17.604  0.00  0.00    +0.046 A 
ATOM     31  C   UNL     1      -9.274 -11.453  17.741  0.00  0.00    +0.046 A 
ATOM     32  C   UNL     1      -9.873 -10.214  17.960  0.00  0.00    +0.130 A 
BRANCH  32   9
ATOM      9  O   UNL     1     -11.111 -10.145  18.521  0.00  0.00    -0.406 OA
BRANCH   9  33
ATOM      3  F   UNL     1     -10.044 -10.213  20.543  0.00  0.00    -0.133 F 
ATOM      4  F   UNL     1     -11.631 -11.654  20.117  0.00  0.00    -0.133 F 
ATOM      5  F   UNL     1     -12.155  -9.563  20.471  0.00  0.00    -0.133 F 
ATOM     33  C   UNL     1     -11.230 -10.378  19.921  0.00  0.00    +0.575 C 
ENDBRANCH   9  33
ENDBRANCH  32   9
ENDBRANCH  21  24
BRANCH  10   1
ATOM      1  S   UNL     1      -2.511 -14.676  13.421  0.00  0.00    +0.067 S 
ATOM      6  O   UNL     1      -1.156 -15.101  13.705  0.00  0.00    -0.152 OA
ATOM      7  O   UNL     1      -3.213 -15.159  12.251  0.00  0.00    -0.152 OA
BRANCH   1  23
ATOM      2  S   UNL     1      -3.161 -16.549  15.569  0.00  0.00    -0.077 S 
ATOM     23  C   UNL     1      -3.499 -15.042  14.837  0.00  0.00    +0.143 A 
ATOM     25  C   UNL     1      -4.498 -14.356  15.483  0.00  0.00    +0.036 A 
ATOM     28  C   UNL     1      -4.999 -15.080  16.602  0.00  0.00    +0.010 A 
ATOM     29  C   UNL     1      -4.360 -16.290  16.764  0.00  0.00    +0.047 A 
ENDBRANCH   1  23
ENDBRANCH  10   1
TORSDOF 5
ENDMDL
MODEL 5
REMARK VINA RESULT:      -6.5     18.013     21.562
REMARK  Name = 7674734
REMARK  5 active torsions:
REMARK  status: ('A' for Active; 'I' for Inactive)
REMARK    1  A    between atoms: S_1  and  N_10
REMARK    2  A    between atoms: S_1  and  C_23
REMARK    3  A    between atoms: O_9  and  C_32
REMARK    4  A    between atoms: O_9  and  C_33
REMARK    5  A    between atoms: C_21  and  C_24
REMARK                            x       y       z     vdW  Elec       q    Type
REMARK                         _______ _______ _______ _____ _____    ______ ____
ROOT
ATOM      8  O   UNL     1      20.270   3.722  20.645  0.00  0.00    -0.267 OA
ATOM     10  N   UNL     1      24.204   4.832  23.500  0.00  0.00    -0.175 NA
ATOM     11  N   UNL     1      22.342   4.749  20.948  0.00  0.00    -0.311 N 
ATOM     12  C   UNL     1      24.477   3.428  21.453  0.00  0.00    +0.025 C 
ATOM     13  C   UNL     1      24.571   5.875  21.274  0.00  0.00    +0.052 C 
ATOM     14  C   UNL     1      25.186   4.579  20.753  0.00  0.00    +0.017 C 
ATOM     15  C   UNL     1      24.673   3.517  22.975  0.00  0.00    +0.114 C 
ATOM     16  C   UNL     1      24.820   5.991  22.788  0.00  0.00    +0.119 C 
ATOM     17  C   UNL     1      22.997   3.439  21.052  0.00  0.00    +0.130 C 
ATOM     18  C   UNL     1      23.084   5.933  20.977  0.00  0.00    +0.026 A 
ATOM     19  C   UNL     1      22.480   7.112  20.763  0.00  0.00    +0.022 A 
ATOM     20  C   UNL     1      20.952   4.746  20.712  0.00  0.00    +0.259 A 
ATOM     21  C   UNL     1      20.298   6.086  20.513  0.00  0.00    +0.047 A 
ATOM     22  C   UNL     1      21.066   7.186  20.535  0.00  0.00    +0.015 A 
ENDROOT
BRANCH  21  24
ATOM     24  C   UNL     1      18.844   6.202  20.306  0.00  0.00    -0.012 A 
ATOM     26  C   UNL     1      18.043   6.793  21.284  0.00  0.00    +0.012 A 
ATOM     27  C   UNL     1      18.265   5.720  19.132  0.00  0.00    +0.012 A 
ATOM     30  C   UNL     1      16.667   6.901  21.090  0.00  0.00    +0.046 A 
ATOM     31  C   UNL     1      16.888   5.829  18.936  0.00  0.00    +0.046 A 
ATOM     32  C   UNL     1      16.089   6.420  19.914  0.00  0.00    +0.130 A 
BRANCH  32   9
ATOM      9  O   UNL     1      14.746   6.526  19.724  0.00  0.00    -0.406 OA
BRANCH   9  33
ATOM      3  F   UNL     1      12.996   7.923  19.257  0.00  0.00    -0.133 F 
ATOM      4  F   UNL     1      14.260   7.202  17.626  0.00  0.00    -0.133 F 
ATOM      5  F   UNL     1      15.059   8.680  19.023  0.00  0.00    -0.133 F 
ATOM     33  C   UNL     1      14.261   7.596  18.919  0.00  0.00    +0.575 C 
ENDBRANCH   9  33
ENDBRANCH  32   9
ENDBRANCH  21  24
BRANCH  10   1
ATOM      1  S   UNL     1      24.128   4.965  25.204  0.00  0.00    +0.067 S 
ATOM      6  O   UNL     1      25.189   5.840  25.658  0.00  0.00    -0.152 OA
ATOM      7  O   UNL     1      23.959   3.644  25.773  0.00  0.00    -0.152 OA
BRANCH   1  23
ATOM      2  S   UNL     1      22.013   5.920  26.982  0.00  0.00    -0.077 S 
ATOM     23  C   UNL     1      22.601   5.831  25.379  0.00  0.00    +0.143 A 
ATOM     25  C   UNL     1      21.773   6.460  24.481  0.00  0.00    +0.036 A 
ATOM     28  C   UNL     1      20.633   7.026  25.119  0.00  0.00    +0.010 A 
ATOM     29  C   UNL     1      20.637   6.806  26.479  0.00  0.00    +0.047 A 
ENDBRANCH   1  23
ENDBRANCH  10   1
TORSDOF 5
ENDMDL
MODEL 6
REMARK VINA RESULT:      -6.4     16.180     19.673
REMARK  Name = 7674734
REMARK  5 active torsions:
REMARK  status: ('A' for Active; 'I' for Inactive)
REMARK    1  A    between atoms: S_1  and  N_10
REMARK    2  A    between atoms: S_1  and  C_23
REMARK    3  A    between atoms: O_9  and  C_32
REMARK    4  A    between atoms: O_9  and  C_33
REMARK    5  A    between atoms: C_21  and  C_24
REMARK                            x       y       z     vdW  Elec       q    Type
REMARK                         _______ _______ _______ _____ _____    ______ ____
ROOT
ATOM      8  O   UNL     1      15.235   9.587  22.657  0.00  0.00    -0.267 OA
ATOM     10  N   UNL     1      12.239   8.102  18.959  0.00  0.00    -0.175 NA
ATOM     11  N   UNL     1      13.115   9.054  21.842  0.00  0.00    -0.311 N 
ATOM     12  C   UNL     1      12.504   6.709  21.014  0.00  0.00    +0.025 C 
ATOM     13  C   UNL     1      10.822   8.497  20.963  0.00  0.00    +0.052 C 
ATOM     14  C   UNL     1      11.092   7.077  21.450  0.00  0.00    +0.017 C 
ATOM     15  C   UNL     1      12.627   6.761  19.483  0.00  0.00    +0.114 C 
ATOM     16  C   UNL     1      10.888   8.535  19.426  0.00  0.00    +0.119 C 
ATOM     17  C   UNL     1      13.499   7.642  21.714  0.00  0.00    +0.130 C 
ATOM     18  C   UNL     1      11.814   9.478  21.558  0.00  0.00    +0.026 A 
ATOM     19  C   UNL     1      11.454  10.749  21.794  0.00  0.00    +0.022 A 
ATOM     20  C   UNL     1      14.089   9.930  22.362  0.00  0.00    +0.259 A 
ATOM     21  C   UNL     1      13.665  11.358  22.580  0.00  0.00    +0.047 A 
ATOM     22  C   UNL     1      12.397  11.701  22.306  0.00  0.00    +0.015 A 
ENDROOT
BRANCH  21  24
ATOM     24  C   UNL     1      14.615  12.368  23.076  0.00  0.00    -0.012 A 
ATOM     26  C   UNL     1      15.369  13.121  22.175  0.00  0.00    +0.012 A 
ATOM     27  C   UNL     1      14.764  12.573  24.449  0.00  0.00    +0.012 A 
ATOM     30  C   UNL     1      16.269  14.077  22.645  0.00  0.00    +0.046 A 
ATOM     31  C   UNL     1      15.664  13.530  24.918  0.00  0.00    +0.046 A 
ATOM     32  C   UNL     1      16.416  14.281  24.017  0.00  0.00    +0.130 A 
BRANCH  32   9
ATOM      9  O   UNL     1      17.295  15.214  24.476  0.00  0.00    -0.406 OA
BRANCH   9  33
ATOM      3  F   UNL     1      19.305  15.484  25.535  0.00  0.00    -0.133 F 
ATOM      4  F   UNL     1      19.253  15.315  23.356  0.00  0.00    -0.133 F 
ATOM      5  F   UNL     1      18.855  13.545  24.574  0.00  0.00    -0.133 F 
ATOM     33  C   UNL     1      18.679  14.881  24.501  0.00  0.00    +0.575 C 
ENDBRANCH   9  33
ENDBRANCH  32   9
ENDBRANCH  21  24
BRANCH  10   1
ATOM      1  S   UNL     1      12.573   8.375  17.303  0.00  0.00    +0.067 S 
ATOM      6  O   UNL     1      11.323   8.469  16.577  0.00  0.00    -0.152 OA
ATOM      7  O   UNL     1      13.615   7.465  16.876  0.00  0.00    -0.152 OA
BRANCH   1  23
ATOM      2  S   UNL     1      13.987  10.540  15.939  0.00  0.00    -0.077 S 
ATOM     23  C   UNL     1      13.269   9.995  17.392  0.00  0.00    +0.143 A 
ATOM     25  C   UNL     1      13.353  10.923  18.400  0.00  0.00    +0.036 A 
ATOM     28  C   UNL     1      14.022  12.107  17.976  0.00  0.00    +0.010 A 
ATOM     29  C   UNL     1      14.420  12.033  16.659  0.00  0.00    +0.047 A 
ENDBRANCH   1  23
ENDBRANCH  10   1
TORSDOF 5
ENDMDL
MODEL 7
REMARK VINA RESULT:      -6.4     25.343     28.617
REMARK  Name = 7674734
REMARK  5 active torsions:
REMARK  status: ('A' for Active; 'I' for Inactive)
REMARK    1  A    between atoms: S_1  and  N_10
REMARK    2  A    between atoms: S_1  and  C_23
REMARK    3  A    between atoms: O_9  and  C_32
REMARK    4  A    between atoms: O_9  and  C_33
REMARK    5  A    between atoms: C_21  and  C_24
REMARK                            x       y       z     vdW  Elec       q    Type
REMARK                         _______ _______ _______ _____ _____    ______ ____
ROOT
ATOM      8  O   UNL     1      -7.884  -8.975  17.271  0.00  0.00    -0.267 OA
ATOM     10  N   UNL     1      -4.002 -11.719  15.769  0.00  0.00    -0.175 NA
ATOM     11  N   UNL     1      -6.732 -11.001  17.188  0.00  0.00    -0.311 N 
ATOM     12  C   UNL     1      -4.399 -11.305  18.200  0.00  0.00    +0.025 C 
ATOM     13  C   UNL     1      -5.503 -13.197  17.089  0.00  0.00    +0.052 C 
ATOM     14  C   UNL     1      -4.821 -12.757  18.381  0.00  0.00    +0.017 C 
ATOM     15  C   UNL     1      -3.414 -11.172  17.026  0.00  0.00    +0.114 C 
ATOM     16  C   UNL     1      -4.498 -13.118  15.925  0.00  0.00    +0.119 C 
ATOM     17  C   UNL     1      -5.653 -10.443  18.013  0.00  0.00    +0.130 C 
ATOM     18  C   UNL     1      -6.721 -12.342  16.794  0.00  0.00    +0.026 A 
ATOM     19  C   UNL     1      -7.772 -12.861  16.141  0.00  0.00    +0.022 A 
ATOM     20  C   UNL     1      -7.821 -10.151  16.910  0.00  0.00    +0.259 A 
ATOM     21  C   UNL     1      -8.969 -10.752  16.144  0.00  0.00    +0.047 A 
ATOM     22  C   UNL     1      -8.908 -12.050  15.808  0.00  0.00    +0.015 A 
ENDROOT
BRANCH  21  24
ATOM     24  C   UNL     1     -10.137  -9.942  15.759  0.00  0.00    -0.012 A 
ATOM     26  C   UNL     1     -11.247  -9.871  16.601  0.00  0.00    +0.012 A 
ATOM     27  C   UNL     1     -10.135  -9.244  14.550  0.00  0.00    +0.012 A 
ATOM     30  C   UNL     1     -12.354  -9.105  16.236  0.00  0.00    +0.046 A 
ATOM     31  C   UNL     1     -11.242  -8.477  14.185  0.00  0.00    +0.046 A 
ATOM     32  C   UNL     1     -12.350  -8.407  15.027  0.00  0.00    +0.130 A 
BRANCH  32   9
ATOM      9  O   UNL     1     -13.431  -7.659  14.671  0.00  0.00    -0.406 OA
BRANCH   9  33
ATOM      3  F   UNL     1     -14.518  -6.534  16.339  0.00  0.00    -0.133 F 
ATOM      4  F   UNL     1     -14.136  -5.528  14.436  0.00  0.00    -0.133 F 
ATOM      5  F   UNL     1     -12.468  -5.915  15.793  0.00  0.00    -0.133 F 
ATOM     33  C   UNL     1     -13.632  -6.412  15.327  0.00  0.00    +0.575 C 
ENDBRANCH   9  33
ENDBRANCH  32   9
ENDBRANCH  21  24
BRANCH  10   1
ATOM      1  S   UNL     1      -3.116 -11.402  14.339  0.00  0.00    +0.067 S 
ATOM      6  O   UNL     1      -2.841 -12.655  13.666  0.00  0.00    -0.152 OA
ATOM      7  O   UNL     1      -2.051 -10.470  14.642  0.00  0.00    -0.152 OA
BRANCH   1  23
ATOM      2  S   UNL     1      -3.886 -10.195  11.791  0.00  0.00    -0.077 S 
ATOM     23  C   UNL     1      -4.340 -10.543  13.402  0.00  0.00    +0.143 A 
ATOM     25  C   UNL     1      -5.601 -10.090  13.702  0.00  0.00    +0.036 A 
ATOM     28  C   UNL     1      -6.209  -9.442  12.589  0.00  0.00    +0.010 A 
ATOM     29  C   UNL     1      -5.386  -9.429  11.484  0.00  0.00    +0.047 A 
ENDBRANCH   1  23
ENDBRANCH  10   1
TORSDOF 5
ENDMDL
MODEL 8
REMARK VINA RESULT:      -6.3     15.736     18.318
REMARK  Name = 7674734
REMARK  5 active torsions:
REMARK  status: ('A' for Active; 'I' for Inactive)
REMARK    1  A    between atoms: S_1  and  N_10
REMARK    2  A    between atoms: S_1  and  C_23
REMARK    3  A    between atoms: O_9  and  C_32
REMARK    4  A    between atoms: O_9  and  C_33
REMARK    5  A    between atoms: C_21  and  C_24
REMARK                            x       y       z     vdW  Elec       q    Type
REMARK                         _______ _______ _______ _____ _____    ______ ____
ROOT
ATOM      8  O   UNL     1      -6.618   9.545   5.398  0.00  0.00    -0.267 OA
ATOM     10  N   UNL     1      -1.947  10.513   3.950  0.00  0.00    -0.175 NA
ATOM     11  N   UNL     1      -4.315   9.250   5.618  0.00  0.00    -0.311 N 
ATOM     12  C   UNL     1      -2.730  11.166   6.229  0.00  0.00    +0.025 C 
ATOM     13  C   UNL     1      -1.830   8.914   5.849  0.00  0.00    +0.052 C 
ATOM     14  C   UNL     1      -1.870  10.071   6.843  0.00  0.00    +0.017 C 
ATOM     15  C   UNL     1      -2.125  11.648   4.900  0.00  0.00    +0.114 C 
ATOM     16  C   UNL     1      -1.171   9.382   4.539  0.00  0.00    +0.119 C 
ATOM     17  C   UNL     1      -4.161  10.641   6.065  0.00  0.00    +0.130 C 
ATOM     18  C   UNL     1      -3.224   8.379   5.577  0.00  0.00    +0.026 A 
ATOM     19  C   UNL     1      -3.407   7.083   5.278  0.00  0.00    +0.022 A 
ATOM     20  C   UNL     1      -5.627   8.816   5.339  0.00  0.00    +0.259 A 
ATOM     21  C   UNL     1      -5.795   7.367   4.971  0.00  0.00    +0.047 A 
ATOM     22  C   UNL     1      -4.712   6.575   4.965  0.00  0.00    +0.015 A 
ENDROOT
BRANCH  21  24
ATOM     24  C   UNL     1      -7.115   6.818   4.615  0.00  0.00    -0.012 A 
ATOM     26  C   UNL     1      -7.827   7.351   3.540  0.00  0.00    +0.012 A 
ATOM     27  C   UNL     1      -7.656   5.765   5.355  0.00  0.00    +0.012 A 
ATOM     30  C   UNL     1      -9.077   6.832   3.204  0.00  0.00    +0.046 A 
ATOM     31  C   UNL     1      -8.906   5.246   5.018  0.00  0.00    +0.046 A 
ATOM     32  C   UNL     1      -9.617   5.779   3.944  0.00  0.00    +0.130 A 
BRANCH  32   9
ATOM      9  O   UNL     1     -10.837   5.272   3.615  0.00  0.00    -0.406 OA
BRANCH   9  33
ATOM      3  F   UNL     1     -11.713   6.622   5.241  0.00  0.00    -0.133 F 
ATOM      4  F   UNL     1     -12.048   4.464   5.340  0.00  0.00    -0.133 F 
ATOM      5  F   UNL     1     -13.085   5.637   3.817  0.00  0.00    -0.133 F 
ATOM     33  C   UNL     1     -11.927   5.515   4.498  0.00  0.00    +0.575 C 
ENDBRANCH   9  33
ENDBRANCH  32   9
ENDBRANCH  21  24
BRANCH  10   1
ATOM      1  S   UNL     1      -1.524  10.947   2.349  0.00  0.00    +0.067 S 
ATOM      6  O   UNL     1      -0.605   9.962   1.820  0.00  0.00    -0.152 OA
ATOM      7  O   UNL     1      -1.205  12.359   2.313  0.00  0.00    -0.152 OA
BRANCH   1  23
ATOM      2  S   UNL     1      -3.165  11.370  -0.033  0.00  0.00    -0.077 S 
ATOM     23  C   UNL     1      -3.079  10.721   1.546  0.00  0.00    +0.143 A 
ATOM     25  C   UNL     1      -4.253  10.122   1.932  0.00  0.00    +0.036 A 
ATOM     28  C   UNL     1      -5.245  10.196   0.913  0.00  0.00    +0.010 A 
ATOM     29  C   UNL     1      -4.787  10.849  -0.210  0.00  0.00    +0.047 A 
ENDBRANCH   1  23
ENDBRANCH  10   1
TORSDOF 5
ENDMDL
MODEL 9
REMARK VINA RESULT:      -6.3     33.127     35.066
REMARK  Name = 7674734
REMARK  5 active torsions:
REMARK  status: ('A' for Active; 'I' for Inactive)
REMARK    1  A    between atoms: S_1  and  N_10
REMARK    2  A    between atoms: S_1  and  C_23
REMARK    3  A    between atoms: O_9  and  C_32
REMARK    4  A    between atoms: O_9  and  C_33
REMARK    5  A    between atoms: C_21  and  C_24
REMARK                            x       y       z     vdW  Elec       q    Type
REMARK                         _______ _______ _______ _____ _____    ______ ____
ROOT
ATOM      8  O   UNL     1       9.348  -9.556  32.960  0.00  0.00    -0.267 OA
ATOM     10  N   UNL     1       7.957  -6.068  36.239  0.00  0.00    -0.175 NA
ATOM     11  N   UNL     1       8.567  -7.413  33.445  0.00  0.00    -0.311 N 
ATOM     12  C   UNL     1       9.946  -5.710  34.772  0.00  0.00    +0.025 C 
ATOM     13  C   UNL     1       7.708  -5.103  33.962  0.00  0.00    +0.052 C 
ATOM     14  C   UNL     1       9.172  -4.672  33.971  0.00  0.00    +0.017 C 
ATOM     15  C   UNL     1       9.420  -5.780  36.215  0.00  0.00    +0.114 C 
ATOM     16  C   UNL     1       7.168  -5.116  35.403  0.00  0.00    +0.119 C 
ATOM     17  C   UNL     1       9.859  -7.060  34.050  0.00  0.00    +0.130 C 
ATOM     18  C   UNL     1       7.544  -6.469  33.324  0.00  0.00    +0.026 A 
ATOM     19  C   UNL     1       6.418  -6.779  32.664  0.00  0.00    +0.022 A 
ATOM     20  C   UNL     1       8.455  -8.709  32.903  0.00  0.00    +0.259 A 
ATOM     21  C   UNL     1       7.165  -9.038  32.202  0.00  0.00    +0.047 A 
ATOM     22  C   UNL     1       6.226  -8.085  32.102  0.00  0.00    +0.015 A 
ENDROOT
BRANCH  21  24
ATOM     24  C   UNL     1       6.923 -10.378  31.639  0.00  0.00    -0.012 A 
ATOM     26  C   UNL     1       7.205 -10.634  30.297  0.00  0.00    +0.012 A 
ATOM     27  C   UNL     1       6.410 -11.393  32.448  0.00  0.00    +0.012 A 
ATOM     30  C   UNL     1       6.974 -11.902  29.764  0.00  0.00    +0.046 A 
ATOM     31  C   UNL     1       6.180 -12.661  31.915  0.00  0.00    +0.046 A 
ATOM     32  C   UNL     1       6.462 -12.916  30.574  0.00  0.00    +0.130 A 
BRANCH  32   9
ATOM      9  O   UNL     1       6.237 -14.154  30.054  0.00  0.00    -0.406 OA
BRANCH   9  33
ATOM      3  F   UNL     1       4.332 -15.418  30.108  0.00  0.00    -0.133 F 
ATOM      4  F   UNL     1       5.156 -14.798  28.181  0.00  0.00    -0.133 F 
ATOM      5  F   UNL     1       4.197 -13.310  29.460  0.00  0.00    -0.133 F 
ATOM     33  C   UNL     1       4.969 -14.417  29.464  0.00  0.00    +0.575 C 
ENDBRANCH   9  33
ENDBRANCH  32   9
ENDBRANCH  21  24
BRANCH  10   1
ATOM      1  S   UNL     1       7.299  -6.426  37.778  0.00  0.00    +0.067 S 
ATOM      6  O   UNL     1       6.659  -5.238  38.306  0.00  0.00    -0.152 OA
ATOM      7  O   UNL     1       8.282  -7.150  38.555  0.00  0.00    -0.152 OA
BRANCH   1  23
ATOM      2  S   UNL     1       4.690  -7.602  38.376  0.00  0.00    -0.077 S 
ATOM     23  C   UNL     1       6.029  -7.561  37.314  0.00  0.00    +0.143 A 
ATOM     25  C   UNL     1       5.892  -8.431  36.261  0.00  0.00    +0.036 A 
ATOM     28  C   UNL     1       4.663  -9.149  36.325  0.00  0.00    +0.010 A 
ATOM     29  C   UNL     1       3.913  -8.796  37.425  0.00  0.00    +0.047 A 
ENDBRANCH   1  23
ENDBRANCH  10   1
TORSDOF 5
ENDMDL
MODEL 10
REMARK VINA RESULT:      -6.3     18.730     20.945
REMARK  Name = 7674734
REMARK  5 active torsions:
REMARK  status: ('A' for Active; 'I' for Inactive)
REMARK    1  A    between atoms: S_1  and  N_10
REMARK    2  A    between atoms: S_1  and  C_23
REMARK    3  A    between atoms: O_9  and  C_32
REMARK    4  A    between atoms: O_9  and  C_33
REMARK    5  A    between atoms: C_21  and  C_24
REMARK                            x       y       z     vdW  Elec       q    Type
REMARK                         _______ _______ _______ _____ _____    ______ ____
ROOT
ATOM      8  O   UNL     1      16.561   9.768  19.789  0.00  0.00    -0.267 OA
ATOM     10  N   UNL     1      13.064  11.482  22.901  0.00  0.00    -0.175 NA
ATOM     11  N   UNL     1      14.426   9.646  20.719  0.00  0.00    -0.311 N 
ATOM     12  C   UNL     1      12.687  11.505  20.432  0.00  0.00    +0.025 C 
ATOM     13  C   UNL     1      12.125   9.499  21.732  0.00  0.00    +0.052 C 
ATOM     14  C   UNL     1      11.670  10.381  20.573  0.00  0.00    +0.017 C 
ATOM     15  C   UNL     1      12.752  12.340  21.722  0.00  0.00    +0.114 C 
ATOM     16  C   UNL     1      12.133  10.322  23.032  0.00  0.00    +0.119 C 
ATOM     17  C   UNL     1      14.046  10.901  20.057  0.00  0.00    +0.130 C 
ATOM     18  C   UNL     1      13.500   8.915  21.468  0.00  0.00    +0.026 A 
ATOM     19  C   UNL     1      13.835   7.715  21.966  0.00  0.00    +0.022 A 
ATOM     20  C   UNL     1      15.729   9.169  20.472  0.00  0.00    +0.259 A 
ATOM     21  C   UNL     1      16.086   7.838  21.075  0.00  0.00    +0.047 A 
ATOM     22  C   UNL     1      15.149   7.175  21.770  0.00  0.00    +0.015 A 
ENDROOT
BRANCH  21  24
ATOM     24  C   UNL     1      17.435   7.267  20.919  0.00  0.00    -0.012 A 
ATOM     26  C   UNL     1      17.666   6.266  19.975  0.00  0.00    +0.012 A 
ATOM     27  C   UNL     1      18.484   7.726  21.717  0.00  0.00    +0.012 A 
ATOM     30  C   UNL     1      18.943   5.724  19.829  0.00  0.00    +0.046 A 
ATOM     31  C   UNL     1      19.762   7.185  21.570  0.00  0.00    +0.046 A 
ATOM     32  C   UNL     1      19.991   6.185  20.626  0.00  0.00    +0.130 A 
BRANCH  32   9
ATOM      9  O   UNL     1      21.238   5.657  20.483  0.00  0.00    -0.406 OA
BRANCH   9  33
ATOM      3  F   UNL     1      20.679   3.444  20.636  0.00  0.00    -0.133 F 
ATOM      4  F   UNL     1      21.319   4.518  22.430  0.00  0.00    -0.133 F 
ATOM      5  F   UNL     1      22.794   4.032  20.893  0.00  0.00    -0.133 F 
ATOM     33  C   UNL     1      21.512   4.402  21.097  0.00  0.00    +0.575 C 
ENDBRANCH   9  33
ENDBRANCH  32   9
ENDBRANCH  21  24
BRANCH  10   1
ATOM      1  S   UNL     1      13.417  12.318  24.352  0.00  0.00    +0.067 S 
ATOM      6  O   UNL     1      14.627  13.092  24.170  0.00  0.00    -0.152 OA
ATOM      7  O   UNL     1      13.278  11.404  25.467  0.00  0.00    -0.152 OA
BRANCH   1  23
ATOM      2  S   UNL     1      12.488  15.086  24.207  0.00  0.00    -0.077 S 
ATOM     23  C   UNL     1      12.058  13.442  24.399  0.00  0.00    +0.143 A 
ATOM     25  C   UNL     1      10.705  13.269  24.560  0.00  0.00    +0.036 A 
ATOM     28  C   UNL     1      10.005  14.509  24.526  0.00  0.00    +0.010 A 
ATOM     29  C   UNL     1      10.853  15.578  24.340  0.00  0.00    +0.047 A 
ENDBRANCH   1  23
ENDBRANCH  10   1
TORSDOF 5
ENDMDL
