MODEL 1
REMARK VINA RESULT:      -6.8      0.000      0.000
REMARK  Name = 26744622
REMARK  4 active torsions:
REMARK  status: ('A' for Active; 'I' for Inactive)
REMARK    1  A    between atoms: O_3  and  C_10
REMARK    2  A    between atoms: C_8  and  C_12
REMARK    3  A    between atoms: C_13  and  C_14
REMARK    4  A    between atoms: C_14  and  C_15
REMARK                            x       y       z     vdW  Elec       q    Type
REMARK                         _______ _______ _______ _____ _____    ______ ____
ROOT
ATOM      4  O   UNL     1      15.953   6.934  18.568  0.00  0.00    -0.336 OA
ATOM      6  N   UNL     1      14.640   6.671  20.363  0.00  0.00    -0.194 NA
ATOM      7  N   UNL     1      14.644   7.166  18.131  0.00  0.00    -0.061 NA
ATOM     12  C   UNL     1      15.862   6.649  19.893  0.00  0.00    +0.245 A 
ATOM     13  C   UNL     1      13.928   6.994  19.245  0.00  0.00    +0.176 A 
ENDROOT
BRANCH  12   8
ATOM      5  N   UNL     1      18.275   6.021  19.707  0.00  0.00    -0.303 NA
ATOM      8  C   UNL     1      17.159   6.357  20.612  0.00  0.00    +0.146 C 
ATOM      9  C   UNL     1      17.717   7.521  21.429  0.00  0.00    +0.061 C 
ATOM     10  C   UNL     1      19.165   7.109  21.659  0.00  0.00    +0.130 C 
ATOM     11  C   UNL     1      19.490   6.135  20.531  0.00  0.00    +0.113 C 
ATOM     21  H   UNL     1      18.323   6.734  18.976  0.00  0.00    +0.123 HD
BRANCH  10   3
ATOM      3  O   UNL     1      19.285   6.433  22.905  0.00  0.00    -0.390 OA
ATOM     22  H   UNL     1      18.453   6.565  23.389  0.00  0.00    +0.210 HD
ENDBRANCH  10   3
ENDBRANCH  12   8
BRANCH  13  14
ATOM     14  C   UNL     1      12.469   7.142  19.263  0.00  0.00    +0.116 C 
BRANCH  14  15
ATOM      1 CL   UNL     1      11.060   5.722  21.628  0.00  0.00    -0.083 Cl
ATOM      2  F   UNL     1      10.498  10.411  23.435  0.00  0.00    -0.205 F 
ATOM     15  C   UNL     1      11.927   7.997  20.403  0.00  0.00    -0.021 A 
ATOM     16  C   UNL     1      11.279   7.430  21.501  0.00  0.00    +0.047 A 
ATOM     17  C   UNL     1      12.092   9.381  20.331  0.00  0.00    +0.008 A 
ATOM     18  C   UNL     1      10.797   8.245  22.525  0.00  0.00    +0.058 A 
ATOM     19  C   UNL     1      11.609  10.196  21.354  0.00  0.00    +0.039 A 
ATOM     20  C   UNL     1      10.962   9.628  22.452  0.00  0.00    +0.125 A 
ENDBRANCH  14  15
ENDBRANCH  13  14
TORSDOF 4
ENDMDL
MODEL 2
REMARK VINA RESULT:      -6.6      4.801      6.818
REMARK  Name = 26744622
REMARK  4 active torsions:
REMARK  status: ('A' for Active; 'I' for Inactive)
REMARK    1  A    between atoms: O_3  and  C_10
REMARK    2  A    between atoms: C_8  and  C_12
REMARK    3  A    between atoms: C_13  and  C_14
REMARK    4  A    between atoms: C_14  and  C_15
REMARK                            x       y       z     vdW  Elec       q    Type
REMARK                         _______ _______ _______ _____ _____    ______ ____
ROOT
ATOM      4  O   UNL     1      10.572   7.838  22.518  0.00  0.00    -0.336 OA
ATOM      6  N   UNL     1      11.837   8.961  21.050  0.00  0.00    -0.194 NA
ATOM      7  N   UNL     1      11.044   6.889  21.604  0.00  0.00    -0.061 NA
ATOM     12  C   UNL     1      11.085   9.031  22.120  0.00  0.00    +0.245 A 
ATOM     13  C   UNL     1      11.783   7.626  20.770  0.00  0.00    +0.176 A 
ENDROOT
BRANCH  12   8
ATOM      5  N   UNL     1      11.288  10.206  24.317  0.00  0.00    -0.303 NA
ATOM      8  C   UNL     1      10.720  10.236  22.956  0.00  0.00    +0.146 C 
ATOM      9  C   UNL     1      11.214  11.573  22.406  0.00  0.00    +0.061 C 
ATOM     10  C   UNL     1      11.096  12.498  23.610  0.00  0.00    +0.130 C 
ATOM     11  C   UNL     1      11.142  11.579  24.828  0.00  0.00    +0.113 C 
ATOM     21  H   UNL     1      12.286  10.001  24.246  0.00  0.00    +0.123 HD
BRANCH  10   3
ATOM      3  O   UNL     1       9.844  13.172  23.585  0.00  0.00    -0.390 OA
ATOM     22  H   UNL     1       9.955  14.009  24.066  0.00  0.00    +0.210 HD
ENDBRANCH  10   3
ENDBRANCH  12   8
BRANCH  13  14
ATOM     14  C   UNL     1      12.489   7.037  19.628  0.00  0.00    +0.116 C 
BRANCH  14  15
ATOM      1 CL   UNL     1      15.304   8.295  19.332  0.00  0.00    -0.083 Cl
ATOM      2  F   UNL     1      13.296  10.571  15.288  0.00  0.00    -0.205 F 
ATOM     15  C   UNL     1      12.738   7.994  18.467  0.00  0.00    -0.021 A 
ATOM     16  C   UNL     1      13.978   8.600  18.270  0.00  0.00    +0.047 A 
ATOM     17  C   UNL     1      11.686   8.258  17.590  0.00  0.00    +0.008 A 
ATOM     18  C   UNL     1      14.167   9.470  17.196  0.00  0.00    +0.058 A 
ATOM     19  C   UNL     1      11.874   9.129  16.516  0.00  0.00    +0.039 A 
ATOM     20  C   UNL     1      13.115   9.735  16.319  0.00  0.00    +0.125 A 
ENDBRANCH  14  15
ENDBRANCH  13  14
TORSDOF 4
ENDMDL
MODEL 3
REMARK VINA RESULT:      -6.6      4.235      5.354
REMARK  Name = 26744622
REMARK  4 active torsions:
REMARK  status: ('A' for Active; 'I' for Inactive)
REMARK    1  A    between atoms: O_3  and  C_10
REMARK    2  A    between atoms: C_8  and  C_12
REMARK    3  A    between atoms: C_13  and  C_14
REMARK    4  A    between atoms: C_14  and  C_15
REMARK                            x       y       z     vdW  Elec       q    Type
REMARK                         _______ _______ _______ _____ _____    ______ ____
ROOT
ATOM      4  O   UNL     1      11.763   8.590  16.051  0.00  0.00    -0.336 OA
ATOM      6  N   UNL     1      13.474   8.745  17.487  0.00  0.00    -0.194 NA
ATOM      7  N   UNL     1      11.411   7.815  17.162  0.00  0.00    -0.061 NA
ATOM     12  C   UNL     1      12.992   9.102  16.323  0.00  0.00    +0.245 A 
ATOM     13  C   UNL     1      12.469   7.957  17.965  0.00  0.00    +0.176 A 
ENDROOT
BRANCH  12   8
ATOM      5  N   UNL     1      13.528  11.429  15.583  0.00  0.00    -0.303 NA
ATOM      8  C   UNL     1      13.603   9.990  15.265  0.00  0.00    +0.146 C 
ATOM      9  C   UNL     1      15.094   9.768  15.023  0.00  0.00    +0.061 C 
ATOM     10  C   UNL     1      15.507  11.029  14.275  0.00  0.00    +0.130 C 
ATOM     11  C   UNL     1      14.469  12.080  14.657  0.00  0.00    +0.113 C 
ATOM     21  H   UNL     1      13.876  11.567  16.534  0.00  0.00    +0.123 HD
BRANCH  10   3
ATOM      3  O   UNL     1      15.445  10.804  12.872  0.00  0.00    -0.390 OA
ATOM     22  H   UNL     1      15.793   9.912  12.705  0.00  0.00    +0.210 HD
ENDBRANCH  10   3
ENDBRANCH  12   8
BRANCH  13  14
ATOM     14  C   UNL     1      12.543   7.305  19.277  0.00  0.00    +0.116 C 
BRANCH  14  15
ATOM      1 CL   UNL     1      11.084   5.773  21.541  0.00  0.00    -0.083 Cl
ATOM      2  F   UNL     1      10.347  10.384  23.481  0.00  0.00    -0.205 F 
ATOM     15  C   UNL     1      11.940   8.108  20.425  0.00  0.00    -0.021 A 
ATOM     16  C   UNL     1      11.268   7.488  21.479  0.00  0.00    +0.047 A 
ATOM     17  C   UNL     1      12.075   9.496  20.404  0.00  0.00    +0.008 A 
ATOM     18  C   UNL     1      10.729   8.257  22.511  0.00  0.00    +0.058 A 
ATOM     19  C   UNL     1      11.536  10.265  21.436  0.00  0.00    +0.039 A 
ATOM     20  C   UNL     1      10.864   9.645  22.490  0.00  0.00    +0.125 A 
ENDBRANCH  14  15
ENDBRANCH  13  14
TORSDOF 4
ENDMDL
MODEL 4
REMARK VINA RESULT:      -6.3      4.396      6.789
REMARK  Name = 26744622
REMARK  4 active torsions:
REMARK  status: ('A' for Active; 'I' for Inactive)
REMARK    1  A    between atoms: O_3  and  C_10
REMARK    2  A    between atoms: C_8  and  C_12
REMARK    3  A    between atoms: C_13  and  C_14
REMARK    4  A    between atoms: C_14  and  C_15
REMARK                            x       y       z     vdW  Elec       q    Type
REMARK                         _______ _______ _______ _____ _____    ______ ____
ROOT
ATOM      4  O   UNL     1      13.021   8.345  16.246  0.00  0.00    -0.336 OA
ATOM      6  N   UNL     1      14.466   8.939  17.851  0.00  0.00    -0.194 NA
ATOM      7  N   UNL     1      12.900   7.382  17.255  0.00  0.00    -0.061 NA
ATOM     12  C   UNL     1      13.963   9.224  16.676  0.00  0.00    +0.245 A 
ATOM     13  C   UNL     1      13.783   7.801  18.167  0.00  0.00    +0.176 A 
ENDROOT
BRANCH  12   8
ATOM      5  N   UNL     1      13.194  10.699  14.809  0.00  0.00    -0.303 NA
ATOM      8  C   UNL     1      14.282  10.378  15.753  0.00  0.00    +0.146 C 
ATOM      9  C   UNL     1      14.534  11.711  16.454  0.00  0.00    +0.061 C 
ATOM     10  C   UNL     1      14.393  12.720  15.322  0.00  0.00    +0.130 C 
ATOM     11  C   UNL     1      13.525  12.030  14.274  0.00  0.00    +0.113 C 
ATOM     21  H   UNL     1      12.323  10.780  15.338  0.00  0.00    +0.123 HD
BRANCH  10   3
ATOM      3  O   UNL     1      15.669  12.998  14.758  0.00  0.00    -0.390 OA
ATOM     22  H   UNL     1      16.114  12.147  14.613  0.00  0.00    +0.210 HD
ENDBRANCH  10   3
ENDBRANCH  12   8
BRANCH  13  14
ATOM     14  C   UNL     1      14.001   7.082  19.426  0.00  0.00    +0.116 C 
BRANCH  14  15
ATOM      1 CL   UNL     1      15.059   8.180  22.122  0.00  0.00    -0.083 Cl
ATOM      2  F   UNL     1      19.443   6.145  20.641  0.00  0.00    -0.205 F 
ATOM     15  C   UNL     1      15.465   6.845  19.782  0.00  0.00    -0.021 A 
ATOM     16  C   UNL     1      16.013   7.311  20.977  0.00  0.00    +0.047 A 
ATOM     17  C   UNL     1      16.261   6.142  18.877  0.00  0.00    +0.008 A 
ATOM     18  C   UNL     1      17.357   7.074  21.267  0.00  0.00    +0.058 A 
ATOM     19  C   UNL     1      17.605   5.906  19.167  0.00  0.00    +0.039 A 
ATOM     20  C   UNL     1      18.153   6.371  20.363  0.00  0.00    +0.125 A 
ENDBRANCH  14  15
ENDBRANCH  13  14
TORSDOF 4
ENDMDL
MODEL 5
REMARK VINA RESULT:      -6.3      1.778      2.102
REMARK  Name = 26744622
REMARK  4 active torsions:
REMARK  status: ('A' for Active; 'I' for Inactive)
REMARK    1  A    between atoms: O_3  and  C_10
REMARK    2  A    between atoms: C_8  and  C_12
REMARK    3  A    between atoms: C_13  and  C_14
REMARK    4  A    between atoms: C_14  and  C_15
REMARK                            x       y       z     vdW  Elec       q    Type
REMARK                         _______ _______ _______ _____ _____    ______ ____
ROOT
ATOM      4  O   UNL     1      16.210   5.977  18.844  0.00  0.00    -0.336 OA
ATOM      6  N   UNL     1      15.864   7.949  19.846  0.00  0.00    -0.194 NA
ATOM      7  N   UNL     1      15.127   6.566  18.181  0.00  0.00    -0.061 NA
ATOM     12  C   UNL     1      16.583   6.856  19.810  0.00  0.00    +0.245 A 
ATOM     13  C   UNL     1      14.983   7.726  18.828  0.00  0.00    +0.176 A 
ENDROOT
BRANCH  12   8
ATOM      5  N   UNL     1      18.916   5.963  19.914  0.00  0.00    -0.303 NA
ATOM      8  C   UNL     1      17.751   6.449  20.678  0.00  0.00    +0.146 C 
ATOM      9  C   UNL     1      18.341   7.572  21.529  0.00  0.00    +0.061 C 
ATOM     10  C   UNL     1      19.699   7.013  21.932  0.00  0.00    +0.130 C 
ATOM     11  C   UNL     1      20.037   5.972  20.869  0.00  0.00    +0.113 C 
ATOM     21  H   UNL     1      19.124   6.641  19.179  0.00  0.00    +0.123 HD
BRANCH  10   3
ATOM      3  O   UNL     1      19.603   6.370  23.197  0.00  0.00    -0.390 OA
ATOM     22  H   UNL     1      18.912   5.691  23.126  0.00  0.00    +0.210 HD
ENDBRANCH  10   3
ENDBRANCH  12   8
BRANCH  13  14
ATOM     14  C   UNL     1      13.944   8.696  18.465  0.00  0.00    +0.116 C 
BRANCH  14  15
ATOM      1 CL   UNL     1      14.163  11.276  20.166  0.00  0.00    -0.083 Cl
ATOM      2  F   UNL     1      10.004   9.512  22.438  0.00  0.00    -0.205 F 
ATOM     15  C   UNL     1      12.896   8.944  19.544  0.00  0.00    -0.021 A 
ATOM     16  C   UNL     1      12.930  10.082  20.351  0.00  0.00    +0.047 A 
ATOM     17  C   UNL     1      11.885   7.998  19.716  0.00  0.00    +0.008 A 
ATOM     18  C   UNL     1      11.953  10.274  21.328  0.00  0.00    +0.058 A 
ATOM     19  C   UNL     1      10.908   8.190  20.694  0.00  0.00    +0.039 A 
ATOM     20  C   UNL     1      10.942   9.328  21.499  0.00  0.00    +0.125 A 
ENDBRANCH  14  15
ENDBRANCH  13  14
TORSDOF 4
ENDMDL
MODEL 6
REMARK VINA RESULT:      -6.2     26.030     27.322
REMARK  Name = 26744622
REMARK  4 active torsions:
REMARK  status: ('A' for Active; 'I' for Inactive)
REMARK    1  A    between atoms: O_3  and  C_10
REMARK    2  A    between atoms: C_8  and  C_12
REMARK    3  A    between atoms: C_13  and  C_14
REMARK    4  A    between atoms: C_14  and  C_15
REMARK                            x       y       z     vdW  Elec       q    Type
REMARK                         _______ _______ _______ _____ _____    ______ ____
ROOT
ATOM      4  O   UNL     1      -2.555 -10.674  16.694  0.00  0.00    -0.336 OA
ATOM      6  N   UNL     1      -3.982 -11.220  15.057  0.00  0.00    -0.194 NA
ATOM      7  N   UNL     1      -1.771 -11.155  15.638  0.00  0.00    -0.061 NA
ATOM     12  C   UNL     1      -3.843 -10.746  16.270  0.00  0.00    +0.245 A 
ATOM     13  C   UNL     1      -2.683 -11.455  14.710  0.00  0.00    +0.176 A 
ENDROOT
BRANCH  12   8
ATOM      5  N   UNL     1      -6.150  -9.837  16.591  0.00  0.00    -0.303 NA
ATOM      8  C   UNL     1      -4.901 -10.277  17.242  0.00  0.00    +0.146 C 
ATOM      9  C   UNL     1      -5.383 -11.338  18.229  0.00  0.00    +0.061 C 
ATOM     10  C   UNL     1      -6.685 -10.747  18.752  0.00  0.00    +0.130 C 
ATOM     11  C   UNL     1      -7.149  -9.777  17.670  0.00  0.00    +0.113 C 
ATOM     21  H   UNL     1      -6.441 -10.561  15.931  0.00  0.00    +0.123 HD
BRANCH  10   3
ATOM      3  O   UNL     1      -6.442 -10.022  19.952  0.00  0.00    -0.390 OA
ATOM     22  H   UNL     1      -5.854 -10.563  20.504  0.00  0.00    +0.210 HD
ENDBRANCH  10   3
ENDBRANCH  12   8
BRANCH  13  14
ATOM     14  C   UNL     1      -2.310 -12.004  13.402  0.00  0.00    +0.116 C 
BRANCH  14  15
ATOM      1 CL   UNL     1      -4.943 -12.647  11.901  0.00  0.00    -0.083 Cl
ATOM      2  F   UNL     1      -3.644  -8.715   8.999  0.00  0.00    -0.205 F 
ATOM     15  C   UNL     1      -2.697 -11.134  12.210  0.00  0.00    -0.021 A 
ATOM     16  C   UNL     1      -3.866 -11.364  11.485  0.00  0.00    +0.047 A 
ATOM     17  C   UNL     1      -1.848 -10.087  11.851  0.00  0.00    +0.008 A 
ATOM     18  C   UNL     1      -4.186 -10.547  10.400  0.00  0.00    +0.058 A 
ATOM     19  C   UNL     1      -2.167  -9.270  10.766  0.00  0.00    +0.039 A 
ATOM     20  C   UNL     1      -3.337  -9.500  10.041  0.00  0.00    +0.125 A 
ENDBRANCH  14  15
ENDBRANCH  13  14
TORSDOF 4
ENDMDL
MODEL 7
REMARK VINA RESULT:      -6.1     30.403     31.636
REMARK  Name = 26744622
REMARK  4 active torsions:
REMARK  status: ('A' for Active; 'I' for Inactive)
REMARK    1  A    between atoms: O_3  and  C_10
REMARK    2  A    between atoms: C_8  and  C_12
REMARK    3  A    between atoms: C_13  and  C_14
REMARK    4  A    between atoms: C_14  and  C_15
REMARK                            x       y       z     vdW  Elec       q    Type
REMARK                         _______ _______ _______ _____ _____    ______ ____
ROOT
ATOM      4  O   UNL     1     -16.343   1.547  24.919  0.00  0.00    -0.336 OA
ATOM      6  N   UNL     1     -16.271   2.794  26.777  0.00  0.00    -0.194 NA
ATOM      7  N   UNL     1     -16.771   0.717  25.962  0.00  0.00    -0.061 NA
ATOM     12  C   UNL     1     -16.068   2.751  25.484  0.00  0.00    +0.245 A 
ATOM     13  C   UNL     1     -16.703   1.524  27.025  0.00  0.00    +0.176 A 
ENDROOT
BRANCH  12   8
ATOM      5  N   UNL     1     -15.517   3.424  23.140  0.00  0.00    -0.303 NA
ATOM      8  C   UNL     1     -15.581   3.839  24.555  0.00  0.00    +0.146 C 
ATOM      9  C   UNL     1     -16.461   5.086  24.509  0.00  0.00    +0.061 C 
ATOM     10  C   UNL     1     -15.999   5.779  23.234  0.00  0.00    +0.130 C 
ATOM     11  C   UNL     1     -15.389   4.675  22.375  0.00  0.00    +0.113 C 
ATOM     21  H   UNL     1     -16.409   2.992  22.891  0.00  0.00    +0.123 HD
BRANCH  10   3
ATOM      3  O   UNL     1     -14.994   6.738  23.539  0.00  0.00    -0.390 OA
ATOM     22  H   UNL     1     -15.142   7.032  24.454  0.00  0.00    +0.210 HD
ENDBRANCH  10   3
ENDBRANCH  12   8
BRANCH  13  14
ATOM     14  C   UNL     1     -17.068   1.070  28.370  0.00  0.00    +0.116 C 
BRANCH  14  15
ATOM      1 CL   UNL     1     -17.543   3.473  30.266  0.00  0.00    -0.083 Cl
ATOM      2  F   UNL     1     -13.149   2.054  32.326  0.00  0.00    -0.205 F 
ATOM     15  C   UNL     1     -16.028   1.360  29.448  0.00  0.00    -0.021 A 
ATOM     16  C   UNL     1     -16.173   2.426  30.337  0.00  0.00    +0.047 A 
ATOM     17  C   UNL     1     -14.911   0.529  29.532  0.00  0.00    +0.008 A 
ATOM     18  C   UNL     1     -15.200   2.660  31.309  0.00  0.00    +0.058 A 
ATOM     19  C   UNL     1     -13.938   0.764  30.503  0.00  0.00    +0.039 A 
ATOM     20  C   UNL     1     -14.083   1.829  31.393  0.00  0.00    +0.125 A 
ENDBRANCH  14  15
ENDBRANCH  13  14
TORSDOF 4
ENDMDL
MODEL 8
REMARK VINA RESULT:      -6.0     15.303     17.025
REMARK  Name = 26744622
REMARK  4 active torsions:
REMARK  status: ('A' for Active; 'I' for Inactive)
REMARK    1  A    between atoms: O_3  and  C_10
REMARK    2  A    between atoms: C_8  and  C_12
REMARK    3  A    between atoms: C_13  and  C_14
REMARK    4  A    between atoms: C_14  and  C_15
REMARK                            x       y       z     vdW  Elec       q    Type
REMARK                         _______ _______ _______ _____ _____    ______ ____
ROOT
ATOM      4  O   UNL     1      12.535   6.506   3.779  0.00  0.00    -0.336 OA
ATOM      6  N   UNL     1      10.744   5.310   3.164  0.00  0.00    -0.194 NA
ATOM      7  N   UNL     1      11.537   6.788   4.719  0.00  0.00    -0.061 NA
ATOM     12  C   UNL     1      11.986   5.629   2.899  0.00  0.00    +0.245 A 
ATOM     13  C   UNL     1      10.512   6.045   4.290  0.00  0.00    +0.176 A 
ENDROOT
BRANCH  12   8
ATOM      5  N   UNL     1      14.290   5.004   2.156  0.00  0.00    -0.303 NA
ATOM      8  C   UNL     1      12.875   5.161   1.770  0.00  0.00    +0.146 C 
ATOM      9  C   UNL     1      12.519   3.790   1.199  0.00  0.00    +0.061 C 
ATOM     10  C   UNL     1      13.778   3.406   0.432  0.00  0.00    +0.130 C 
ATOM     11  C   UNL     1      14.902   4.214   1.074  0.00  0.00    +0.113 C 
ATOM     21  H   UNL     1      14.330   4.448   3.013  0.00  0.00    +0.123 HD
BRANCH  10   3
ATOM      3  O   UNL     1      13.652   3.790  -0.932  0.00  0.00    -0.390 OA
ATOM     22  H   UNL     1      13.579   2.976  -1.457  0.00  0.00    +0.210 HD
ENDBRANCH  10   3
ENDBRANCH  12   8
BRANCH  13  14
ATOM     14  C   UNL     1       9.222   6.023   4.987  0.00  0.00    +0.116 C 
BRANCH  14  15
ATOM      1 CL   UNL     1       8.451   8.260   6.985  0.00  0.00    -0.083 Cl
ATOM      2  F   UNL     1       9.572   4.798  10.496  0.00  0.00    -0.205 F 
ATOM     15  C   UNL     1       9.306   5.722   6.480  0.00  0.00    -0.021 A 
ATOM     16  C   UNL     1       8.977   6.680   7.439  0.00  0.00    +0.047 A 
ATOM     17  C   UNL     1       9.724   4.452   6.877  0.00  0.00    +0.008 A 
ATOM     18  C   UNL     1       9.067   6.368   8.796  0.00  0.00    +0.058 A 
ATOM     19  C   UNL     1       9.815   4.140   8.234  0.00  0.00    +0.039 A 
ATOM     20  C   UNL     1       9.485   5.098   9.193  0.00  0.00    +0.125 A 
ENDBRANCH  14  15
ENDBRANCH  13  14
TORSDOF 4
ENDMDL
MODEL 9
REMARK VINA RESULT:      -6.0     27.313     29.682
REMARK  Name = 26744622
REMARK  4 active torsions:
REMARK  status: ('A' for Active; 'I' for Inactive)
REMARK    1  A    between atoms: O_3  and  C_10
REMARK    2  A    between atoms: C_8  and  C_12
REMARK    3  A    between atoms: C_13  and  C_14
REMARK    4  A    between atoms: C_14  and  C_15
REMARK                            x       y       z     vdW  Elec       q    Type
REMARK                         _______ _______ _______ _____ _____    ______ ____
ROOT
ATOM      4  O   UNL     1     -15.697   4.171  22.044  0.00  0.00    -0.336 OA
ATOM      6  N   UNL     1     -14.928   5.756  23.427  0.00  0.00    -0.194 NA
ATOM      7  N   UNL     1     -15.430   5.290  21.246  0.00  0.00    -0.061 NA
ATOM     12  C   UNL     1     -15.375   4.530  23.314  0.00  0.00    +0.245 A 
ATOM     13  C   UNL     1     -14.979   6.182  22.132  0.00  0.00    +0.176 A 
ENDROOT
BRANCH  12   8
ATOM      5  N   UNL     1     -15.741   4.040  25.738  0.00  0.00    -0.303 NA
ATOM      8  C   UNL     1     -15.574   3.481  24.384  0.00  0.00    +0.146 C 
ATOM      9  C   UNL     1     -16.821   2.617  24.211  0.00  0.00    +0.061 C 
ATOM     10  C   UNL     1     -16.992   1.991  25.589  0.00  0.00    +0.130 C 
ATOM     11  C   UNL     1     -16.276   2.935  26.551  0.00  0.00    +0.113 C 
ATOM     21  H   UNL     1     -16.451   4.774  25.698  0.00  0.00    +0.123 HD
BRANCH  10   3
ATOM      3  O   UNL     1     -16.355   0.720  25.628  0.00  0.00    -0.390 OA
ATOM     22  H   UNL     1     -15.458   0.833  25.272  0.00  0.00    +0.210 HD
ENDBRANCH  10   3
ENDBRANCH  12   8
BRANCH  13  14
ATOM     14  C   UNL     1     -14.567   7.532  21.736  0.00  0.00    +0.116 C 
BRANCH  14  15
ATOM      1 CL   UNL     1     -15.524   8.116  18.848  0.00  0.00    -0.083 Cl
ATOM      2  F   UNL     1     -10.621   7.693  17.689  0.00  0.00    -0.205 F 
ATOM     15  C   UNL     1     -13.526   7.582  20.623  0.00  0.00    -0.021 A 
ATOM     16  C   UNL     1     -13.881   7.838  19.298  0.00  0.00    +0.047 A 
ATOM     17  C   UNL     1     -12.189   7.365  20.956  0.00  0.00    +0.008 A 
ATOM     18  C   UNL     1     -12.900   7.875  18.307  0.00  0.00    +0.058 A 
ATOM     19  C   UNL     1     -11.207   7.401  19.965  0.00  0.00    +0.039 A 
ATOM     20  C   UNL     1     -11.563   7.658  18.640  0.00  0.00    +0.125 A 
ENDBRANCH  14  15
ENDBRANCH  13  14
TORSDOF 4
ENDMDL
MODEL 10
REMARK VINA RESULT:      -5.9      4.226      7.710
REMARK  Name = 26744622
REMARK  4 active torsions:
REMARK  status: ('A' for Active; 'I' for Inactive)
REMARK    1  A    between atoms: O_3  and  C_10
REMARK    2  A    between atoms: C_8  and  C_12
REMARK    3  A    between atoms: C_13  and  C_14
REMARK    4  A    between atoms: C_14  and  C_15
REMARK                            x       y       z     vdW  Elec       q    Type
REMARK                         _______ _______ _______ _____ _____    ______ ____
ROOT
ATOM      4  O   UNL     1      16.672   6.067  18.890  0.00  0.00    -0.336 OA
ATOM      6  N   UNL     1      16.482   6.955  20.937  0.00  0.00    -0.194 NA
ATOM      7  N   UNL     1      17.941   5.976  19.473  0.00  0.00    -0.061 NA
ATOM     12  C   UNL     1      15.872   6.655  19.818  0.00  0.00    +0.245 A 
ATOM     13  C   UNL     1      17.749   6.519  20.679  0.00  0.00    +0.176 A 
ENDROOT
BRANCH  12   8
ATOM      5  N   UNL     1      13.699   7.782  20.328  0.00  0.00    -0.303 NA
ATOM      8  C   UNL     1      14.428   6.868  19.427  0.00  0.00    +0.146 C 
ATOM      9  C   UNL     1      14.222   7.502  18.053  0.00  0.00    +0.061 C 
ATOM     10  C   UNL     1      12.777   7.980  18.115  0.00  0.00    +0.130 C 
ATOM     11  C   UNL     1      12.472   8.145  19.601  0.00  0.00    +0.113 C 
ATOM     21  H   UNL     1      14.257   8.629  20.447  0.00  0.00    +0.123 HD
BRANCH  10   3
ATOM      3  O   UNL     1      11.913   6.989  17.571  0.00  0.00    -0.390 OA
ATOM     22  H   UNL     1      12.380   6.574  16.827  0.00  0.00    +0.210 HD
ENDBRANCH  10   3
ENDBRANCH  12   8
BRANCH  13  14
ATOM     14  C   UNL     1      18.832   6.638  21.660  0.00  0.00    +0.116 C 
BRANCH  14  15
ATOM      1 CL   UNL     1      21.299   5.236  20.418  0.00  0.00    -0.083 Cl
ATOM      2  F   UNL     1      23.133   9.932  20.039  0.00  0.00    -0.205 F 
ATOM     15  C   UNL     1      20.008   7.500  21.213  0.00  0.00    -0.021 A 
ATOM     16  C   UNL     1      21.153   6.940  20.647  0.00  0.00    +0.047 A 
ATOM     17  C   UNL     1      19.919   8.882  21.383  0.00  0.00    +0.008 A 
ATOM     18  C   UNL     1      22.209   7.761  20.250  0.00  0.00    +0.058 A 
ATOM     19  C   UNL     1      20.974   9.704  20.987  0.00  0.00    +0.039 A 
ATOM     20  C   UNL     1      22.119   9.143  20.419  0.00  0.00    +0.125 A 
ENDBRANCH  14  15
ENDBRANCH  13  14
TORSDOF 4
ENDMDL
