MODEL 1
REMARK VINA RESULT:      -7.1      0.000      0.000
REMARK  Name = 40780420
REMARK  8 active torsions:
REMARK  status: ('A' for Active; 'I' for Inactive)
REMARK    1  A    between atoms: N_4  and  C_10
REMARK    2  A    between atoms: N_4  and  C_16
REMARK    3  A    between atoms: N_5  and  C_19
REMARK    4  A    between atoms: N_7  and  C_21
REMARK    5  A    between atoms: C_8  and  C_11
REMARK    6  A    between atoms: C_14  and  C_17
REMARK    7  A    between atoms: C_15  and  C_18
REMARK    8  A    between atoms: C_16  and  C_20
REMARK                            x       y       z     vdW  Elec       q    Type
REMARK                         _______ _______ _______ _____ _____    ______ ____
ROOT
ATOM      5  N   UNL     1      12.866   4.337  -1.464  0.00  0.00    -0.234 N 
ATOM      6  N   UNL     1      14.123   3.978  -1.155  0.00  0.00    -0.171 NA
ATOM     11  C   UNL     1      12.873   4.358   0.719  0.00  0.00    +0.003 A 
ATOM     14  C   UNL     1      12.078   4.576  -0.377  0.00  0.00    +0.046 A 
ATOM     15  C   UNL     1      14.123   3.992   0.181  0.00  0.00    +0.064 A 
ATOM     17  C   UNL     1      10.661   4.984  -0.477  0.00  0.00    +0.066 C 
ATOM     18  C   UNL     1      15.355   3.645   0.910  0.00  0.00    +0.068 C 
ENDROOT
BRANCH   5  19
ATOM     19  C   UNL     1      12.483   4.433  -2.803  0.00  0.00    +0.096 A 
ATOM     21  C   UNL     1      11.744   3.423  -3.420  0.00  0.00    +0.151 A 
ATOM     22  C   UNL     1      12.853   5.567  -3.526  0.00  0.00    +0.030 A 
ATOM     25  C   UNL     1      11.376   3.548  -4.760  0.00  0.00    +0.035 A 
ATOM     26  C   UNL     1      12.484   5.691  -4.865  0.00  0.00    +0.002 A 
ATOM     27  C   UNL     1      11.746   4.682  -5.482  0.00  0.00    +0.002 A 
BRANCH  21   7
ATOM      2  O   UNL     1      12.238   1.484  -2.274  0.00  0.00    -0.126 OA
ATOM      3  O   UNL     1      10.129   2.029  -2.545  0.00  0.00    -0.126 OA
ATOM      7  N   UNL     1      11.351   2.253  -2.710  0.00  0.00    +0.059 N 
ENDBRANCH  21   7
ENDBRANCH   5  19
BRANCH  11   8
ATOM      8  C   UNL     1      12.494   4.483   2.177  0.00  0.00    +0.047 C 
ATOM      9  C   UNL     1      12.077   5.912   2.575  0.00  0.00    +0.035 C 
ATOM     10  C   UNL     1      10.985   5.756   3.647  0.00  0.00    +0.078 C 
ATOM     12  C   UNL     1      11.295   3.678   2.584  0.00  0.00    -0.021 C 
ATOM     13  C   UNL     1      10.482   4.371   3.390  0.00  0.00    -0.012 C 
BRANCH  10   4
ATOM      4  N   UNL     1      11.520   5.887   4.998  0.00  0.00    -0.306 NA
ATOM     31  H   UNL     1      12.462   6.276   4.949  0.00  0.00    +0.123 HD
BRANCH   4  16
ATOM     16  C   UNL     1      10.686   6.765   5.808  0.00  0.00    +0.116 C 
BRANCH  16  20
ATOM      1  F   UNL     1       8.678   4.135  10.368  0.00  0.00    -0.205 F 
ATOM     20  C   UNL     1      10.150   6.062   7.027  0.00  0.00    -0.033 A 
ATOM     23  C   UNL     1      10.228   4.672   7.122  0.00  0.00    +0.008 A 
ATOM     24  C   UNL     1       9.576   6.800   8.062  0.00  0.00    +0.008 A 
ATOM     28  C   UNL     1       9.731   4.022   8.250  0.00  0.00    +0.038 A 
ATOM     29  C   UNL     1       9.078   6.149   9.190  0.00  0.00    +0.038 A 
ATOM     30  C   UNL     1       9.156   4.760   9.285  0.00  0.00    +0.123 A 
ENDBRANCH  16  20
ENDBRANCH   4  16
ENDBRANCH  10   4
ENDBRANCH  11   8
TORSDOF 6
ENDMDL
MODEL 2
REMARK VINA RESULT:      -7.0     18.601     21.280
REMARK  Name = 40780420
REMARK  8 active torsions:
REMARK  status: ('A' for Active; 'I' for Inactive)
REMARK    1  A    between atoms: N_4  and  C_10
REMARK    2  A    between atoms: N_4  and  C_16
REMARK    3  A    between atoms: N_5  and  C_19
REMARK    4  A    between atoms: N_7  and  C_21
REMARK    5  A    between atoms: C_8  and  C_11
REMARK    6  A    between atoms: C_14  and  C_17
REMARK    7  A    between atoms: C_15  and  C_18
REMARK    8  A    between atoms: C_16  and  C_20
REMARK                            x       y       z     vdW  Elec       q    Type
REMARK                         _______ _______ _______ _____ _____    ______ ____
ROOT
ATOM      5  N   UNL     1      14.925   7.260  20.047  0.00  0.00    -0.234 N 
ATOM      6  N   UNL     1      15.386   6.442  19.085  0.00  0.00    -0.171 NA
ATOM     11  C   UNL     1      17.014   6.954  20.604  0.00  0.00    +0.003 A 
ATOM     14  C   UNL     1      15.860   7.595  20.981  0.00  0.00    +0.046 A 
ATOM     15  C   UNL     1      16.663   6.259  19.430  0.00  0.00    +0.064 A 
ATOM     17  C   UNL     1      15.579   8.483  22.128  0.00  0.00    +0.066 C 
ATOM     18  C   UNL     1      17.523   5.400  18.598  0.00  0.00    +0.068 C 
ENDROOT
BRANCH   5  19
ATOM     19  C   UNL     1      13.594   7.680  20.019  0.00  0.00    +0.096 A 
ATOM     21  C   UNL     1      13.192   8.760  19.230  0.00  0.00    +0.151 A 
ATOM     22  C   UNL     1      12.659   6.997  20.796  0.00  0.00    +0.030 A 
ATOM     25  C   UNL     1      11.854   9.155  19.222  0.00  0.00    +0.035 A 
ATOM     26  C   UNL     1      11.322   7.394  20.787  0.00  0.00    +0.002 A 
ATOM     27  C   UNL     1      10.919   8.472  20.000  0.00  0.00    +0.002 A 
BRANCH  21   7
ATOM      2  O   UNL     1      14.769  10.416  18.943  0.00  0.00    -0.126 OA
ATOM      3  O   UNL     1      14.261   9.148  17.225  0.00  0.00    -0.126 OA
ATOM      7  N   UNL     1      14.121   9.477  18.426  0.00  0.00    +0.059 N 
ENDBRANCH  21   7
ENDBRANCH   5  19
BRANCH  11   8
ATOM      8  C   UNL     1      18.358   6.987  21.295  0.00  0.00    +0.047 C 
ATOM      9  C   UNL     1      19.446   6.193  20.547  0.00  0.00    +0.035 C 
ATOM     10  C   UNL     1      20.764   6.951  20.778  0.00  0.00    +0.078 C 
ATOM     12  C   UNL     1      18.975   8.351  21.399  0.00  0.00    -0.021 C 
ATOM     13  C   UNL     1      20.284   8.325  21.125  0.00  0.00    -0.012 C 
BRANCH  10   4
ATOM      4  N   UNL     1      21.547   6.370  21.863  0.00  0.00    -0.306 NA
ATOM     31  H   UNL     1      21.136   5.475  22.131  0.00  0.00    +0.123 HD
BRANCH   4  16
ATOM     16  C   UNL     1      22.928   6.152  21.453  0.00  0.00    +0.116 C 
BRANCH  16  20
ATOM      1  F   UNL     1      24.203   0.671  21.190  0.00  0.00    -0.205 F 
ATOM     20  C   UNL     1      23.268   4.687  21.383  0.00  0.00    -0.033 A 
ATOM     23  C   UNL     1      22.792   3.813  22.360  0.00  0.00    +0.008 A 
ATOM     24  C   UNL     1      24.059   4.205  20.340  0.00  0.00    +0.008 A 
ATOM     28  C   UNL     1      23.108   2.456  22.294  0.00  0.00    +0.038 A 
ATOM     29  C   UNL     1      24.375   2.848  20.275  0.00  0.00    +0.038 A 
ATOM     30  C   UNL     1      23.899   1.974  21.252  0.00  0.00    +0.123 A 
ENDBRANCH  16  20
ENDBRANCH   4  16
ENDBRANCH  10   4
ENDBRANCH  11   8
TORSDOF 6
ENDMDL
MODEL 3
REMARK VINA RESULT:      -7.0     28.126     29.458
REMARK  Name = 40780420
REMARK  8 active torsions:
REMARK  status: ('A' for Active; 'I' for Inactive)
REMARK    1  A    between atoms: N_4  and  C_10
REMARK    2  A    between atoms: N_4  and  C_16
REMARK    3  A    between atoms: N_5  and  C_19
REMARK    4  A    between atoms: N_7  and  C_21
REMARK    5  A    between atoms: C_8  and  C_11
REMARK    6  A    between atoms: C_14  and  C_17
REMARK    7  A    between atoms: C_15  and  C_18
REMARK    8  A    between atoms: C_16  and  C_20
REMARK                            x       y       z     vdW  Elec       q    Type
REMARK                         _______ _______ _______ _____ _____    ______ ____
ROOT
ATOM      5  N   UNL     1     -12.538  -6.709  13.119  0.00  0.00    -0.234 N 
ATOM      6  N   UNL     1     -12.473  -7.793  12.327  0.00  0.00    -0.171 NA
ATOM     11  C   UNL     1     -11.572  -8.203  14.386  0.00  0.00    +0.003 A 
ATOM     14  C   UNL     1     -12.011  -6.902  14.362  0.00  0.00    +0.046 A 
ATOM     15  C   UNL     1     -11.882  -8.703  13.106  0.00  0.00    +0.064 A 
ATOM     17  C   UNL     1     -11.973  -5.850  15.398  0.00  0.00    +0.066 C 
ATOM     18  C   UNL     1     -11.630 -10.055  12.579  0.00  0.00    +0.068 C 
ENDROOT
BRANCH   5  19
ATOM     19  C   UNL     1     -13.108  -5.532  12.634  0.00  0.00    +0.096 A 
ATOM     21  C   UNL     1     -14.476  -5.282  12.762  0.00  0.00    +0.151 A 
ATOM     22  C   UNL     1     -12.284  -4.594  12.012  0.00  0.00    +0.030 A 
ATOM     25  C   UNL     1     -15.017  -4.095  12.268  0.00  0.00    +0.035 A 
ATOM     26  C   UNL     1     -12.826  -3.407  11.518  0.00  0.00    +0.002 A 
ATOM     27  C   UNL     1     -14.192  -3.158  11.646  0.00  0.00    +0.002 A 
BRANCH  21   7
ATOM      2  O   UNL     1     -15.526  -6.139  14.627  0.00  0.00    -0.126 OA
ATOM      3  O   UNL     1     -15.899  -7.095  12.687  0.00  0.00    -0.126 OA
ATOM      7  N   UNL     1     -15.344  -6.219  13.391  0.00  0.00    +0.059 N 
ENDBRANCH  21   7
ENDBRANCH   5  19
BRANCH  11   8
ATOM      8  C   UNL     1     -10.905  -8.931  15.529  0.00  0.00    +0.047 C 
ATOM      9  C   UNL     1      -9.644  -8.217  16.052  0.00  0.00    +0.035 C 
ATOM     10  C   UNL     1      -9.597  -8.484  17.566  0.00  0.00    +0.078 C 
ATOM     12  C   UNL     1     -11.740  -9.050  16.770  0.00  0.00    -0.021 C 
ATOM     13  C   UNL     1     -11.024  -8.814  17.875  0.00  0.00    -0.012 C 
BRANCH  10   4
ATOM      4  N   UNL     1      -8.710  -9.592  17.900  0.00  0.00    -0.306 NA
ATOM     31  H   UNL     1      -9.142 -10.469  17.606  0.00  0.00    +0.123 HD
BRANCH   4  16
ATOM     16  C   UNL     1      -7.423  -9.452  17.231  0.00  0.00    +0.116 C 
BRANCH  16  20
ATOM      1  F   UNL     1      -3.401 -12.485  19.755  0.00  0.00    -0.205 F 
ATOM     20  C   UNL     1      -6.349 -10.263  17.906  0.00  0.00    -0.033 A 
ATOM     23  C   UNL     1      -6.515 -10.680  19.226  0.00  0.00    +0.008 A 
ATOM     24  C   UNL     1      -5.187 -10.597  17.210  0.00  0.00    +0.008 A 
ATOM     28  C   UNL     1      -5.519 -11.431  19.851  0.00  0.00    +0.038 A 
ATOM     29  C   UNL     1      -4.191 -11.347  17.834  0.00  0.00    +0.038 A 
ATOM     30  C   UNL     1      -4.357 -11.765  19.155  0.00  0.00    +0.123 A 
ENDBRANCH  16  20
ENDBRANCH   4  16
ENDBRANCH  10   4
ENDBRANCH  11   8
TORSDOF 6
ENDMDL
MODEL 4
REMARK VINA RESULT:      -6.9     21.965     24.866
REMARK  Name = 40780420
REMARK  8 active torsions:
REMARK  status: ('A' for Active; 'I' for Inactive)
REMARK    1  A    between atoms: N_4  and  C_10
REMARK    2  A    between atoms: N_4  and  C_16
REMARK    3  A    between atoms: N_5  and  C_19
REMARK    4  A    between atoms: N_7  and  C_21
REMARK    5  A    between atoms: C_8  and  C_11
REMARK    6  A    between atoms: C_14  and  C_17
REMARK    7  A    between atoms: C_15  and  C_18
REMARK    8  A    between atoms: C_16  and  C_20
REMARK                            x       y       z     vdW  Elec       q    Type
REMARK                         _______ _______ _______ _____ _____    ______ ____
ROOT
ATOM      5  N   UNL     1      -4.153 -10.156   9.549  0.00  0.00    -0.234 N 
ATOM      6  N   UNL     1      -3.095  -9.327   9.569  0.00  0.00    -0.171 NA
ATOM     11  C   UNL     1      -3.164 -10.644  11.434  0.00  0.00    +0.003 A 
ATOM     14  C   UNL     1      -4.239 -10.965  10.643  0.00  0.00    +0.046 A 
ATOM     15  C   UNL     1      -2.494  -9.629  10.723  0.00  0.00    +0.064 A 
ATOM     17  C   UNL     1      -5.319 -11.954  10.836  0.00  0.00    +0.066 C 
ATOM     18  C   UNL     1      -1.267  -8.913  11.111  0.00  0.00    +0.068 C 
ENDROOT
BRANCH   5  19
ATOM     19  C   UNL     1      -5.033 -10.127   8.467  0.00  0.00    +0.096 A 
ATOM     21  C   UNL     1      -6.146  -9.284   8.461  0.00  0.00    +0.151 A 
ATOM     22  C   UNL     1      -4.785 -10.961   7.377  0.00  0.00    +0.030 A 
ATOM     25  C   UNL     1      -7.009  -9.276   7.365  0.00  0.00    +0.035 A 
ATOM     26  C   UNL     1      -5.648 -10.953   6.281  0.00  0.00    +0.002 A 
ATOM     27  C   UNL     1      -6.759 -10.110   6.275  0.00  0.00    +0.002 A 
BRANCH  21   7
ATOM      2  O   UNL     1      -7.226  -8.808  10.442  0.00  0.00    -0.126 OA
ATOM      3  O   UNL     1      -5.871  -7.299   9.602  0.00  0.00    -0.126 OA
ATOM      7  N   UNL     1      -6.428  -8.421   9.558  0.00  0.00    +0.059 N 
ENDBRANCH  21   7
ENDBRANCH   5  19
BRANCH  11   8
ATOM      8  C   UNL     1      -2.787 -11.244  12.769  0.00  0.00    +0.047 C 
ATOM      9  C   UNL     1      -3.900 -11.122  13.827  0.00  0.00    +0.035 C 
ATOM     10  C   UNL     1      -3.804 -12.386  14.697  0.00  0.00    +0.078 C 
ATOM     12  C   UNL     1      -2.535 -12.723  12.742  0.00  0.00    -0.021 C 
ATOM     13  C   UNL     1      -3.083 -13.339  13.796  0.00  0.00    -0.012 C 
BRANCH  10   4
ATOM      4  N   UNL     1      -3.059 -12.149  15.928  0.00  0.00    -0.306 NA
ATOM     31  H   UNL     1      -2.060 -12.236  15.738  0.00  0.00    +0.123 HD
BRANCH   4  16
ATOM     16  C   UNL     1      -3.326 -10.816  16.453  0.00  0.00    +0.116 C 
BRANCH  16  20
ATOM      1  F   UNL     1      -7.879 -10.737  19.770  0.00  0.00    -0.205 F 
ATOM     20  C   UNL     1      -4.543 -10.795  17.339  0.00  0.00    -0.033 A 
ATOM     23  C   UNL     1      -5.674 -10.077  16.953  0.00  0.00    +0.008 A 
ATOM     24  C   UNL     1      -4.539 -11.494  18.546  0.00  0.00    +0.008 A 
ATOM     28  C   UNL     1      -6.801 -10.057  17.774  0.00  0.00    +0.038 A 
ATOM     29  C   UNL     1      -5.665 -11.475  19.368  0.00  0.00    +0.038 A 
ATOM     30  C   UNL     1      -6.797 -10.757  18.981  0.00  0.00    +0.123 A 
ENDBRANCH  16  20
ENDBRANCH   4  16
ENDBRANCH  10   4
ENDBRANCH  11   8
TORSDOF 6
ENDMDL
MODEL 5
REMARK VINA RESULT:      -6.9     23.357     26.737
REMARK  Name = 40780420
REMARK  8 active torsions:
REMARK  status: ('A' for Active; 'I' for Inactive)
REMARK    1  A    between atoms: N_4  and  C_10
REMARK    2  A    between atoms: N_4  and  C_16
REMARK    3  A    between atoms: N_5  and  C_19
REMARK    4  A    between atoms: N_7  and  C_21
REMARK    5  A    between atoms: C_8  and  C_11
REMARK    6  A    between atoms: C_14  and  C_17
REMARK    7  A    between atoms: C_15  and  C_18
REMARK    8  A    between atoms: C_16  and  C_20
REMARK                            x       y       z     vdW  Elec       q    Type
REMARK                         _______ _______ _______ _____ _____    ______ ____
ROOT
ATOM      5  N   UNL     1      -4.110 -10.521  12.593  0.00  0.00    -0.234 N 
ATOM      6  N   UNL     1      -2.888 -10.589  13.149  0.00  0.00    -0.171 NA
ATOM     11  C   UNL     1      -4.536 -10.884  14.704  0.00  0.00    +0.003 A 
ATOM     14  C   UNL     1      -5.130 -10.691  13.481  0.00  0.00    +0.046 A 
ATOM     15  C   UNL     1      -3.154 -10.811  14.439  0.00  0.00    +0.064 A 
ATOM     17  C   UNL     1      -6.555 -10.655  13.095  0.00  0.00    +0.066 C 
ATOM     18  C   UNL     1      -2.043 -10.948  15.396  0.00  0.00    +0.068 C 
ENDROOT
BRANCH   5  19
ATOM     19  C   UNL     1      -4.233 -10.295  11.222  0.00  0.00    +0.096 A 
ATOM     21  C   UNL     1      -4.365 -11.353  10.321  0.00  0.00    +0.151 A 
ATOM     22  C   UNL     1      -4.225  -8.980  10.756  0.00  0.00    +0.030 A 
ATOM     25  C   UNL     1      -4.487 -11.094   8.955  0.00  0.00    +0.035 A 
ATOM     26  C   UNL     1      -4.348  -8.722   9.391  0.00  0.00    +0.002 A 
ATOM     27  C   UNL     1      -4.479  -9.779   8.490  0.00  0.00    +0.002 A 
BRANCH  21   7
ATOM      2  O   UNL     1      -3.285 -13.279  10.985  0.00  0.00    -0.126 OA
ATOM      3  O   UNL     1      -5.479 -13.282  10.915  0.00  0.00    -0.126 OA
ATOM      7  N   UNL     1      -4.376 -12.706  10.763  0.00  0.00    +0.059 N 
ENDBRANCH  21   7
ENDBRANCH   5  19
BRANCH  11   8
ATOM      8  C   UNL     1      -5.214 -11.120  16.034  0.00  0.00    +0.047 C 
ATOM      9  C   UNL     1      -5.229 -12.603  16.454  0.00  0.00    +0.035 C 
ATOM     10  C   UNL     1      -5.104 -12.615  17.986  0.00  0.00    +0.078 C 
ATOM     12  C   UNL     1      -4.542 -10.465  17.205  0.00  0.00    -0.021 C 
ATOM     13  C   UNL     1      -4.492 -11.278  18.266  0.00  0.00    -0.012 C 
BRANCH  10   4
ATOM      4  N   UNL     1      -6.400 -12.754  18.641  0.00  0.00    -0.306 NA
ATOM     31  H   UNL     1      -6.391 -13.588  19.229  0.00  0.00    +0.123 HD
BRANCH   4  16
ATOM     16  C   UNL     1      -6.696 -11.594  19.470  0.00  0.00    +0.116 C 
BRANCH  16  20
ATOM      1  F   UNL     1     -11.558  -9.151  18.008  0.00  0.00    -0.205 F 
ATOM     20  C   UNL     1      -7.995 -10.941  19.080  0.00  0.00    -0.033 A 
ATOM     23  C   UNL     1      -9.163 -11.238  19.781  0.00  0.00    +0.008 A 
ATOM     24  C   UNL     1      -8.030 -10.038  18.017  0.00  0.00    +0.008 A 
ATOM     28  C   UNL     1     -10.367 -10.633  19.419  0.00  0.00    +0.038 A 
ATOM     29  C   UNL     1      -9.233  -9.434  17.654  0.00  0.00    +0.038 A 
ATOM     30  C   UNL     1     -10.402  -9.731  18.356  0.00  0.00    +0.123 A 
ENDBRANCH  16  20
ENDBRANCH   4  16
ENDBRANCH  10   4
ENDBRANCH  11   8
TORSDOF 6
ENDMDL
MODEL 6
REMARK VINA RESULT:      -6.9     23.616     27.844
REMARK  Name = 40780420
REMARK  8 active torsions:
REMARK  status: ('A' for Active; 'I' for Inactive)
REMARK    1  A    between atoms: N_4  and  C_10
REMARK    2  A    between atoms: N_4  and  C_16
REMARK    3  A    between atoms: N_5  and  C_19
REMARK    4  A    between atoms: N_7  and  C_21
REMARK    5  A    between atoms: C_8  and  C_11
REMARK    6  A    between atoms: C_14  and  C_17
REMARK    7  A    between atoms: C_15  and  C_18
REMARK    8  A    between atoms: C_16  and  C_20
REMARK                            x       y       z     vdW  Elec       q    Type
REMARK                         _______ _______ _______ _____ _____    ______ ____
ROOT
ATOM      5  N   UNL     1      -7.149 -10.385  16.657  0.00  0.00    -0.234 N 
ATOM      6  N   UNL     1      -6.202 -10.547  17.597  0.00  0.00    -0.171 NA
ATOM     11  C   UNL     1      -5.437 -11.133  15.525  0.00  0.00    +0.003 A 
ATOM     14  C   UNL     1      -6.741 -10.722  15.400  0.00  0.00    +0.046 A 
ATOM     15  C   UNL     1      -5.158 -11.004  16.900  0.00  0.00    +0.064 A 
ATOM     17  C   UNL     1      -7.614 -10.626  14.212  0.00  0.00    +0.066 C 
ATOM     18  C   UNL     1      -3.897 -11.310  17.598  0.00  0.00    +0.068 C 
ENDROOT
BRANCH   5  19
ATOM     19  C   UNL     1      -8.410  -9.910  17.020  0.00  0.00    +0.096 A 
ATOM     21  C   UNL     1      -9.415 -10.778  17.453  0.00  0.00    +0.151 A 
ATOM     22  C   UNL     1      -8.657  -8.539  16.946  0.00  0.00    +0.030 A 
ATOM     25  C   UNL     1     -10.665 -10.273  17.810  0.00  0.00    +0.035 A 
ATOM     26  C   UNL     1      -9.907  -8.036  17.304  0.00  0.00    +0.002 A 
ATOM     27  C   UNL     1     -10.911  -8.902  17.736  0.00  0.00    +0.002 A 
BRANCH  21   7
ATOM      2  O   UNL     1      -9.403 -12.889  16.527  0.00  0.00    -0.126 OA
ATOM      3  O   UNL     1      -8.802 -12.666  18.626  0.00  0.00    -0.126 OA
ATOM      7  N   UNL     1      -9.195 -12.182  17.539  0.00  0.00    +0.059 N 
ENDBRANCH  21   7
ENDBRANCH   5  19
BRANCH  11   8
ATOM      8  C   UNL     1      -4.511 -11.615  14.433  0.00  0.00    +0.047 C 
ATOM      9  C   UNL     1      -3.138 -10.916  14.447  0.00  0.00    +0.035 C 
ATOM     10  C   UNL     1      -2.117 -11.970  13.987  0.00  0.00    +0.078 C 
ATOM     12  C   UNL     1      -4.132 -13.064  14.526  0.00  0.00    -0.021 C 
ATOM     13  C   UNL     1      -2.831 -13.253  14.276  0.00  0.00    -0.012 C 
BRANCH  10   4
ATOM      4  N   UNL     1      -1.801 -11.844  12.569  0.00  0.00    -0.306 NA
ATOM     31  H   UNL     1      -2.419 -12.453  12.032  0.00  0.00    +0.123 HD
BRANCH   4  16
ATOM     16  C   UNL     1      -1.975 -10.471  12.113  0.00  0.00    +0.116 C 
BRANCH  16  20
ATOM      1  F   UNL     1      -5.418 -10.153   7.665  0.00  0.00    -0.205 F 
ATOM     20  C   UNL     1      -2.895 -10.386  10.925  0.00  0.00    -0.033 A 
ATOM     23  C   UNL     1      -3.528 -11.535  10.450  0.00  0.00    +0.008 A 
ATOM     24  C   UNL     1      -3.115  -9.159  10.300  0.00  0.00    +0.008 A 
ATOM     28  C   UNL     1      -4.380 -11.456   9.348  0.00  0.00    +0.038 A 
ATOM     29  C   UNL     1      -3.967  -9.080   9.199  0.00  0.00    +0.038 A 
ATOM     30  C   UNL     1      -4.600 -10.228   8.723  0.00  0.00    +0.123 A 
ENDBRANCH  16  20
ENDBRANCH   4  16
ENDBRANCH  10   4
ENDBRANCH  11   8
TORSDOF 6
ENDMDL
MODEL 7
REMARK VINA RESULT:      -6.8     36.659     39.690
REMARK  Name = 40780420
REMARK  8 active torsions:
REMARK  status: ('A' for Active; 'I' for Inactive)
REMARK    1  A    between atoms: N_4  and  C_10
REMARK    2  A    between atoms: N_4  and  C_16
REMARK    3  A    between atoms: N_5  and  C_19
REMARK    4  A    between atoms: N_7  and  C_21
REMARK    5  A    between atoms: C_8  and  C_11
REMARK    6  A    between atoms: C_14  and  C_17
REMARK    7  A    between atoms: C_15  and  C_18
REMARK    8  A    between atoms: C_16  and  C_20
REMARK                            x       y       z     vdW  Elec       q    Type
REMARK                         _______ _______ _______ _____ _____    ______ ____
ROOT
ATOM      5  N   UNL     1     -15.128   3.452  32.015  0.00  0.00    -0.234 N 
ATOM      6  N   UNL     1     -16.215   4.087  32.486  0.00  0.00    -0.171 NA
ATOM     11  C   UNL     1     -14.345   5.390  32.646  0.00  0.00    +0.003 A 
ATOM     14  C   UNL     1     -13.984   4.189  32.088  0.00  0.00    +0.046 A 
ATOM     15  C   UNL     1     -15.730   5.271  32.871  0.00  0.00    +0.064 A 
ATOM     17  C   UNL     1     -12.670   3.693  31.630  0.00  0.00    +0.066 C 
ATOM     18  C   UNL     1     -16.640   6.272  33.456  0.00  0.00    +0.068 C 
ENDROOT
BRANCH   5  19
ATOM     19  C   UNL     1     -15.249   2.156  31.513  0.00  0.00    +0.096 A 
ATOM     21  C   UNL     1     -15.756   1.918  30.234  0.00  0.00    +0.151 A 
ATOM     22  C   UNL     1     -14.851   1.086  32.315  0.00  0.00    +0.030 A 
ATOM     25  C   UNL     1     -15.864   0.610  29.760  0.00  0.00    +0.035 A 
ATOM     26  C   UNL     1     -14.959  -0.220  31.839  0.00  0.00    +0.002 A 
ATOM     27  C   UNL     1     -15.465  -0.459  30.562  0.00  0.00    +0.002 A 
BRANCH  21   7
ATOM      2  O   UNL     1     -15.313   3.579  28.698  0.00  0.00    -0.126 OA
ATOM      3  O   UNL     1     -17.385   3.302  29.369  0.00  0.00    -0.126 OA
ATOM      7  N   UNL     1     -16.172   2.987  29.391  0.00  0.00    +0.059 N 
ENDBRANCH  21   7
ENDBRANCH   5  19
BRANCH  11   8
ATOM      8  C   UNL     1     -13.455   6.573  32.951  0.00  0.00    +0.047 C 
ATOM      9  C   UNL     1     -13.771   7.810  32.089  0.00  0.00    +0.035 C 
ATOM     10  C   UNL     1     -13.504   9.034  32.982  0.00  0.00    +0.078 C 
ATOM     12  C   UNL     1     -13.586   7.114  34.344  0.00  0.00    -0.021 C 
ATOM     13  C   UNL     1     -13.604   8.451  34.357  0.00  0.00    -0.012 C 
BRANCH  10   4
ATOM      4  N   UNL     1     -12.186   9.609  32.743  0.00  0.00    -0.306 NA
ATOM     31  H   UNL     1     -11.553   9.324  33.491  0.00  0.00    +0.123 HD
BRANCH   4  16
ATOM     16  C   UNL     1     -11.642   9.161  31.468  0.00  0.00    +0.116 C 
BRANCH  16  20
ATOM      1  F   UNL     1     -11.584  13.292  27.637  0.00  0.00    -0.205 F 
ATOM     20  C   UNL     1     -11.626  10.265  30.444  0.00  0.00    -0.033 A 
ATOM     23  C   UNL     1     -11.651  11.597  30.855  0.00  0.00    +0.008 A 
ATOM     24  C   UNL     1     -11.586   9.955  29.085  0.00  0.00    +0.008 A 
ATOM     28  C   UNL     1     -11.637  12.620  29.907  0.00  0.00    +0.038 A 
ATOM     29  C   UNL     1     -11.572  10.977  28.136  0.00  0.00    +0.038 A 
ATOM     30  C   UNL     1     -11.597  12.310  28.547  0.00  0.00    +0.123 A 
ENDBRANCH  16  20
ENDBRANCH   4  16
ENDBRANCH  10   4
ENDBRANCH  11   8
TORSDOF 6
ENDMDL
MODEL 8
REMARK VINA RESULT:      -6.8     27.700     30.175
REMARK  Name = 40780420
REMARK  8 active torsions:
REMARK  status: ('A' for Active; 'I' for Inactive)
REMARK    1  A    between atoms: N_4  and  C_10
REMARK    2  A    between atoms: N_4  and  C_16
REMARK    3  A    between atoms: N_5  and  C_19
REMARK    4  A    between atoms: N_7  and  C_21
REMARK    5  A    between atoms: C_8  and  C_11
REMARK    6  A    between atoms: C_14  and  C_17
REMARK    7  A    between atoms: C_15  and  C_18
REMARK    8  A    between atoms: C_16  and  C_20
REMARK                            x       y       z     vdW  Elec       q    Type
REMARK                         _______ _______ _______ _____ _____    ______ ____
ROOT
ATOM      5  N   UNL     1      -8.583 -10.569  18.507  0.00  0.00    -0.234 N 
ATOM      6  N   UNL     1      -9.496 -10.770  19.473  0.00  0.00    -0.171 NA
ATOM     11  C   UNL     1     -10.307  -9.417  17.820  0.00  0.00    +0.003 A 
ATOM     14  C   UNL     1      -9.020  -9.766  17.495  0.00  0.00    +0.046 A 
ATOM     15  C   UNL     1     -10.547 -10.064  19.049  0.00  0.00    +0.064 A 
ATOM     17  C   UNL     1      -8.187  -9.407  16.329  0.00  0.00    +0.066 C 
ATOM     18  C   UNL     1     -11.777 -10.034  19.860  0.00  0.00    +0.068 C 
ENDROOT
BRANCH   5  19
ATOM     19  C   UNL     1      -7.326 -11.165  18.609  0.00  0.00    +0.096 A 
ATOM     21  C   UNL     1      -7.061 -12.403  18.018  0.00  0.00    +0.151 A 
ATOM     22  C   UNL     1      -6.323 -10.502  19.315  0.00  0.00    +0.030 A 
ATOM     25  C   UNL     1      -5.794 -12.974  18.136  0.00  0.00    +0.035 A 
ATOM     26  C   UNL     1      -5.057 -11.073  19.432  0.00  0.00    +0.002 A 
ATOM     27  C   UNL     1      -4.792 -12.309  18.843  0.00  0.00    +0.002 A 
BRANCH  21   7
ATOM      2  O   UNL     1      -8.827 -13.881  17.910  0.00  0.00    -0.126 OA
ATOM      3  O   UNL     1      -8.145 -12.930  16.053  0.00  0.00    -0.126 OA
ATOM      7  N   UNL     1      -8.062 -13.106  17.291  0.00  0.00    +0.059 N 
ENDBRANCH  21   7
ENDBRANCH   5  19
BRANCH  11   8
ATOM      8  C   UNL     1     -11.252  -8.536  17.037  0.00  0.00    +0.047 C 
ATOM      9  C   UNL     1     -10.636  -7.177  16.650  0.00  0.00    +0.035 C 
ATOM     10  C   UNL     1     -11.230  -6.813  15.278  0.00  0.00    +0.078 C 
ATOM     12  C   UNL     1     -11.665  -9.088  15.704  0.00  0.00    -0.021 C 
ATOM     13  C   UNL     1     -11.659  -8.147  14.753  0.00  0.00    -0.012 C 
BRANCH  10   4
ATOM      4  N   UNL     1     -12.360  -5.898  15.396  0.00  0.00    -0.306 NA
ATOM     31  H   UNL     1     -12.015  -4.937  15.392  0.00  0.00    +0.123 HD
BRANCH   4  16
ATOM     16  C   UNL     1     -13.292  -6.071  14.290  0.00  0.00    +0.116 C 
BRANCH  16  20
ATOM      1  F   UNL     1     -11.569  -3.380   9.650  0.00  0.00    -0.205 F 
ATOM     20  C   UNL     1     -12.831  -5.352  13.050  0.00  0.00    -0.033 A 
ATOM     23  C   UNL     1     -12.630  -3.972  13.079  0.00  0.00    +0.008 A 
ATOM     24  C   UNL     1     -12.604  -6.066  11.873  0.00  0.00    +0.008 A 
ATOM     28  C   UNL     1     -12.204  -3.306  11.930  0.00  0.00    +0.038 A 
ATOM     29  C   UNL     1     -12.178  -5.400  10.725  0.00  0.00    +0.038 A 
ATOM     30  C   UNL     1     -11.977  -4.020  10.753  0.00  0.00    +0.123 A 
ENDBRANCH  16  20
ENDBRANCH   4  16
ENDBRANCH  10   4
ENDBRANCH  11   8
TORSDOF 6
ENDMDL
MODEL 9
REMARK VINA RESULT:      -6.7     19.027     21.840
REMARK  Name = 40780420
REMARK  8 active torsions:
REMARK  status: ('A' for Active; 'I' for Inactive)
REMARK    1  A    between atoms: N_4  and  C_10
REMARK    2  A    between atoms: N_4  and  C_16
REMARK    3  A    between atoms: N_5  and  C_19
REMARK    4  A    between atoms: N_7  and  C_21
REMARK    5  A    between atoms: C_8  and  C_11
REMARK    6  A    between atoms: C_14  and  C_17
REMARK    7  A    between atoms: C_15  and  C_18
REMARK    8  A    between atoms: C_16  and  C_20
REMARK                            x       y       z     vdW  Elec       q    Type
REMARK                         _______ _______ _______ _____ _____    ______ ____
ROOT
ATOM      5  N   UNL     1      15.395   8.668  20.974  0.00  0.00    -0.234 N 
ATOM      6  N   UNL     1      16.237   9.716  20.974  0.00  0.00    -0.171 NA
ATOM     11  C   UNL     1      17.353   7.741  21.247  0.00  0.00    +0.003 A 
ATOM     14  C   UNL     1      16.014   7.464  21.134  0.00  0.00    +0.046 A 
ATOM     15  C   UNL     1      17.433   9.144  21.142  0.00  0.00    +0.064 A 
ATOM     17  C   UNL     1      15.288   6.178  21.166  0.00  0.00    +0.066 C 
ATOM     18  C   UNL     1      18.639   9.987  21.197  0.00  0.00    +0.068 C 
ENDROOT
BRANCH   5  19
ATOM     19  C   UNL     1      14.026   8.883  20.817  0.00  0.00    +0.096 A 
ATOM     21  C   UNL     1      13.428   8.860  19.555  0.00  0.00    +0.151 A 
ATOM     22  C   UNL     1      13.250   9.121  21.951  0.00  0.00    +0.030 A 
ATOM     25  C   UNL     1      12.055   9.077  19.431  0.00  0.00    +0.035 A 
ATOM     26  C   UNL     1      11.878   9.338  21.826  0.00  0.00    +0.002 A 
ATOM     27  C   UNL     1      11.280   9.316  20.566  0.00  0.00    +0.002 A 
BRANCH  21   7
ATOM      2  O   UNL     1      14.668   9.597  17.756  0.00  0.00    -0.126 OA
ATOM      3  O   UNL     1      14.360   7.437  17.999  0.00  0.00    -0.126 OA
ATOM      7  N   UNL     1      14.191   8.620  18.378  0.00  0.00    +0.059 N 
ENDBRANCH  21   7
ENDBRANCH   5  19
BRANCH  11   8
ATOM      8  C   UNL     1      18.487   6.761  21.443  0.00  0.00    +0.047 C 
ATOM      9  C   UNL     1      19.248   6.445  20.141  0.00  0.00    +0.035 C 
ATOM     10  C   UNL     1      20.716   6.226  20.545  0.00  0.00    +0.078 C 
ATOM     12  C   UNL     1      19.585   7.244  22.343  0.00  0.00    -0.021 C 
ATOM     13  C   UNL     1      20.795   6.944  21.856  0.00  0.00    -0.012 C 
BRANCH  10   4
ATOM      4  N   UNL     1      21.039   4.811  20.693  0.00  0.00    -0.306 NA
ATOM     31  H   UNL     1      20.516   4.274  20.001  0.00  0.00    +0.123 HD
BRANCH   4  16
ATOM     16  C   UNL     1      22.463   4.576  20.497  0.00  0.00    +0.116 C 
BRANCH  16  20
ATOM      1  F   UNL     1      24.349   0.321  23.672  0.00  0.00    -0.205 F 
ATOM     20  C   UNL     1      22.967   3.439  21.345  0.00  0.00    -0.033 A 
ATOM     23  C   UNL     1      22.607   3.361  22.691  0.00  0.00    +0.008 A 
ATOM     24  C   UNL     1      23.792   2.464  20.786  0.00  0.00    +0.008 A 
ATOM     28  C   UNL     1      23.074   2.308  23.477  0.00  0.00    +0.038 A 
ATOM     29  C   UNL     1      24.259   1.411  21.572  0.00  0.00    +0.038 A 
ATOM     30  C   UNL     1      23.900   1.332  22.917  0.00  0.00    +0.123 A 
ENDBRANCH  16  20
ENDBRANCH   4  16
ENDBRANCH  10   4
ENDBRANCH  11   8
TORSDOF 6
ENDMDL
MODEL 10
REMARK VINA RESULT:      -6.7      3.681      8.657
REMARK  Name = 40780420
REMARK  8 active torsions:
REMARK  status: ('A' for Active; 'I' for Inactive)
REMARK    1  A    between atoms: N_4  and  C_10
REMARK    2  A    between atoms: N_4  and  C_16
REMARK    3  A    between atoms: N_5  and  C_19
REMARK    4  A    between atoms: N_7  and  C_21
REMARK    5  A    between atoms: C_8  and  C_11
REMARK    6  A    between atoms: C_14  and  C_17
REMARK    7  A    between atoms: C_15  and  C_18
REMARK    8  A    between atoms: C_16  and  C_20
REMARK                            x       y       z     vdW  Elec       q    Type
REMARK                         _______ _______ _______ _____ _____    ______ ____
ROOT
ATOM      5  N   UNL     1      11.539   6.107   3.478  0.00  0.00    -0.234 N 
ATOM      6  N   UNL     1      12.649   6.846   3.652  0.00  0.00    -0.171 NA
ATOM     11  C   UNL     1      12.884   5.374   1.921  0.00  0.00    +0.003 A 
ATOM     14  C   UNL     1      11.630   5.211   2.454  0.00  0.00    +0.046 A 
ATOM     15  C   UNL     1      13.467   6.394   2.698  0.00  0.00    +0.064 A 
ATOM     17  C   UNL     1      10.533   4.294   2.080  0.00  0.00    +0.066 C 
ATOM     18  C   UNL     1      14.816   6.973   2.565  0.00  0.00    +0.068 C 
ENDROOT
BRANCH   5  19
ATOM     19  C   UNL     1      10.440   6.303   4.313  0.00  0.00    +0.096 A 
ATOM     21  C   UNL     1       9.448   7.235   3.999  0.00  0.00    +0.151 A 
ATOM     22  C   UNL     1      10.341   5.547   5.481  0.00  0.00    +0.030 A 
ATOM     25  C   UNL     1       8.359   7.408   4.854  0.00  0.00    +0.035 A 
ATOM     26  C   UNL     1       9.252   5.721   6.335  0.00  0.00    +0.002 A 
ATOM     27  C   UNL     1       8.261   6.651   6.022  0.00  0.00    +0.002 A 
BRANCH  21   7
ATOM      2  O   UNL     1      10.083   9.139   2.866  0.00  0.00    -0.126 OA
ATOM      3  O   UNL     1       9.013   7.574   1.760  0.00  0.00    -0.126 OA
ATOM      7  N   UNL     1       9.519   8.022   2.816  0.00  0.00    +0.059 N 
ENDBRANCH  21   7
ENDBRANCH   5  19
BRANCH  11   8
ATOM      8  C   UNL     1      13.500   4.626   0.761  0.00  0.00    +0.047 C 
ATOM      9  C   UNL     1      13.962   5.550  -0.382  0.00  0.00    +0.035 C 
ATOM     10  C   UNL     1      15.219   4.896  -0.980  0.00  0.00    +0.078 C 
ATOM     12  C   UNL     1      14.758   3.879   1.094  0.00  0.00    -0.021 C 
ATOM     13  C   UNL     1      15.687   4.022   0.141  0.00  0.00    -0.012 C 
BRANCH  10   4
ATOM      4  N   UNL     1      14.915   4.115  -2.173  0.00  0.00    -0.306 NA
ATOM     31  H   UNL     1      14.574   3.194  -1.894  0.00  0.00    +0.123 HD
BRANCH   4  16
ATOM     16  C   UNL     1      13.898   4.771  -2.984  0.00  0.00    +0.116 C 
BRANCH  16  20
ATOM      1  F   UNL     1       9.272   1.599  -3.521  0.00  0.00    -0.205 F 
ATOM     20  C   UNL     1      12.662   3.923  -3.127  0.00  0.00    -0.033 A 
ATOM     23  C   UNL     1      12.505   2.780  -2.343  0.00  0.00    +0.008 A 
ATOM     24  C   UNL     1      11.673   4.281  -4.043  0.00  0.00    +0.008 A 
ATOM     28  C   UNL     1      11.360   1.995  -2.476  0.00  0.00    +0.038 A 
ATOM     29  C   UNL     1      10.528   3.496  -4.176  0.00  0.00    +0.038 A 
ATOM     30  C   UNL     1      10.371   2.353  -3.392  0.00  0.00    +0.123 A 
ENDBRANCH  16  20
ENDBRANCH   4  16
ENDBRANCH  10   4
ENDBRANCH  11   8
TORSDOF 6
ENDMDL
