MODEL 1
REMARK VINA RESULT:      -7.6      0.000      0.000
REMARK  Name = 38031114
REMARK  10 active torsions:
REMARK  status: ('A' for Active; 'I' for Inactive)
REMARK    1  A    between atoms: N_4  and  C_13
REMARK    2  A    between atoms: C_8  and  C_12
REMARK    3  A    between atoms: C_9  and  C_13
REMARK    4  A    between atoms: C_11  and  C_18
REMARK    5  A    between atoms: C_12  and  C_22
REMARK    6  A    between atoms: C_12  and  C_23
REMARK    7  A    between atoms: C_15  and  C_24
REMARK    8  A    between atoms: C_18  and  C_25
REMARK    9  A    between atoms: C_19  and  C_26
REMARK   10  A    between atoms: C_27  and  C_28
REMARK                            x       y       z     vdW  Elec       q    Type
REMARK                         _______ _______ _______ _____ _____    ______ ____
ROOT
ATOM      8  C   UNL     1      -5.526 -10.413  10.536  0.00  0.00    +0.000 C 
ATOM      9  C   UNL     1      -4.706 -10.039   9.279  0.00  0.00    +0.029 C 
ATOM     10  C   UNL     1      -4.645 -11.157  11.551  0.00  0.00    +0.012 C 
ATOM     11  C   UNL     1      -3.394 -10.359  11.974  0.00  0.00    +0.024 C 
ATOM     14  C   UNL     1      -3.345  -9.487   9.620  0.00  0.00    -0.023 C 
ATOM     15  C   UNL     1      -2.747  -9.607  10.819  0.00  0.00    -0.073 C 
ATOM     24  C   UNL     1      -1.424  -8.943  11.078  0.00  0.00    +0.039 C 
ENDROOT
BRANCH   8  12
ATOM     12  C   UNL     1      -6.178  -9.177  11.167  0.00  0.00    -0.013 C 
ATOM     22  C   UNL     1      -7.402  -8.751  10.363  0.00  0.00    +0.007 C 
ATOM     23  C   UNL     1      -6.555  -9.457  12.619  0.00  0.00    +0.007 C 
ENDBRANCH   8  12
BRANCH   9  13
ATOM     13  C   UNL     1      -4.542 -11.233   8.333  0.00  0.00    +0.092 C 
BRANCH  13   4
ATOM      4  N   UNL     1      -5.032 -10.902   6.994  0.00  0.00    -0.302 NA
ATOM     16  C   UNL     1      -5.373 -12.126   6.256  0.00  0.00    +0.085 C 
ATOM     17  C   UNL     1      -6.184  -9.994   7.078  0.00  0.00    +0.085 C 
ATOM     19  C   UNL     1      -7.010 -10.826   4.843  0.00  0.00    +0.077 C 
ATOM     20  C   UNL     1      -5.835 -11.801   4.834  0.00  0.00    +0.028 C 
ATOM     21  C   UNL     1      -6.674  -9.596   5.686  0.00  0.00    +0.028 C 
BRANCH  19  26
ATOM      3  O   UNL     1      -7.158 -11.136   2.479  0.00  0.00    -0.276 OA
ATOM      6  N   UNL     1      -7.846  -9.126   3.360  0.00  0.00    -0.329 N 
ATOM     26  C   UNL     1      -7.342 -10.402   3.446  0.00  0.00    +0.214 C 
ATOM     34  H   UNL     1      -7.976  -8.534   4.174  0.00  0.00    +0.145 HD
ATOM     35  H   UNL     1      -8.103  -8.726   2.463  0.00  0.00    +0.145 HD
ENDBRANCH  19  26
ENDBRANCH  13   4
ENDBRANCH   9  13
BRANCH  11  18
ATOM     18  C   UNL     1      -2.422 -11.311  12.684  0.00  0.00    +0.105 C 
BRANCH  18  25
ATOM      2  O   UNL     1      -3.557 -11.168  14.841  0.00  0.00    -0.420 OA
ATOM      5  N   UNL     1      -1.367 -10.719  14.926  0.00  0.00    -0.112 NA
ATOM      7  N   UNL     1      -1.877 -10.602  16.206  0.00  0.00    -0.107 NA
ATOM     25  C   UNL     1      -2.382 -11.051  14.163  0.00  0.00    +0.218 A 
ATOM     27  C   UNL     1      -3.158 -10.872  16.108  0.00  0.00    +0.251 A 
BRANCH  27  28
ATOM      1  F   UNL     1      -5.513  -9.372  15.872  0.00  0.00    -0.205 F 
ATOM     28  C   UNL     1      -4.182 -10.904  17.111  0.00  0.00    +0.074 A 
ATOM     29  C   UNL     1      -5.340 -10.142  16.956  0.00  0.00    +0.136 A 
ATOM     30  C   UNL     1      -4.017 -11.700  18.245  0.00  0.00    +0.016 A 
ATOM     31  C   UNL     1      -6.334 -10.176  17.934  0.00  0.00    +0.039 A 
ATOM     32  C   UNL     1      -5.011 -11.735  19.223  0.00  0.00    +0.001 A 
ATOM     33  C   UNL     1      -6.169 -10.973  19.068  0.00  0.00    +0.003 A 
ENDBRANCH  27  28
ENDBRANCH  18  25
ENDBRANCH  11  18
TORSDOF 7
ENDMDL
MODEL 2
REMARK VINA RESULT:      -7.3     20.591     22.967
REMARK  Name = 38031114
REMARK  10 active torsions:
REMARK  status: ('A' for Active; 'I' for Inactive)
REMARK    1  A    between atoms: N_4  and  C_13
REMARK    2  A    between atoms: C_8  and  C_12
REMARK    3  A    between atoms: C_9  and  C_13
REMARK    4  A    between atoms: C_11  and  C_18
REMARK    5  A    between atoms: C_12  and  C_22
REMARK    6  A    between atoms: C_12  and  C_23
REMARK    7  A    between atoms: C_15  and  C_24
REMARK    8  A    between atoms: C_18  and  C_25
REMARK    9  A    between atoms: C_19  and  C_26
REMARK   10  A    between atoms: C_27  and  C_28
REMARK                            x       y       z     vdW  Elec       q    Type
REMARK                         _______ _______ _______ _____ _____    ______ ____
ROOT
ATOM      8  C   UNL     1     -13.347  10.544  21.834  0.00  0.00    +0.000 C 
ATOM      9  C   UNL     1     -11.995  10.408  21.095  0.00  0.00    +0.029 C 
ATOM     10  C   UNL     1     -14.373   9.554  21.263  0.00  0.00    +0.012 C 
ATOM     11  C   UNL     1     -13.903   8.085  21.320  0.00  0.00    +0.024 C 
ATOM     14  C   UNL     1     -11.594   8.970  20.881  0.00  0.00    -0.023 C 
ATOM     15  C   UNL     1     -12.427   7.919  20.989  0.00  0.00    -0.073 C 
ATOM     24  C   UNL     1     -11.902   6.518  20.839  0.00  0.00    +0.039 C 
ENDROOT
BRANCH   8  12
ATOM     12  C   UNL     1     -13.179  10.358  23.347  0.00  0.00    -0.013 C 
ATOM     22  C   UNL     1     -12.126  11.320  23.888  0.00  0.00    +0.007 C 
ATOM     23  C   UNL     1     -14.512  10.559  24.060  0.00  0.00    +0.007 C 
ENDBRANCH   8  12
BRANCH   9  13
ATOM     13  C   UNL     1     -12.012  11.132  19.745  0.00  0.00    +0.092 C 
BRANCH  13   4
ATOM      4  N   UNL     1     -11.632  10.221  18.665  0.00  0.00    -0.302 NA
ATOM     16  C   UNL     1     -12.777   9.972  17.777  0.00  0.00    +0.085 C 
ATOM     17  C   UNL     1     -10.488  10.760  17.917  0.00  0.00    +0.085 C 
ATOM     19  C   UNL     1     -11.200   9.457  15.876  0.00  0.00    +0.077 C 
ATOM     20  C   UNL     1     -12.412   8.979  16.673  0.00  0.00    +0.028 C 
ATOM     21  C   UNL     1     -10.044   9.795  16.817  0.00  0.00    +0.028 C 
BRANCH  19  26
ATOM      3  O   UNL     1     -10.907   8.526  13.695  0.00  0.00    -0.276 OA
ATOM      6  N   UNL     1     -10.222   7.289  15.509  0.00  0.00    -0.329 N 
ATOM     26  C   UNL     1     -10.766   8.399  14.909  0.00  0.00    +0.214 C 
ATOM     34  H   UNL     1     -10.129   7.203  16.516  0.00  0.00    +0.145 HD
ATOM     35  H   UNL     1      -9.896   6.503  14.955  0.00  0.00    +0.145 HD
ENDBRANCH  19  26
ENDBRANCH  13   4
ENDBRANCH   9  13
BRANCH  11  18
ATOM     18  C   UNL     1     -14.815   7.243  20.418  0.00  0.00    +0.105 C 
BRANCH  18  25
ATOM      2  O   UNL     1     -15.647   6.354  22.533  0.00  0.00    -0.420 OA
ATOM      5  N   UNL     1     -16.003   5.018  20.775  0.00  0.00    -0.112 NA
ATOM      7  N   UNL     1     -16.520   4.395  21.896  0.00  0.00    -0.107 NA
ATOM     25  C   UNL     1     -15.504   6.158  21.194  0.00  0.00    +0.218 A 
ATOM     27  C   UNL     1     -16.289   5.211  22.899  0.00  0.00    +0.251 A 
BRANCH  27  28
ATOM      1  F   UNL     1     -15.297   3.108  24.462  0.00  0.00    -0.205 F 
ATOM     28  C   UNL     1     -16.604   5.087  24.292  0.00  0.00    +0.074 A 
ATOM     29  C   UNL     1     -16.090   4.024  25.036  0.00  0.00    +0.136 A 
ATOM     30  C   UNL     1     -17.428   6.032  24.904  0.00  0.00    +0.016 A 
ATOM     31  C   UNL     1     -16.399   3.907  26.391  0.00  0.00    +0.039 A 
ATOM     32  C   UNL     1     -17.736   5.916  26.259  0.00  0.00    +0.001 A 
ATOM     33  C   UNL     1     -17.222   4.853  27.003  0.00  0.00    +0.003 A 
ENDBRANCH  27  28
ENDBRANCH  18  25
ENDBRANCH  11  18
TORSDOF 7
ENDMDL
MODEL 3
REMARK VINA RESULT:      -7.0     21.049     22.517
REMARK  Name = 38031114
REMARK  10 active torsions:
REMARK  status: ('A' for Active; 'I' for Inactive)
REMARK    1  A    between atoms: N_4  and  C_13
REMARK    2  A    between atoms: C_8  and  C_12
REMARK    3  A    between atoms: C_9  and  C_13
REMARK    4  A    between atoms: C_11  and  C_18
REMARK    5  A    between atoms: C_12  and  C_22
REMARK    6  A    between atoms: C_12  and  C_23
REMARK    7  A    between atoms: C_15  and  C_24
REMARK    8  A    between atoms: C_18  and  C_25
REMARK    9  A    between atoms: C_19  and  C_26
REMARK   10  A    between atoms: C_27  and  C_28
REMARK                            x       y       z     vdW  Elec       q    Type
REMARK                         _______ _______ _______ _____ _____    ______ ____
ROOT
ATOM      8  C   UNL     1     -13.269   8.653  20.523  0.00  0.00    +0.000 C 
ATOM      9  C   UNL     1     -11.932   7.879  20.442  0.00  0.00    +0.029 C 
ATOM     10  C   UNL     1     -14.456   7.697  20.336  0.00  0.00    +0.012 C 
ATOM     11  C   UNL     1     -14.472   6.536  21.354  0.00  0.00    +0.024 C 
ATOM     14  C   UNL     1     -11.965   6.584  21.213  0.00  0.00    -0.023 C 
ATOM     15  C   UNL     1     -13.087   5.976  21.640  0.00  0.00    -0.073 C 
ATOM     24  C   UNL     1     -13.002   4.730  22.477  0.00  0.00    +0.039 C 
ENDROOT
BRANCH   8  12
ATOM     12  C   UNL     1     -13.386   9.432  21.840  0.00  0.00    -0.013 C 
ATOM     22  C   UNL     1     -12.332  10.533  21.902  0.00  0.00    +0.007 C 
ATOM     23  C   UNL     1     -14.787  10.015  21.991  0.00  0.00    +0.007 C 
ENDBRANCH   8  12
BRANCH   9  13
ATOM     13  C   UNL     1     -11.532   7.592  18.991  0.00  0.00    +0.092 C 
BRANCH  13   4
ATOM      4  N   UNL     1     -11.317   8.839  18.257  0.00  0.00    -0.302 NA
ATOM     16  C   UNL     1     -10.282   9.649  18.915  0.00  0.00    +0.085 C 
ATOM     17  C   UNL     1     -10.963   8.558  16.859  0.00  0.00    +0.085 C 
ATOM     19  C   UNL     1      -9.750  10.767  16.717  0.00  0.00    +0.077 C 
ATOM     20  C   UNL     1     -10.083  10.982  18.191  0.00  0.00    +0.028 C 
ATOM     21  C   UNL     1     -10.786   9.853  16.064  0.00  0.00    +0.028 C 
BRANCH  19  26
ATOM      3  O   UNL     1      -9.089  13.045  16.427  0.00  0.00    -0.276 OA
ATOM      6  N   UNL     1     -10.456  12.096  14.839  0.00  0.00    -0.329 N 
ATOM     26  C   UNL     1      -9.715  12.080  15.997  0.00  0.00    +0.214 C 
ATOM     34  H   UNL     1     -10.976  11.288  14.512  0.00  0.00    +0.145 HD
ATOM     35  H   UNL     1     -10.513  12.933  14.267  0.00  0.00    +0.145 HD
ENDBRANCH  19  26
ENDBRANCH  13   4
ENDBRANCH   9  13
BRANCH  11  18
ATOM     18  C   UNL     1     -15.459   5.468  20.863  0.00  0.00    +0.105 C 
BRANCH  18  25
ATOM      2  O   UNL     1     -16.290   3.932  22.568  0.00  0.00    -0.420 OA
ATOM      5  N   UNL     1     -17.507   5.795  22.343  0.00  0.00    -0.112 NA
ATOM      7  N   UNL     1     -18.086   5.024  23.333  0.00  0.00    -0.107 NA
ATOM     25  C   UNL     1     -16.461   5.119  21.925  0.00  0.00    +0.218 A 
ATOM     27  C   UNL     1     -17.343   3.945  23.430  0.00  0.00    +0.251 A 
BRANCH  27  28
ATOM      1  F   UNL     1     -15.356   3.257  25.281  0.00  0.00    -0.205 F 
ATOM     28  C   UNL     1     -17.467   2.803  24.287  0.00  0.00    +0.074 A 
ATOM     29  C   UNL     1     -16.454   2.494  25.196  0.00  0.00    +0.136 A 
ATOM     30  C   UNL     1     -18.605   1.999  24.211  0.00  0.00    +0.016 A 
ATOM     31  C   UNL     1     -16.579   1.382  26.028  0.00  0.00    +0.039 A 
ATOM     32  C   UNL     1     -18.730   0.887  25.044  0.00  0.00    +0.001 A 
ATOM     33  C   UNL     1     -17.717   0.578  25.952  0.00  0.00    +0.003 A 
ENDBRANCH  27  28
ENDBRANCH  18  25
ENDBRANCH  11  18
TORSDOF 7
ENDMDL
MODEL 4
REMARK VINA RESULT:      -6.9      7.218     12.052
REMARK  Name = 38031114
REMARK  10 active torsions:
REMARK  status: ('A' for Active; 'I' for Inactive)
REMARK    1  A    between atoms: N_4  and  C_13
REMARK    2  A    between atoms: C_8  and  C_12
REMARK    3  A    between atoms: C_9  and  C_13
REMARK    4  A    between atoms: C_11  and  C_18
REMARK    5  A    between atoms: C_12  and  C_22
REMARK    6  A    between atoms: C_12  and  C_23
REMARK    7  A    between atoms: C_15  and  C_24
REMARK    8  A    between atoms: C_18  and  C_25
REMARK    9  A    between atoms: C_19  and  C_26
REMARK   10  A    between atoms: C_27  and  C_28
REMARK                            x       y       z     vdW  Elec       q    Type
REMARK                         _______ _______ _______ _____ _____    ______ ____
ROOT
ATOM      8  C   UNL     1     -10.105  -9.131  17.457  0.00  0.00    +0.000 C 
ATOM      9  C   UNL     1      -9.250  -9.750  16.326  0.00  0.00    +0.029 C 
ATOM     10  C   UNL     1     -10.532  -7.703  17.087  0.00  0.00    +0.012 C 
ATOM     11  C   UNL     1     -11.307  -7.621  15.755  0.00  0.00    +0.024 C 
ATOM     14  C   UNL     1      -9.819  -9.481  14.956  0.00  0.00    -0.023 C 
ATOM     15  C   UNL     1     -10.747  -8.544  14.683  0.00  0.00    -0.073 C 
ATOM     24  C   UNL     1     -11.310  -8.418  13.294  0.00  0.00    +0.039 C 
ENDROOT
BRANCH   8  12
ATOM     12  C   UNL     1     -11.321 -10.007  17.782  0.00  0.00    -0.013 C 
ATOM     22  C   UNL     1     -10.873 -11.352  18.344  0.00  0.00    +0.007 C 
ATOM     23  C   UNL     1     -12.245  -9.292  18.763  0.00  0.00    +0.007 C 
ENDBRANCH   8  12
BRANCH   9  13
ATOM     13  C   UNL     1      -7.801  -9.254  16.375  0.00  0.00    +0.092 C 
BRANCH  13   4
ATOM      4  N   UNL     1      -6.925 -10.275  16.949  0.00  0.00    -0.302 NA
ATOM     16  C   UNL     1      -5.526 -10.017  16.580  0.00  0.00    +0.085 C 
ATOM     17  C   UNL     1      -7.088 -10.330  18.409  0.00  0.00    +0.085 C 
ATOM     19  C   UNL     1      -4.748 -11.248  18.641  0.00  0.00    +0.077 C 
ATOM     20  C   UNL     1      -4.602 -11.107  17.128  0.00  0.00    +0.028 C 
ATOM     21  C   UNL     1      -6.218 -11.430  19.020  0.00  0.00    +0.028 C 
BRANCH  19  26
ATOM      3  O   UNL     1      -3.112 -12.314  20.018  0.00  0.00    -0.276 OA
ATOM      6  N   UNL     1      -4.252 -13.598  18.487  0.00  0.00    -0.329 N 
ATOM     26  C   UNL     1      -3.955 -12.421  19.131  0.00  0.00    +0.214 C 
ATOM     34  H   UNL     1      -4.945 -13.656  17.747  0.00  0.00    +0.145 HD
ATOM     35  H   UNL     1      -3.775 -14.460  18.730  0.00  0.00    +0.145 HD
ENDBRANCH  19  26
ENDBRANCH  13   4
ENDBRANCH   9  13
BRANCH  11  18
ATOM     18  C   UNL     1     -11.363  -6.155  15.309  0.00  0.00    +0.105 C 
BRANCH  18  25
ATOM      2  O   UNL     1     -12.524  -5.194  13.389  0.00  0.00    -0.420 OA
ATOM      5  N   UNL     1     -13.878  -6.131  14.903  0.00  0.00    -0.112 NA
ATOM      7  N   UNL     1     -14.662  -5.632  13.879  0.00  0.00    -0.107 NA
ATOM     25  C   UNL     1     -12.638  -5.853  14.574  0.00  0.00    +0.218 A 
ATOM     27  C   UNL     1     -13.829  -5.094  13.018  0.00  0.00    +0.251 A 
BRANCH  27  28
ATOM      1  F   UNL     1     -15.199  -2.653  12.885  0.00  0.00    -0.205 F 
ATOM     28  C   UNL     1     -14.079  -4.430  11.772  0.00  0.00    +0.074 A 
ATOM     29  C   UNL     1     -14.765  -3.215  11.748  0.00  0.00    +0.136 A 
ATOM     30  C   UNL     1     -13.632  -5.002  10.581  0.00  0.00    +0.016 A 
ATOM     31  C   UNL     1     -15.005  -2.573  10.534  0.00  0.00    +0.039 A 
ATOM     32  C   UNL     1     -13.872  -4.359   9.366  0.00  0.00    +0.001 A 
ATOM     33  C   UNL     1     -14.558  -3.145   9.342  0.00  0.00    +0.003 A 
ENDBRANCH  27  28
ENDBRANCH  18  25
ENDBRANCH  11  18
TORSDOF 7
ENDMDL
MODEL 5
REMARK VINA RESULT:      -6.9      4.658     10.647
REMARK  Name = 38031114
REMARK  10 active torsions:
REMARK  status: ('A' for Active; 'I' for Inactive)
REMARK    1  A    between atoms: N_4  and  C_13
REMARK    2  A    between atoms: C_8  and  C_12
REMARK    3  A    between atoms: C_9  and  C_13
REMARK    4  A    between atoms: C_11  and  C_18
REMARK    5  A    between atoms: C_12  and  C_22
REMARK    6  A    between atoms: C_12  and  C_23
REMARK    7  A    between atoms: C_15  and  C_24
REMARK    8  A    between atoms: C_18  and  C_25
REMARK    9  A    between atoms: C_19  and  C_26
REMARK   10  A    between atoms: C_27  and  C_28
REMARK                            x       y       z     vdW  Elec       q    Type
REMARK                         _______ _______ _______ _____ _____    ______ ____
ROOT
ATOM      8  C   UNL     1      -7.596 -12.152  17.152  0.00  0.00    +0.000 C 
ATOM      9  C   UNL     1      -7.627 -12.061  18.695  0.00  0.00    +0.029 C 
ATOM     10  C   UNL     1      -6.437 -11.317  16.587  0.00  0.00    +0.012 C 
ATOM     11  C   UNL     1      -5.060 -11.723  17.152  0.00  0.00    +0.024 C 
ATOM     14  C   UNL     1      -6.257 -12.190  19.310  0.00  0.00    -0.023 C 
ATOM     15  C   UNL     1      -5.100 -12.055  18.637  0.00  0.00    -0.073 C 
ATOM     24  C   UNL     1      -3.787 -12.290  19.331  0.00  0.00    +0.039 C 
ENDROOT
BRANCH   8  12
ATOM     12  C   UNL     1      -7.513 -13.609  16.679  0.00  0.00    -0.013 C 
ATOM     22  C   UNL     1      -8.576 -14.455  17.372  0.00  0.00    +0.007 C 
ATOM     23  C   UNL     1      -7.666 -13.686  15.163  0.00  0.00    +0.007 C 
ENDBRANCH   8  12
BRANCH   9  13
ATOM     13  C   UNL     1      -8.273 -10.756  19.173  0.00  0.00    +0.092 C 
BRANCH  13   4
ATOM      4  N   UNL     1      -9.490 -11.031  19.936  0.00  0.00    -0.302 NA
ATOM     16  C   UNL     1     -10.635 -10.320  19.350  0.00  0.00    +0.085 C 
ATOM     17  C   UNL     1      -9.740 -12.477  20.002  0.00  0.00    +0.085 C 
ATOM     19  C   UNL     1     -12.207 -12.043  20.312  0.00  0.00    +0.077 C 
ATOM     20  C   UNL     1     -11.907 -10.553  20.168  0.00  0.00    +0.028 C 
ATOM     21  C   UNL     1     -10.980 -12.785  20.842  0.00  0.00    +0.028 C 
BRANCH  19  26
ATOM      3  O   UNL     1     -14.466 -12.610  20.846  0.00  0.00    -0.276 OA
ATOM      6  N   UNL     1     -13.063 -11.988  22.560  0.00  0.00    -0.329 N 
ATOM     26  C   UNL     1     -13.361 -12.252  21.244  0.00  0.00    +0.214 C 
ATOM     34  H   UNL     1     -12.144 -11.680  22.861  0.00  0.00    +0.145 HD
ATOM     35  H   UNL     1     -13.767 -12.090  23.284  0.00  0.00    +0.145 HD
ENDBRANCH  19  26
ENDBRANCH  13   4
ENDBRANCH   9  13
BRANCH  11  18
ATOM     18  C   UNL     1      -4.048 -10.621  16.815  0.00  0.00    +0.105 C 
BRANCH  18  25
ATOM      2  O   UNL     1      -4.063 -10.322  14.392  0.00  0.00    -0.420 OA
ATOM      5  N   UNL     1      -2.316 -11.489  15.161  0.00  0.00    -0.112 NA
ATOM      7  N   UNL     1      -2.197 -11.398  13.786  0.00  0.00    -0.107 NA
ATOM     25  C   UNL     1      -3.418 -10.847  15.470  0.00  0.00    +0.218 A 
ATOM     27  C   UNL     1      -3.239 -10.709  13.381  0.00  0.00    +0.251 A 
BRANCH  27  28
ATOM      1  F   UNL     1      -1.436  -9.538  11.583  0.00  0.00    -0.205 F 
ATOM     28  C   UNL     1      -3.634 -10.309  12.062  0.00  0.00    +0.074 A 
ATOM     29  C   UNL     1      -2.706  -9.728  11.197  0.00  0.00    +0.136 A 
ATOM     30  C   UNL     1      -4.951 -10.501  11.645  0.00  0.00    +0.016 A 
ATOM     31  C   UNL     1      -3.095  -9.340   9.915  0.00  0.00    +0.039 A 
ATOM     32  C   UNL     1      -5.340 -10.114  10.362  0.00  0.00    +0.001 A 
ATOM     33  C   UNL     1      -4.412  -9.533   9.497  0.00  0.00    +0.003 A 
ENDBRANCH  27  28
ENDBRANCH  18  25
ENDBRANCH  11  18
TORSDOF 7
ENDMDL
MODEL 6
REMARK VINA RESULT:      -6.8     22.512     26.431
REMARK  Name = 38031114
REMARK  10 active torsions:
REMARK  status: ('A' for Active; 'I' for Inactive)
REMARK    1  A    between atoms: N_4  and  C_13
REMARK    2  A    between atoms: C_8  and  C_12
REMARK    3  A    between atoms: C_9  and  C_13
REMARK    4  A    between atoms: C_11  and  C_18
REMARK    5  A    between atoms: C_12  and  C_22
REMARK    6  A    between atoms: C_12  and  C_23
REMARK    7  A    between atoms: C_15  and  C_24
REMARK    8  A    between atoms: C_18  and  C_25
REMARK    9  A    between atoms: C_19  and  C_26
REMARK   10  A    between atoms: C_27  and  C_28
REMARK                            x       y       z     vdW  Elec       q    Type
REMARK                         _______ _______ _______ _____ _____    ______ ____
ROOT
ATOM      8  C   UNL     1      11.255   6.486   3.630  0.00  0.00    +0.000 C 
ATOM      9  C   UNL     1      10.120   7.518   3.830  0.00  0.00    +0.029 C 
ATOM     10  C   UNL     1      10.915   5.531   2.476  0.00  0.00    +0.012 C 
ATOM     11  C   UNL     1      10.641   6.257   1.142  0.00  0.00    +0.024 C 
ATOM     14  C   UNL     1       9.616   8.084   2.527  0.00  0.00    -0.023 C 
ATOM     15  C   UNL     1       9.848   7.544   1.317  0.00  0.00    -0.073 C 
ATOM     24  C   UNL     1       9.370   8.240   0.072  0.00  0.00    +0.039 C 
ENDROOT
BRANCH   8  12
ATOM     12  C   UNL     1      12.605   7.177   3.399  0.00  0.00    -0.013 C 
ATOM     22  C   UNL     1      13.222   7.596   4.730  0.00  0.00    +0.007 C 
ATOM     23  C   UNL     1      13.549   6.257   2.632  0.00  0.00    +0.007 C 
ENDBRANCH   8  12
BRANCH   9  13
ATOM     13  C   UNL     1       8.943   6.921   4.609  0.00  0.00    +0.092 C 
BRANCH  13   4
ATOM      4  N   UNL     1       9.356   6.541   5.960  0.00  0.00    -0.302 NA
ATOM     16  C   UNL     1       8.525   7.224   6.961  0.00  0.00    +0.085 C 
ATOM     17  C   UNL     1       9.297   5.083   6.125  0.00  0.00    +0.085 C 
ATOM     19  C   UNL     1       8.980   5.371   8.613  0.00  0.00    +0.077 C 
ATOM     20  C   UNL     1       8.979   6.881   8.381  0.00  0.00    +0.028 C 
ATOM     21  C   UNL     1       9.777   4.665   7.516  0.00  0.00    +0.028 C 
BRANCH  19  26
ATOM      3  O   UNL     1      10.748   5.302  10.218  0.00  0.00    -0.276 OA
ATOM      6  N   UNL     1       8.697   4.449  10.818  0.00  0.00    -0.329 N 
ATOM     26  C   UNL     1       9.576   5.053   9.949  0.00  0.00    +0.214 C 
ATOM     34  H   UNL     1       7.736   4.241  10.565  0.00  0.00    +0.145 HD
ATOM     35  H   UNL     1       8.989   4.182  11.752  0.00  0.00    +0.145 HD
ENDBRANCH  19  26
ENDBRANCH  13   4
ENDBRANCH   9  13
BRANCH  11  18
ATOM     18  C   UNL     1       9.972   5.271   0.176  0.00  0.00    +0.105 C 
BRANCH  18  25
ATOM      2  O   UNL     1      12.256   5.017  -0.645  0.00  0.00    -0.420 OA
ATOM      5  N   UNL     1      10.848   3.429  -1.351  0.00  0.00    -0.112 NA
ATOM      7  N   UNL     1      12.095   3.164  -1.887  0.00  0.00    -0.107 NA
ATOM     25  C   UNL     1      10.990   4.519  -0.633  0.00  0.00    +0.218 A 
ATOM     27  C   UNL     1      12.885   4.116  -1.448  0.00  0.00    +0.251 A 
BRANCH  27  28
ATOM      1  F   UNL     1      13.835   5.134  -3.880  0.00  0.00    -0.205 F 
ATOM     28  C   UNL     1      14.281   4.349  -1.681  0.00  0.00    +0.074 A 
ATOM     29  C   UNL     1      14.713   4.856  -2.906  0.00  0.00    +0.136 A 
ATOM     30  C   UNL     1      15.207   4.066  -0.676  0.00  0.00    +0.016 A 
ATOM     31  C   UNL     1      16.072   5.081  -3.127  0.00  0.00    +0.039 A 
ATOM     32  C   UNL     1      16.565   4.292  -0.897  0.00  0.00    +0.001 A 
ATOM     33  C   UNL     1      16.998   4.799  -2.122  0.00  0.00    +0.003 A 
ENDBRANCH  27  28
ENDBRANCH  18  25
ENDBRANCH  11  18
TORSDOF 7
ENDMDL
MODEL 7
REMARK VINA RESULT:      -6.8      3.295      5.526
REMARK  Name = 38031114
REMARK  10 active torsions:
REMARK  status: ('A' for Active; 'I' for Inactive)
REMARK    1  A    between atoms: N_4  and  C_13
REMARK    2  A    between atoms: C_8  and  C_12
REMARK    3  A    between atoms: C_9  and  C_13
REMARK    4  A    between atoms: C_11  and  C_18
REMARK    5  A    between atoms: C_12  and  C_22
REMARK    6  A    between atoms: C_12  and  C_23
REMARK    7  A    between atoms: C_15  and  C_24
REMARK    8  A    between atoms: C_18  and  C_25
REMARK    9  A    between atoms: C_19  and  C_26
REMARK   10  A    between atoms: C_27  and  C_28
REMARK                            x       y       z     vdW  Elec       q    Type
REMARK                         _______ _______ _______ _____ _____    ______ ____
ROOT
ATOM      8  C   UNL     1      -3.758 -10.671  14.730  0.00  0.00    +0.000 C 
ATOM      9  C   UNL     1      -4.885 -10.919  13.700  0.00  0.00    +0.029 C 
ATOM     10  C   UNL     1      -4.136 -11.269  16.093  0.00  0.00    +0.012 C 
ATOM     11  C   UNL     1      -4.453 -12.779  16.032  0.00  0.00    +0.024 C 
ATOM     14  C   UNL     1      -5.431 -12.322  13.764  0.00  0.00    -0.023 C 
ATOM     15  C   UNL     1      -5.239 -13.172  14.790  0.00  0.00    -0.073 C 
ATOM     24  C   UNL     1      -5.757 -14.582  14.714  0.00  0.00    +0.039 C 
ENDROOT
BRANCH   8  12
ATOM     12  C   UNL     1      -2.416 -11.224  14.235  0.00  0.00    -0.013 C 
ATOM     22  C   UNL     1      -2.090 -10.669  12.852  0.00  0.00    +0.007 C 
ATOM     23  C   UNL     1      -1.305 -10.892  15.226  0.00  0.00    +0.007 C 
ENDBRANCH   8  12
BRANCH   9  13
ATOM     13  C   UNL     1      -6.037  -9.922  13.870  0.00  0.00    +0.092 C 
BRANCH  13   4
ATOM      4  N   UNL     1      -6.342  -9.264  12.599  0.00  0.00    -0.302 NA
ATOM     16  C   UNL     1      -5.176  -9.307  11.706  0.00  0.00    +0.085 C 
ATOM     17  C   UNL     1      -7.517  -9.883  11.969  0.00  0.00    +0.085 C 
ATOM     19  C   UNL     1      -6.697  -9.142   9.700  0.00  0.00    +0.077 C 
ATOM     20  C   UNL     1      -5.460  -8.575  10.393  0.00  0.00    +0.028 C 
ATOM     21  C   UNL     1      -7.882  -9.172  10.666  0.00  0.00    +0.028 C 
BRANCH  19  26
ATOM      3  O   UNL     1      -7.741  -7.302   8.589  0.00  0.00    -0.276 OA
ATOM      6  N   UNL     1      -6.535  -8.798   7.323  0.00  0.00    -0.329 N 
ATOM     26  C   UNL     1      -7.047  -8.312   8.503  0.00  0.00    +0.214 C 
ATOM     34  H   UNL     1      -5.975  -9.643   7.278  0.00  0.00    +0.145 HD
ATOM     35  H   UNL     1      -6.710  -8.322   6.444  0.00  0.00    +0.145 HD
ENDBRANCH  19  26
ENDBRANCH  13   4
ENDBRANCH   9  13
BRANCH  11  18
ATOM     18  C   UNL     1      -5.155 -13.185  17.335  0.00  0.00    +0.105 C 
BRANCH  18  25
ATOM      2  O   UNL     1      -6.996 -11.588  17.470  0.00  0.00    -0.420 OA
ATOM      5  N   UNL     1      -5.414 -11.295  19.024  0.00  0.00    -0.112 NA
ATOM      7  N   UNL     1      -6.386 -10.331  19.217  0.00  0.00    -0.107 NA
ATOM     25  C   UNL     1      -5.812 -12.006  17.994  0.00  0.00    +0.218 A 
ATOM     27  C   UNL     1      -7.289 -10.540  18.287  0.00  0.00    +0.251 A 
BRANCH  27  28
ATOM      1  F   UNL     1      -9.703 -11.231  19.530  0.00  0.00    -0.205 F 
ATOM     28  C   UNL     1      -8.513  -9.848  18.006  0.00  0.00    +0.074 A 
ATOM     29  C   UNL     1      -9.694 -10.223  18.646  0.00  0.00    +0.136 A 
ATOM     30  C   UNL     1      -8.519  -8.797  17.088  0.00  0.00    +0.016 A 
ATOM     31  C   UNL     1     -10.882  -9.547  18.369  0.00  0.00    +0.039 A 
ATOM     32  C   UNL     1      -9.708  -8.120  16.812  0.00  0.00    +0.001 A 
ATOM     33  C   UNL     1     -10.889  -8.495  17.452  0.00  0.00    +0.003 A 
ENDBRANCH  27  28
ENDBRANCH  18  25
ENDBRANCH  11  18
TORSDOF 7
ENDMDL
MODEL 8
REMARK VINA RESULT:      -6.8      6.142      8.930
REMARK  Name = 38031114
REMARK  10 active torsions:
REMARK  status: ('A' for Active; 'I' for Inactive)
REMARK    1  A    between atoms: N_4  and  C_13
REMARK    2  A    between atoms: C_8  and  C_12
REMARK    3  A    between atoms: C_9  and  C_13
REMARK    4  A    between atoms: C_11  and  C_18
REMARK    5  A    between atoms: C_12  and  C_22
REMARK    6  A    between atoms: C_12  and  C_23
REMARK    7  A    between atoms: C_15  and  C_24
REMARK    8  A    between atoms: C_18  and  C_25
REMARK    9  A    between atoms: C_19  and  C_26
REMARK   10  A    between atoms: C_27  and  C_28
REMARK                            x       y       z     vdW  Elec       q    Type
REMARK                         _______ _______ _______ _____ _____    ______ ____
ROOT
ATOM      8  C   UNL     1      -9.902  -9.457  15.878  0.00  0.00    +0.000 C 
ATOM      9  C   UNL     1     -10.949  -8.847  16.839  0.00  0.00    +0.029 C 
ATOM     10  C   UNL     1      -8.555  -9.637  16.594  0.00  0.00    +0.012 C 
ATOM     11  C   UNL     1      -8.651 -10.505  17.867  0.00  0.00    +0.024 C 
ATOM     14  C   UNL     1     -10.919  -9.481  18.206  0.00  0.00    -0.023 C 
ATOM     15  C   UNL     1      -9.909 -10.234  18.679  0.00  0.00    -0.073 C 
ATOM     24  C   UNL     1     -10.020 -10.892  20.027  0.00  0.00    +0.039 C 
ENDROOT
BRANCH   8  12
ATOM     12  C   UNL     1     -10.395 -10.782  15.282  0.00  0.00    -0.013 C 
ATOM     22  C   UNL     1     -11.720 -10.579  14.556  0.00  0.00    +0.007 C 
ATOM     23  C   UNL     1      -9.346 -11.365  14.339  0.00  0.00    +0.007 C 
ENDBRANCH   8  12
BRANCH   9  13
ATOM     13  C   UNL     1     -10.770  -7.332  16.982  0.00  0.00    +0.092 C 
BRANCH  13   4
ATOM      4  N   UNL     1     -11.811  -6.617  16.243  0.00  0.00    -0.302 NA
ATOM     16  C   UNL     1     -11.291  -6.145  14.952  0.00  0.00    +0.085 C 
ATOM     17  C   UNL     1     -12.991  -7.472  16.059  0.00  0.00    +0.085 C 
ATOM     19  C   UNL     1     -13.626  -6.165  13.995  0.00  0.00    +0.077 C 
ATOM     20  C   UNL     1     -12.350  -5.347  14.189  0.00  0.00    +0.028 C 
ATOM     21  C   UNL     1     -14.109  -6.722  15.334  0.00  0.00    +0.028 C 
BRANCH  19  26
ATOM      3  O   UNL     1     -14.476  -4.547  12.457  0.00  0.00    -0.276 OA
ATOM      6  N   UNL     1     -15.929  -5.467  13.985  0.00  0.00    -0.329 N 
ATOM     26  C   UNL     1     -14.699  -5.314  13.389  0.00  0.00    +0.214 C 
ATOM     34  H   UNL     1     -16.083  -6.098  14.764  0.00  0.00    +0.145 HD
ATOM     35  H   UNL     1     -16.733  -4.938  13.663  0.00  0.00    +0.145 HD
ENDBRANCH  19  26
ENDBRANCH  13   4
ENDBRANCH   9  13
BRANCH  11  18
ATOM     18  C   UNL     1      -7.364 -10.322  18.682  0.00  0.00    +0.105 C 
BRANCH  18  25
ATOM      2  O   UNL     1      -5.426 -10.401  17.201  0.00  0.00    -0.420 OA
ATOM      5  N   UNL     1      -5.850 -12.326  18.259  0.00  0.00    -0.112 NA
ATOM      7  N   UNL     1      -4.736 -12.513  17.461  0.00  0.00    -0.107 NA
ATOM     25  C   UNL     1      -6.218 -11.079  18.075  0.00  0.00    +0.218 A 
ATOM     27  C   UNL     1      -4.525 -11.364  16.862  0.00  0.00    +0.251 A 
BRANCH  27  28
ATOM      1  F   UNL     1      -5.038 -11.181  14.114  0.00  0.00    -0.205 F 
ATOM     28  C   UNL     1      -3.512 -10.975  15.925  0.00  0.00    +0.074 A 
ATOM     29  C   UNL     1      -3.808 -10.896  14.564  0.00  0.00    +0.136 A 
ATOM     30  C   UNL     1      -2.228 -10.674  16.379  0.00  0.00    +0.016 A 
ATOM     31  C   UNL     1      -2.820 -10.516  13.656  0.00  0.00    +0.039 A 
ATOM     32  C   UNL     1      -1.240 -10.293  15.470  0.00  0.00    +0.001 A 
ATOM     33  C   UNL     1      -1.535 -10.214  14.110  0.00  0.00    +0.003 A 
ENDBRANCH  27  28
ENDBRANCH  18  25
ENDBRANCH  11  18
TORSDOF 7
ENDMDL
MODEL 9
REMARK VINA RESULT:      -6.8      3.252      9.556
REMARK  Name = 38031114
REMARK  10 active torsions:
REMARK  status: ('A' for Active; 'I' for Inactive)
REMARK    1  A    between atoms: N_4  and  C_13
REMARK    2  A    between atoms: C_8  and  C_12
REMARK    3  A    between atoms: C_9  and  C_13
REMARK    4  A    between atoms: C_11  and  C_18
REMARK    5  A    between atoms: C_12  and  C_22
REMARK    6  A    between atoms: C_12  and  C_23
REMARK    7  A    between atoms: C_15  and  C_24
REMARK    8  A    between atoms: C_18  and  C_25
REMARK    9  A    between atoms: C_19  and  C_26
REMARK   10  A    between atoms: C_27  and  C_28
REMARK                            x       y       z     vdW  Elec       q    Type
REMARK                         _______ _______ _______ _____ _____    ______ ____
ROOT
ATOM      8  C   UNL     1      -4.388 -12.116  11.709  0.00  0.00    +0.000 C 
ATOM      9  C   UNL     1      -3.712 -11.546  12.978  0.00  0.00    +0.029 C 
ATOM     10  C   UNL     1      -4.597 -11.007  10.667  0.00  0.00    +0.012 C 
ATOM     11  C   UNL     1      -3.292 -10.285  10.272  0.00  0.00    +0.024 C 
ATOM     14  C   UNL     1      -2.574 -10.610  12.657  0.00  0.00    -0.023 C 
ATOM     15  C   UNL     1      -2.362 -10.047  11.453  0.00  0.00    -0.073 C 
ATOM     24  C   UNL     1      -1.145  -9.196  11.218  0.00  0.00    +0.039 C 
ENDROOT
BRANCH   8  12
ATOM     12  C   UNL     1      -3.584 -13.284  11.123  0.00  0.00    -0.013 C 
ATOM     22  C   UNL     1      -3.275 -14.313  12.205  0.00  0.00    +0.007 C 
ATOM     23  C   UNL     1      -4.343 -13.926   9.966  0.00  0.00    +0.007 C 
ENDBRANCH   8  12
BRANCH   9  13
ATOM     13  C   UNL     1      -4.718 -10.824  13.880  0.00  0.00    +0.092 C 
BRANCH  13   4
ATOM      4  N   UNL     1      -4.613 -11.304  15.258  0.00  0.00    -0.302 NA
ATOM     16  C   UNL     1      -3.535 -10.599  15.966  0.00  0.00    +0.085 C 
ATOM     17  C   UNL     1      -5.897 -11.147  15.956  0.00  0.00    +0.085 C 
ATOM     19  C   UNL     1      -4.687 -11.032  18.169  0.00  0.00    +0.077 C 
ATOM     20  C   UNL     1      -3.375 -11.127  17.393  0.00  0.00    +0.028 C 
ATOM     21  C   UNL     1      -5.819 -11.693  17.382  0.00  0.00    +0.028 C 
BRANCH  19  26
ATOM      3  O   UNL     1      -3.508 -12.245  19.856  0.00  0.00    -0.276 OA
ATOM      6  N   UNL     1      -5.690 -11.644  20.269  0.00  0.00    -0.329 N 
ATOM     26  C   UNL     1      -4.549 -11.696  19.503  0.00  0.00    +0.214 C 
ATOM     34  H   UNL     1      -6.543 -11.196  19.948  0.00  0.00    +0.145 HD
ATOM     35  H   UNL     1      -5.719 -12.065  21.192  0.00  0.00    +0.145 HD
ENDBRANCH  19  26
ENDBRANCH  13   4
ENDBRANCH   9  13
BRANCH  11  18
ATOM     18  C   UNL     1      -3.653  -8.993   9.527  0.00  0.00    +0.105 C 
BRANCH  18  25
ATOM      2  O   UNL     1      -5.971  -8.392   9.055  0.00  0.00    -0.420 OA
ATOM      5  N   UNL     1      -5.134  -9.956   7.692  0.00  0.00    -0.112 NA
ATOM      7  N   UNL     1      -6.442  -9.715   7.313  0.00  0.00    -0.107 NA
ATOM     25  C   UNL     1      -4.902  -9.162   8.711  0.00  0.00    +0.218 A 
ATOM     27  C   UNL     1      -6.891  -8.796   8.136  0.00  0.00    +0.251 A 
BRANCH  27  28
ATOM      1  F   UNL     1      -7.823  -7.074   6.132  0.00  0.00    -0.205 F 
ATOM     28  C   UNL     1      -8.175  -8.164   8.215  0.00  0.00    +0.074 A 
ATOM     29  C   UNL     1      -8.603  -7.313   7.196  0.00  0.00    +0.136 A 
ATOM     30  C   UNL     1      -8.999  -8.403   9.316  0.00  0.00    +0.016 A 
ATOM     31  C   UNL     1      -9.853  -6.700   7.277  0.00  0.00    +0.039 A 
ATOM     32  C   UNL     1     -10.250  -7.791   9.396  0.00  0.00    +0.001 A 
ATOM     33  C   UNL     1     -10.677  -6.940   8.377  0.00  0.00    +0.003 A 
ENDBRANCH  27  28
ENDBRANCH  18  25
ENDBRANCH  11  18
TORSDOF 7
ENDMDL
MODEL 10
REMARK VINA RESULT:      -6.8      4.140      9.067
REMARK  Name = 38031114
REMARK  10 active torsions:
REMARK  status: ('A' for Active; 'I' for Inactive)
REMARK    1  A    between atoms: N_4  and  C_13
REMARK    2  A    between atoms: C_8  and  C_12
REMARK    3  A    between atoms: C_9  and  C_13
REMARK    4  A    between atoms: C_11  and  C_18
REMARK    5  A    between atoms: C_12  and  C_22
REMARK    6  A    between atoms: C_12  and  C_23
REMARK    7  A    between atoms: C_15  and  C_24
REMARK    8  A    between atoms: C_18  and  C_25
REMARK    9  A    between atoms: C_19  and  C_26
REMARK   10  A    between atoms: C_27  and  C_28
REMARK                            x       y       z     vdW  Elec       q    Type
REMARK                         _______ _______ _______ _____ _____    ______ ____
ROOT
ATOM      8  C   UNL     1      -7.602 -12.107  17.156  0.00  0.00    +0.000 C 
ATOM      9  C   UNL     1      -7.615 -11.884  18.686  0.00  0.00    +0.029 C 
ATOM     10  C   UNL     1      -6.417 -11.370  16.515  0.00  0.00    +0.012 C 
ATOM     11  C   UNL     1      -5.051 -11.780  17.105  0.00  0.00    +0.024 C 
ATOM     14  C   UNL     1      -6.245 -12.013  19.302  0.00  0.00    -0.023 C 
ATOM     15  C   UNL     1      -5.089 -11.982  18.613  0.00  0.00    -0.073 C 
ATOM     24  C   UNL     1      -3.780 -12.208  19.317  0.00  0.00    +0.039 C 
ENDROOT
BRANCH   8  12
ATOM     12  C   UNL     1      -7.579 -13.602  16.809  0.00  0.00    -0.013 C 
ATOM     22  C   UNL     1      -8.652 -14.347  17.596  0.00  0.00    +0.007 C 
ATOM     23  C   UNL     1      -7.772 -13.803  15.309  0.00  0.00    +0.007 C 
ENDBRANCH   8  12
BRANCH   9  13
ATOM     13  C   UNL     1      -8.205 -10.519  19.054  0.00  0.00    +0.092 C 
BRANCH  13   4
ATOM      4  N   UNL     1      -9.175 -10.087  18.047  0.00  0.00    -0.302 NA
ATOM     16  C   UNL     1     -10.525 -10.035  18.625  0.00  0.00    +0.085 C 
ATOM     17  C   UNL     1      -8.788  -8.785  17.486  0.00  0.00    +0.085 C 
ATOM     19  C   UNL     1     -11.199  -8.307  16.913  0.00  0.00    +0.077 C 
ATOM     20  C   UNL     1     -11.561  -9.638  17.571  0.00  0.00    +0.028 C 
ATOM     21  C   UNL     1      -9.762  -8.344  16.393  0.00  0.00    +0.028 C 
BRANCH  19  26
ATOM      3  O   UNL     1     -12.161  -8.704  14.763  0.00  0.00    -0.276 OA
ATOM      6  N   UNL     1     -12.932  -6.917  15.989  0.00  0.00    -0.329 N 
ATOM     26  C   UNL     1     -12.135  -8.018  15.781  0.00  0.00    +0.214 C 
ATOM     34  H   UNL     1     -12.881  -6.358  16.835  0.00  0.00    +0.145 HD
ATOM     35  H   UNL     1     -13.603  -6.619  15.289  0.00  0.00    +0.145 HD
ENDBRANCH  19  26
ENDBRANCH  13   4
ENDBRANCH   9  13
BRANCH  11  18
ATOM     18  C   UNL     1      -4.000 -10.751  16.668  0.00  0.00    +0.105 C 
BRANCH  18  25
ATOM      2  O   UNL     1      -4.072 -10.342  14.263  0.00  0.00    -0.420 OA
ATOM      5  N   UNL     1      -2.564 -11.872  14.887  0.00  0.00    -0.112 NA
ATOM      7  N   UNL     1      -2.496 -11.742  13.512  0.00  0.00    -0.107 NA
ATOM     25  C   UNL     1      -3.496 -11.036  15.282  0.00  0.00    +0.218 A 
ATOM     27  C   UNL     1      -3.394 -10.839  13.192  0.00  0.00    +0.251 A 
BRANCH  27  28
ATOM      1  F   UNL     1      -1.514  -9.671  11.473  0.00  0.00    -0.205 F 
ATOM     28  C   UNL     1      -3.763 -10.305  11.913  0.00  0.00    +0.074 A 
ATOM     29  C   UNL     1      -2.797  -9.731  11.087  0.00  0.00    +0.136 A 
ATOM     30  C   UNL     1      -5.093 -10.361  11.497  0.00  0.00    +0.016 A 
ATOM     31  C   UNL     1      -3.160  -9.214   9.844  0.00  0.00    +0.039 A 
ATOM     32  C   UNL     1      -5.457  -9.844  10.253  0.00  0.00    +0.001 A 
ATOM     33  C   UNL     1      -4.490  -9.271   9.427  0.00  0.00    +0.003 A 
ENDBRANCH  27  28
ENDBRANCH  18  25
ENDBRANCH  11  18
TORSDOF 7
ENDMDL
