MODEL 1
REMARK VINA RESULT:      -6.8      0.000      0.000
REMARK  Name = 45783484
REMARK  9 active torsions:
REMARK  status: ('A' for Active; 'I' for Inactive)
REMARK    1  A    between atoms: O_4  and  C_30
REMARK    2  A    between atoms: O_4  and  C_31
REMARK    3  A    between atoms: N_5  and  C_14
REMARK    4  A    between atoms: N_9  and  C_28
REMARK    5  A    between atoms: N_9  and  C_29
REMARK    6  A    between atoms: C_10  and  C_15
REMARK    7  A    between atoms: C_14  and  C_16
REMARK    8  A    between atoms: C_19  and  C_23
REMARK    9  A    between atoms: C_29  and  C_30
REMARK                            x       y       z     vdW  Elec       q    Type
REMARK                         _______ _______ _______ _____ _____    ______ ____
ROOT
ATOM      1  O   UNL     1      15.416   9.614  21.758  0.00  0.00    -0.336 OA
ATOM      6  N   UNL     1      15.374   7.547  20.897  0.00  0.00    -0.190 NA
ATOM      7  N   UNL     1      16.751   9.198  21.681  0.00  0.00    -0.056 NA
ATOM     15  C   UNL     1      14.672   8.584  21.278  0.00  0.00    +0.245 A 
ATOM     19  C   UNL     1      16.644   7.970  21.163  0.00  0.00    +0.204 A 
ENDROOT
BRANCH  19  23
ATOM      8  N   UNL     1      18.776   5.321  19.658  0.00  0.00    -0.240 NA
ATOM     23  C   UNL     1      17.785   7.141  20.903  0.00  0.00    +0.041 A 
ATOM     25  C   UNL     1      18.975   7.322  21.600  0.00  0.00    +0.016 A 
ATOM     26  C   UNL     1      17.738   6.136  19.951  0.00  0.00    +0.124 A 
ATOM     27  C   UNL     1      20.066   6.503  21.327  0.00  0.00    +0.044 A 
ATOM     28  C   UNL     1      19.916   5.526  20.356  0.00  0.00    +0.119 A 
BRANCH  28   9
ATOM      9  N   UNL     1      21.036   4.700  20.088  0.00  0.00    -0.327 N 
ATOM     32  H   UNL     1      21.557   4.906  19.244  0.00  0.00    +0.148 HD
BRANCH   9  29
ATOM     29  C   UNL     1      21.423   3.627  20.945  0.00  0.00    +0.131 C 
BRANCH  29  30
ATOM     30  C   UNL     1      22.892   3.760  21.312  0.00  0.00    +0.178 C 
BRANCH  30   4
ATOM      4  O   UNL     1      23.593   4.383  20.244  0.00  0.00    -0.381 OA
ATOM     31  C   UNL     1      24.708   3.607  19.831  0.00  0.00    +0.194 C 
ENDBRANCH  30   4
ENDBRANCH  29  30
ENDBRANCH   9  29
ENDBRANCH  28   9
ENDBRANCH  19  23
BRANCH  15  10
ATOM      5  N   UNL     1      12.624   8.809  19.882  0.00  0.00    -0.287 NA
ATOM     10  C   UNL     1      13.172   8.789  21.254  0.00  0.00    +0.146 C 
ATOM     11  C   UNL     1      12.406   7.657  21.964  0.00  0.00    +0.030 C 
ATOM     12  C   UNL     1      11.410   7.143  20.934  0.00  0.00    +0.017 C 
ATOM     13  C   UNL     1      11.252   8.308  19.978  0.00  0.00    +0.085 C 
BRANCH   5  14
ATOM     14  C   UNL     1      12.684  10.125  19.259  0.00  0.00    +0.120 C 
BRANCH  14  16
ATOM      2  O   UNL     1      15.271  12.141  15.552  0.00  0.00    -0.453 OA
ATOM      3  O   UNL     1      15.297  10.085  14.294  0.00  0.00    -0.453 OA
ATOM     16  C   UNL     1      13.374  10.078  17.921  0.00  0.00    -0.030 A 
ATOM     17  C   UNL     1      13.996  11.225  17.422  0.00  0.00    +0.054 A 
ATOM     18  C   UNL     1      13.389   8.879  17.186  0.00  0.00    +0.009 A 
ATOM     20  C   UNL     1      14.619  11.133  16.194  0.00  0.00    +0.167 A 
ATOM     21  C   UNL     1      14.026   8.814  15.945  0.00  0.00    +0.050 A 
ATOM     22  C   UNL     1      14.633   9.959  15.475  0.00  0.00    +0.166 A 
ATOM     24  C   UNL     1      15.699  11.468  14.349  0.00  0.00    +0.466 C 
ENDBRANCH  14  16
ENDBRANCH   5  14
ENDBRANCH  15  10
TORSDOF 8
ENDMDL
MODEL 2
REMARK VINA RESULT:      -6.7     28.622     32.418
REMARK  Name = 45783484
REMARK  9 active torsions:
REMARK  status: ('A' for Active; 'I' for Inactive)
REMARK    1  A    between atoms: O_4  and  C_30
REMARK    2  A    between atoms: O_4  and  C_31
REMARK    3  A    between atoms: N_5  and  C_14
REMARK    4  A    between atoms: N_9  and  C_28
REMARK    5  A    between atoms: N_9  and  C_29
REMARK    6  A    between atoms: C_10  and  C_15
REMARK    7  A    between atoms: C_14  and  C_16
REMARK    8  A    between atoms: C_19  and  C_23
REMARK    9  A    between atoms: C_29  and  C_30
REMARK                            x       y       z     vdW  Elec       q    Type
REMARK                         _______ _______ _______ _____ _____    ______ ____
ROOT
ATOM      1  O   UNL     1     -16.825   3.097  22.436  0.00  0.00    -0.336 OA
ATOM      6  N   UNL     1     -16.626   4.339  24.289  0.00  0.00    -0.190 NA
ATOM      7  N   UNL     1     -16.734   2.193  23.502  0.00  0.00    -0.056 NA
ATOM     15  C   UNL     1     -16.753   4.338  22.987  0.00  0.00    +0.245 A 
ATOM     19  C   UNL     1     -16.620   3.002  24.560  0.00  0.00    +0.204 A 
ENDROOT
BRANCH  19  23
ATOM      8  N   UNL     1     -16.627   0.640  27.433  0.00  0.00    -0.240 NA
ATOM     23  C   UNL     1     -16.495   2.504  25.901  0.00  0.00    +0.041 A 
ATOM     25  C   UNL     1     -16.137   3.348  26.947  0.00  0.00    +0.016 A 
ATOM     26  C   UNL     1     -16.728   1.171  26.193  0.00  0.00    +0.124 A 
ATOM     27  C   UNL     1     -16.024   2.839  28.236  0.00  0.00    +0.044 A 
ATOM     28  C   UNL     1     -16.278   1.490  28.425  0.00  0.00    +0.119 A 
BRANCH  28   9
ATOM      9  N   UNL     1     -16.157   0.985  29.743  0.00  0.00    -0.327 N 
ATOM     32  H   UNL     1     -16.976   1.067  30.335  0.00  0.00    +0.148 HD
BRANCH   9  29
ATOM     29  C   UNL     1     -14.955   0.394  30.234  0.00  0.00    +0.131 C 
BRANCH  29  30
ATOM     30  C   UNL     1     -14.349   1.272  31.315  0.00  0.00    +0.178 C 
BRANCH  30   4
ATOM      4  O   UNL     1     -14.781   0.819  32.591  0.00  0.00    -0.381 OA
ATOM     31  C   UNL     1     -14.704   1.851  33.564  0.00  0.00    +0.194 C 
ENDBRANCH  30   4
ENDBRANCH  29  30
ENDBRANCH   9  29
ENDBRANCH  28   9
ENDBRANCH  19  23
BRANCH  15  10
ATOM      5  N   UNL     1     -15.519   5.849  21.442  0.00  0.00    -0.287 NA
ATOM     10  C   UNL     1     -16.831   5.506  22.028  0.00  0.00    +0.146 C 
ATOM     11  C   UNL     1     -17.738   5.221  20.816  0.00  0.00    +0.030 C 
ATOM     12  C   UNL     1     -16.868   5.488  19.596  0.00  0.00    +0.017 C 
ATOM     13  C   UNL     1     -15.793   6.417  20.121  0.00  0.00    +0.085 C 
BRANCH   5  14
ATOM     14  C   UNL     1     -14.735   6.752  22.275  0.00  0.00    +0.120 C 
BRANCH  14  16
ATOM      2  O   UNL     1     -12.228  10.486  20.210  0.00  0.00    -0.453 OA
ATOM      3  O   UNL     1     -10.434   9.043  19.495  0.00  0.00    -0.453 OA
ATOM     16  C   UNL     1     -13.566   7.332  21.524  0.00  0.00    -0.030 A 
ATOM     17  C   UNL     1     -13.529   8.702  21.251  0.00  0.00    +0.054 A 
ATOM     18  C   UNL     1     -12.520   6.491  21.107  0.00  0.00    +0.009 A 
ATOM     20  C   UNL     1     -12.436   9.188  20.564  0.00  0.00    +0.167 A 
ATOM     21  C   UNL     1     -11.425   7.009  20.412  0.00  0.00    +0.050 A 
ATOM     22  C   UNL     1     -11.412   8.364  20.156  0.00  0.00    +0.166 A 
ATOM     24  C   UNL     1     -10.958  10.386  19.533  0.00  0.00    +0.466 C 
ENDBRANCH  14  16
ENDBRANCH   5  14
ENDBRANCH  15  10
TORSDOF 8
ENDMDL
MODEL 3
REMARK VINA RESULT:      -6.4     26.622     30.255
REMARK  Name = 45783484
REMARK  9 active torsions:
REMARK  status: ('A' for Active; 'I' for Inactive)
REMARK    1  A    between atoms: O_4  and  C_30
REMARK    2  A    between atoms: O_4  and  C_31
REMARK    3  A    between atoms: N_5  and  C_14
REMARK    4  A    between atoms: N_9  and  C_28
REMARK    5  A    between atoms: N_9  and  C_29
REMARK    6  A    between atoms: C_10  and  C_15
REMARK    7  A    between atoms: C_14  and  C_16
REMARK    8  A    between atoms: C_19  and  C_23
REMARK    9  A    between atoms: C_29  and  C_30
REMARK                            x       y       z     vdW  Elec       q    Type
REMARK                         _______ _______ _______ _____ _____    ______ ____
ROOT
ATOM      1  O   UNL     1      -5.058 -11.597  17.038  0.00  0.00    -0.336 OA
ATOM      6  N   UNL     1      -5.550 -10.091  15.455  0.00  0.00    -0.190 NA
ATOM      7  N   UNL     1      -6.357 -11.151  17.316  0.00  0.00    -0.056 NA
ATOM     15  C   UNL     1      -4.657 -10.922  15.929  0.00  0.00    +0.245 A 
ATOM     19  C   UNL     1      -6.576 -10.265  16.338  0.00  0.00    +0.204 A 
ENDROOT
BRANCH  19  23
ATOM      8  N   UNL     1      -9.685  -8.865  14.854  0.00  0.00    -0.240 NA
ATOM     23  C   UNL     1      -7.807  -9.538  16.219  0.00  0.00    +0.041 A 
ATOM     25  C   UNL     1      -8.319  -8.817  17.292  0.00  0.00    +0.016 A 
ATOM     26  C   UNL     1      -8.520  -9.530  15.032  0.00  0.00    +0.124 A 
ATOM     27  C   UNL     1      -9.514  -8.121  17.148  0.00  0.00    +0.044 A 
ATOM     28  C   UNL     1     -10.152  -8.176  15.919  0.00  0.00    +0.119 A 
BRANCH  28   9
ATOM      9  N   UNL     1     -11.369  -7.463  15.787  0.00  0.00    -0.327 N 
ATOM     32  H   UNL     1     -12.208  -7.937  16.103  0.00  0.00    +0.148 HD
BRANCH   9  29
ATOM     29  C   UNL     1     -11.435  -6.148  15.236  0.00  0.00    +0.131 C 
BRANCH  29  30
ATOM     30  C   UNL     1     -12.698  -5.995  14.406  0.00  0.00    +0.178 C 
BRANCH  30   4
ATOM      4  O   UNL     1     -12.860  -4.633  14.035  0.00  0.00    -0.381 OA
ATOM     31  C   UNL     1     -12.319  -4.375  12.747  0.00  0.00    +0.194 C 
ENDBRANCH  30   4
ENDBRANCH  29  30
ENDBRANCH   9  29
ENDBRANCH  28   9
ENDBRANCH  19  23
BRANCH  15  10
ATOM      5  N   UNL     1      -2.983 -10.588  14.119  0.00  0.00    -0.287 NA
ATOM     10  C   UNL     1      -3.267 -11.232  15.417  0.00  0.00    +0.146 C 
ATOM     11  C   UNL     1      -2.160 -10.719  16.358  0.00  0.00    +0.030 C 
ATOM     12  C   UNL     1      -1.270  -9.845  15.486  0.00  0.00    +0.017 C 
ATOM     13  C   UNL     1      -1.539 -10.349  14.083  0.00  0.00    +0.085 C 
BRANCH   5  14
ATOM     14  C   UNL     1      -3.437 -11.371  12.977  0.00  0.00    +0.120 C 
BRANCH  14  16
ATOM      2  O   UNL     1      -7.303  -9.199  10.779  0.00  0.00    -0.453 OA
ATOM      3  O   UNL     1      -5.918  -8.159   9.103  0.00  0.00    -0.453 OA
ATOM     16  C   UNL     1      -4.069 -10.505  11.920  0.00  0.00    -0.030 A 
ATOM     17  C   UNL     1      -5.452 -10.307  11.922  0.00  0.00    +0.054 A 
ATOM     18  C   UNL     1      -3.261  -9.898  10.942  0.00  0.00    +0.009 A 
ATOM     20  C   UNL     1      -5.985  -9.502  10.937  0.00  0.00    +0.167 A 
ATOM     21  C   UNL     1      -3.827  -9.088   9.956  0.00  0.00    +0.050 A 
ATOM     22  C   UNL     1      -5.194  -8.909   9.979  0.00  0.00    +0.166 A 
ATOM     24  C   UNL     1      -7.252  -8.347   9.616  0.00  0.00    +0.466 C 
ENDBRANCH  14  16
ENDBRANCH   5  14
ENDBRANCH  15  10
TORSDOF 8
ENDMDL
MODEL 4
REMARK VINA RESULT:      -6.4      4.714      8.456
REMARK  Name = 45783484
REMARK  9 active torsions:
REMARK  status: ('A' for Active; 'I' for Inactive)
REMARK    1  A    between atoms: O_4  and  C_30
REMARK    2  A    between atoms: O_4  and  C_31
REMARK    3  A    between atoms: N_5  and  C_14
REMARK    4  A    between atoms: N_9  and  C_28
REMARK    5  A    between atoms: N_9  and  C_29
REMARK    6  A    between atoms: C_10  and  C_15
REMARK    7  A    between atoms: C_14  and  C_16
REMARK    8  A    between atoms: C_19  and  C_23
REMARK    9  A    between atoms: C_29  and  C_30
REMARK                            x       y       z     vdW  Elec       q    Type
REMARK                         _______ _______ _______ _____ _____    ______ ____
ROOT
ATOM      1  O   UNL     1      15.027  10.690  14.298  0.00  0.00    -0.336 OA
ATOM      6  N   UNL     1      14.800  11.083  16.491  0.00  0.00    -0.190 NA
ATOM      7  N   UNL     1      14.461   9.531  14.845  0.00  0.00    -0.056 NA
ATOM     15  C   UNL     1      15.195  11.552  15.335  0.00  0.00    +0.245 A 
ATOM     19  C   UNL     1      14.358   9.841  16.141  0.00  0.00    +0.204 A 
ENDROOT
BRANCH  19  23
ATOM      8  N   UNL     1      11.984   7.537  17.840  0.00  0.00    -0.240 NA
ATOM     23  C   UNL     1      13.819   8.931  17.111  0.00  0.00    +0.041 A 
ATOM     25  C   UNL     1      14.556   8.558  18.229  0.00  0.00    +0.016 A 
ATOM     26  C   UNL     1      12.549   8.398  16.964  0.00  0.00    +0.124 A 
ATOM     27  C   UNL     1      14.009   7.675  19.153  0.00  0.00    +0.044 A 
ATOM     28  C   UNL     1      12.730   7.197  18.915  0.00  0.00    +0.119 A 
BRANCH  28   9
ATOM      9  N   UNL     1      12.186   6.297  19.864  0.00  0.00    -0.327 N 
ATOM     32  H   UNL     1      11.832   5.418  19.503  0.00  0.00    +0.148 HD
BRANCH   9  29
ATOM     29  C   UNL     1      12.123   6.593  21.258  0.00  0.00    +0.131 C 
BRANCH  29  30
ATOM     30  C   UNL     1      10.675   6.758  21.689  0.00  0.00    +0.178 C 
BRANCH  30   4
ATOM      4  O   UNL     1      10.519   8.003  22.358  0.00  0.00    -0.381 OA
ATOM     31  C   UNL     1      11.702   8.786  22.284  0.00  0.00    +0.194 C 
ENDBRANCH  30   4
ENDBRANCH  29  30
ENDBRANCH   9  29
ENDBRANCH  28   9
ENDBRANCH  19  23
BRANCH  15  10
ATOM      5  N   UNL     1      17.217  12.802  14.601  0.00  0.00    -0.287 NA
ATOM     10  C   UNL     1      15.799  12.899  15.000  0.00  0.00    +0.146 C 
ATOM     11  C   UNL     1      15.103  13.582  13.808  0.00  0.00    +0.030 C 
ATOM     12  C   UNL     1      16.217  13.886  12.817  0.00  0.00    +0.017 C 
ATOM     13  C   UNL     1      17.464  13.912  13.678  0.00  0.00    +0.085 C 
BRANCH   5  14
ATOM     14  C   UNL     1      18.136  12.817  15.732  0.00  0.00    +0.120 C 
BRANCH  14  16
ATOM      2  O   UNL     1      22.856  11.623  16.619  0.00  0.00    -0.453 OA
ATOM      3  O   UNL     1      22.984  10.197  14.681  0.00  0.00    -0.453 OA
ATOM     16  C   UNL     1      19.422  12.100  15.418  0.00  0.00    -0.030 A 
ATOM     17  C   UNL     1      20.529  12.264  16.254  0.00  0.00    +0.054 A 
ATOM     18  C   UNL     1      19.497  11.268  14.287  0.00  0.00    +0.009 A 
ATOM     20  C   UNL     1      21.685  11.584  15.928  0.00  0.00    +0.167 A 
ATOM     21  C   UNL     1      20.679  10.591  13.979  0.00  0.00    +0.050 A 
ATOM     22  C   UNL     1      21.757  10.770  14.820  0.00  0.00    +0.166 A 
ATOM     24  C   UNL     1      23.674  10.740  15.823  0.00  0.00    +0.466 C 
ENDBRANCH  14  16
ENDBRANCH   5  14
ENDBRANCH  15  10
TORSDOF 8
ENDMDL
MODEL 5
REMARK VINA RESULT:      -6.4     27.948     31.067
REMARK  Name = 45783484
REMARK  9 active torsions:
REMARK  status: ('A' for Active; 'I' for Inactive)
REMARK    1  A    between atoms: O_4  and  C_30
REMARK    2  A    between atoms: O_4  and  C_31
REMARK    3  A    between atoms: N_5  and  C_14
REMARK    4  A    between atoms: N_9  and  C_28
REMARK    5  A    between atoms: N_9  and  C_29
REMARK    6  A    between atoms: C_10  and  C_15
REMARK    7  A    between atoms: C_14  and  C_16
REMARK    8  A    between atoms: C_19  and  C_23
REMARK    9  A    between atoms: C_29  and  C_30
REMARK                            x       y       z     vdW  Elec       q    Type
REMARK                         _______ _______ _______ _____ _____    ______ ____
ROOT
ATOM      1  O   UNL     1      -9.316 -11.252  20.098  0.00  0.00    -0.336 OA
ATOM      6  N   UNL     1      -8.965 -11.281  17.886  0.00  0.00    -0.190 NA
ATOM      7  N   UNL     1      -7.958 -10.961  19.915  0.00  0.00    -0.056 NA
ATOM     15  C   UNL     1      -9.834 -11.427  18.854  0.00  0.00    +0.245 A 
ATOM     19  C   UNL     1      -7.829 -10.996  18.585  0.00  0.00    +0.204 A 
ENDROOT
BRANCH  19  23
ATOM      8  N   UNL     1      -5.358  -9.659  16.147  0.00  0.00    -0.240 NA
ATOM     23  C   UNL     1      -6.578 -10.752  17.925  0.00  0.00    +0.041 A 
ATOM     25  C   UNL     1      -5.402 -11.338  18.382  0.00  0.00    +0.016 A 
ATOM     26  C   UNL     1      -6.504  -9.929  16.814  0.00  0.00    +0.124 A 
ATOM     27  C   UNL     1      -4.205 -11.085  17.722  0.00  0.00    +0.044 A 
ATOM     28  C   UNL     1      -4.236 -10.246  16.620  0.00  0.00    +0.119 A 
BRANCH  28   9
ATOM      9  N   UNL     1      -3.008  -9.997  15.959  0.00  0.00    -0.327 N 
ATOM     32  H   UNL     1      -2.903  -9.085  15.529  0.00  0.00    +0.148 HD
BRANCH   9  29
ATOM     29  C   UNL     1      -1.963 -10.965  15.885  0.00  0.00    +0.131 C 
BRANCH  29  30
ATOM     30  C   UNL     1      -1.812 -11.458  14.455  0.00  0.00    +0.178 C 
BRANCH  30   4
ATOM      4  O   UNL     1      -2.431 -10.535  13.569  0.00  0.00    -0.381 OA
ATOM     31  C   UNL     1      -1.962 -10.696  12.238  0.00  0.00    +0.194 C 
ENDBRANCH  30   4
ENDBRANCH  29  30
ENDBRANCH   9  29
ENDBRANCH  28   9
ENDBRANCH  19  23
BRANCH  15  10
ATOM      5  N   UNL     1     -12.019 -10.951  17.763  0.00  0.00    -0.287 NA
ATOM     10  C   UNL     1     -11.310 -11.755  18.778  0.00  0.00    +0.146 C 
ATOM     11  C   UNL     1     -11.573 -13.217  18.373  0.00  0.00    +0.030 C 
ATOM     12  C   UNL     1     -12.487 -13.136  17.158  0.00  0.00    +0.017 C 
ATOM     13  C   UNL     1     -13.135 -11.772  17.291  0.00  0.00    +0.085 C 
BRANCH   5  14
ATOM     14  C   UNL     1     -12.464  -9.657  18.263  0.00  0.00    +0.120 C 
BRANCH  14  16
ATOM      2  O   UNL     1     -13.721  -6.415  14.740  0.00  0.00    -0.453 OA
ATOM      3  O   UNL     1     -11.487  -5.521  14.600  0.00  0.00    -0.453 OA
ATOM     16  C   UNL     1     -12.165  -8.548  17.289  0.00  0.00    -0.030 A 
ATOM     17  C   UNL     1     -13.185  -8.044  16.478  0.00  0.00    +0.054 A 
ATOM     18  C   UNL     1     -10.862  -8.026  17.207  0.00  0.00    +0.009 A 
ATOM     20  C   UNL     1     -12.864  -7.026  15.604  0.00  0.00    +0.167 A 
ATOM     21  C   UNL     1     -10.564  -6.995  16.313  0.00  0.00    +0.050 A 
ATOM     22  C   UNL     1     -11.588  -6.516  15.523  0.00  0.00    +0.166 A 
ATOM     24  C   UNL     1     -12.841  -5.462  14.108  0.00  0.00    +0.466 C 
ENDBRANCH  14  16
ENDBRANCH   5  14
ENDBRANCH  15  10
TORSDOF 8
ENDMDL
MODEL 6
REMARK VINA RESULT:      -6.3     15.407     18.935
REMARK  Name = 45783484
REMARK  9 active torsions:
REMARK  status: ('A' for Active; 'I' for Inactive)
REMARK    1  A    between atoms: O_4  and  C_30
REMARK    2  A    between atoms: O_4  and  C_31
REMARK    3  A    between atoms: N_5  and  C_14
REMARK    4  A    between atoms: N_9  and  C_28
REMARK    5  A    between atoms: N_9  and  C_29
REMARK    6  A    between atoms: C_10  and  C_15
REMARK    7  A    between atoms: C_14  and  C_16
REMARK    8  A    between atoms: C_19  and  C_23
REMARK    9  A    between atoms: C_29  and  C_30
REMARK                            x       y       z     vdW  Elec       q    Type
REMARK                         _______ _______ _______ _____ _____    ______ ____
ROOT
ATOM      1  O   UNL     1      10.033   4.616   5.566  0.00  0.00    -0.336 OA
ATOM      6  N   UNL     1      11.097   5.928   4.095  0.00  0.00    -0.190 NA
ATOM      7  N   UNL     1      10.225   3.837   4.417  0.00  0.00    -0.056 NA
ATOM     15  C   UNL     1      10.575   5.832   5.291  0.00  0.00    +0.245 A 
ATOM     19  C   UNL     1      10.859   4.681   3.596  0.00  0.00    +0.204 A 
ENDROOT
BRANCH  19  23
ATOM      8  N   UNL     1      10.698   4.030  -0.062  0.00  0.00    -0.240 NA
ATOM     23  C   UNL     1      11.265   4.307   2.271  0.00  0.00    +0.041 A 
ATOM     25  C   UNL     1      12.561   3.872   2.016  0.00  0.00    +0.016 A 
ATOM     26  C   UNL     1      10.379   4.368   1.208  0.00  0.00    +0.124 A 
ATOM     27  C   UNL     1      12.926   3.516   0.722  0.00  0.00    +0.044 A 
ATOM     28  C   UNL     1      11.967   3.612  -0.273  0.00  0.00    +0.119 A 
BRANCH  28   9
ATOM      9  N   UNL     1      12.354   3.247  -1.586  0.00  0.00    -0.327 N 
ATOM     32  H   UNL     1      13.220   3.645  -1.928  0.00  0.00    +0.148 HD
BRANCH   9  29
ATOM     29  C   UNL     1      11.577   2.372  -2.402  0.00  0.00    +0.131 C 
BRANCH  29  30
ATOM     30  C   UNL     1      10.926   3.155  -3.530  0.00  0.00    +0.178 C 
BRANCH  30   4
ATOM      4  O   UNL     1       9.513   3.023  -3.444  0.00  0.00    -0.381 OA
ATOM     31  C   UNL     1       8.849   4.110  -4.072  0.00  0.00    +0.194 C 
ENDBRANCH  30   4
ENDBRANCH  29  30
ENDBRANCH   9  29
ENDBRANCH  28   9
ENDBRANCH  19  23
BRANCH  15  10
ATOM      5  N   UNL     1       9.367   7.805   6.209  0.00  0.00    -0.287 NA
ATOM     10  C   UNL     1      10.496   6.869   6.390  0.00  0.00    +0.146 C 
ATOM     11  C   UNL     1      10.267   6.246   7.780  0.00  0.00    +0.030 C 
ATOM     12  C   UNL     1       9.024   6.935   8.326  0.00  0.00    +0.017 C 
ATOM     13  C   UNL     1       8.968   8.235   7.549  0.00  0.00    +0.085 C 
BRANCH   5  14
ATOM     14  C   UNL     1       9.690   8.933   5.345  0.00  0.00    +0.120 C 
BRANCH  14  16
ATOM      2  O   UNL     1       5.244  10.221   3.592  0.00  0.00    -0.453 OA
ATOM      3  O   UNL     1       5.828   9.619   1.333  0.00  0.00    -0.453 OA
ATOM     16  C   UNL     1       8.677   9.101   4.243  0.00  0.00    -0.030 A 
ATOM     17  C   UNL     1       7.409   9.609   4.538  0.00  0.00    +0.054 A 
ATOM     18  C   UNL     1       9.018   8.750   2.925  0.00  0.00    +0.009 A 
ATOM     20  C   UNL     1       6.517   9.748   3.496  0.00  0.00    +0.167 A 
ATOM     21  C   UNL     1       8.095   8.901   1.888  0.00  0.00    +0.050 A 
ATOM     22  C   UNL     1       6.850   9.404   2.206  0.00  0.00    +0.166 A 
ATOM     24  C   UNL     1       4.815  10.136   2.217  0.00  0.00    +0.466 C 
ENDBRANCH  14  16
ENDBRANCH   5  14
ENDBRANCH  15  10
TORSDOF 8
ENDMDL
MODEL 7
REMARK VINA RESULT:      -6.3     27.120     30.626
REMARK  Name = 45783484
REMARK  9 active torsions:
REMARK  status: ('A' for Active; 'I' for Inactive)
REMARK    1  A    between atoms: O_4  and  C_30
REMARK    2  A    between atoms: O_4  and  C_31
REMARK    3  A    between atoms: N_5  and  C_14
REMARK    4  A    between atoms: N_9  and  C_28
REMARK    5  A    between atoms: N_9  and  C_29
REMARK    6  A    between atoms: C_10  and  C_15
REMARK    7  A    between atoms: C_14  and  C_16
REMARK    8  A    between atoms: C_19  and  C_23
REMARK    9  A    between atoms: C_29  and  C_30
REMARK                            x       y       z     vdW  Elec       q    Type
REMARK                         _______ _______ _______ _____ _____    ______ ____
ROOT
ATOM      1  O   UNL     1      -5.254  -9.775  15.288  0.00  0.00    -0.336 OA
ATOM      6  N   UNL     1      -5.345 -11.259  16.963  0.00  0.00    -0.190 NA
ATOM      7  N   UNL     1      -6.484  -9.567  15.927  0.00  0.00    -0.056 NA
ATOM     15  C   UNL     1      -4.648 -10.788  15.961  0.00  0.00    +0.245 A 
ATOM     19  C   UNL     1      -6.462 -10.479  16.904  0.00  0.00    +0.204 A 
ENDROOT
BRANCH  19  23
ATOM      8  N   UNL     1      -8.352 -11.533  19.929  0.00  0.00    -0.240 NA
ATOM     23  C   UNL     1      -7.543 -10.638  17.834  0.00  0.00    +0.041 A 
ATOM     25  C   UNL     1      -8.794 -10.084  17.579  0.00  0.00    +0.016 A 
ATOM     26  C   UNL     1      -7.376 -11.347  19.012  0.00  0.00    +0.124 A 
ATOM     27  C   UNL     1      -9.823 -10.254  18.498  0.00  0.00    +0.044 A 
ATOM     28  C   UNL     1      -9.554 -10.980  19.647  0.00  0.00    +0.119 A 
BRANCH  28   9
ATOM      9  N   UNL     1     -10.612 -11.144  20.575  0.00  0.00    -0.327 N 
ATOM     32  H   UNL     1     -10.616 -10.517  21.371  0.00  0.00    +0.148 HD
BRANCH   9  29
ATOM     29  C   UNL     1     -11.625 -12.137  20.419  0.00  0.00    +0.131 C 
BRANCH  29  30
ATOM     30  C   UNL     1     -11.280 -13.365  21.244  0.00  0.00    +0.178 C 
BRANCH  30   4
ATOM      4  O   UNL     1     -12.448 -13.837  21.903  0.00  0.00    -0.381 OA
ATOM     31  C   UNL     1     -12.237 -13.976  23.301  0.00  0.00    +0.194 C 
ENDBRANCH  30   4
ENDBRANCH  29  30
ENDBRANCH   9  29
ENDBRANCH  28   9
ENDBRANCH  19  23
BRANCH  15  10
ATOM      5  N   UNL     1      -2.961 -10.629  14.139  0.00  0.00    -0.287 NA
ATOM     10  C   UNL     1      -3.283 -11.208  15.459  0.00  0.00    +0.146 C 
ATOM     11  C   UNL     1      -2.141 -10.739  16.380  0.00  0.00    +0.030 C 
ATOM     12  C   UNL     1      -1.197  -9.957  15.478  0.00  0.00    +0.017 C 
ATOM     13  C   UNL     1      -1.505 -10.490  14.093  0.00  0.00    +0.085 C 
BRANCH   5  14
ATOM     14  C   UNL     1      -3.470 -11.419  13.025  0.00  0.00    +0.120 C 
BRANCH  14  16
ATOM      2  O   UNL     1      -7.308  -9.247  10.778  0.00  0.00    -0.453 OA
ATOM      3  O   UNL     1      -5.901  -8.204   9.122  0.00  0.00    -0.453 OA
ATOM     16  C   UNL     1      -4.089 -10.552  11.961  0.00  0.00    -0.030 A 
ATOM     17  C   UNL     1      -5.472 -10.355  11.944  0.00  0.00    +0.054 A 
ATOM     18  C   UNL     1      -3.268  -9.943  10.995  0.00  0.00    +0.009 A 
ATOM     20  C   UNL     1      -5.992  -9.550  10.953  0.00  0.00    +0.167 A 
ATOM     21  C   UNL     1      -3.821  -9.133  10.001  0.00  0.00    +0.050 A 
ATOM     22  C   UNL     1      -5.189  -8.955  10.007  0.00  0.00    +0.166 A 
ATOM     24  C   UNL     1      -7.242  -8.394   9.617  0.00  0.00    +0.466 C 
ENDBRANCH  14  16
ENDBRANCH   5  14
ENDBRANCH  15  10
TORSDOF 8
ENDMDL
MODEL 8
REMARK VINA RESULT:      -6.3      3.246      5.074
REMARK  Name = 45783484
REMARK  9 active torsions:
REMARK  status: ('A' for Active; 'I' for Inactive)
REMARK    1  A    between atoms: O_4  and  C_30
REMARK    2  A    between atoms: O_4  and  C_31
REMARK    3  A    between atoms: N_5  and  C_14
REMARK    4  A    between atoms: N_9  and  C_28
REMARK    5  A    between atoms: N_9  and  C_29
REMARK    6  A    between atoms: C_10  and  C_15
REMARK    7  A    between atoms: C_14  and  C_16
REMARK    8  A    between atoms: C_19  and  C_23
REMARK    9  A    between atoms: C_29  and  C_30
REMARK                            x       y       z     vdW  Elec       q    Type
REMARK                         _______ _______ _______ _____ _____    ______ ____
ROOT
ATOM      1  O   UNL     1      14.351   6.767  19.756  0.00  0.00    -0.336 OA
ATOM      6  N   UNL     1      15.677   7.341  21.467  0.00  0.00    -0.190 NA
ATOM      7  N   UNL     1      15.620   6.254  19.454  0.00  0.00    -0.056 NA
ATOM     15  C   UNL     1      14.474   7.392  20.956  0.00  0.00    +0.245 A 
ATOM     19  C   UNL     1      16.345   6.633  20.511  0.00  0.00    +0.204 A 
ENDROOT
BRANCH  19  23
ATOM      8  N   UNL     1      19.661   5.082  19.855  0.00  0.00    -0.240 NA
ATOM     23  C   UNL     1      17.740   6.322  20.639  0.00  0.00    +0.041 A 
ATOM     25  C   UNL     1      18.519   6.919  21.625  0.00  0.00    +0.016 A 
ATOM     26  C   UNL     1      18.353   5.418  19.787  0.00  0.00    +0.124 A 
ATOM     27  C   UNL     1      19.868   6.598  21.727  0.00  0.00    +0.044 A 
ATOM     28  C   UNL     1      20.387   5.682  20.826  0.00  0.00    +0.119 A 
BRANCH  28   9
ATOM      9  N   UNL     1      21.763   5.366  20.941  0.00  0.00    -0.327 N 
ATOM     32  H   UNL     1      22.134   4.709  20.263  0.00  0.00    +0.148 HD
BRANCH   9  29
ATOM     29  C   UNL     1      22.599   5.926  21.952  0.00  0.00    +0.131 C 
BRANCH  29  30
ATOM     30  C   UNL     1      23.227   4.817  22.779  0.00  0.00    +0.178 C 
BRANCH  30   4
ATOM      4  O   UNL     1      22.429   3.645  22.684  0.00  0.00    -0.381 OA
ATOM     31  C   UNL     1      22.669   2.761  23.769  0.00  0.00    +0.194 C 
ENDBRANCH  30   4
ENDBRANCH  29  30
ENDBRANCH   9  29
ENDBRANCH  28   9
ENDBRANCH  19  23
BRANCH  15  10
ATOM      5  N   UNL     1      12.733   9.146  20.666  0.00  0.00    -0.287 NA
ATOM     10  C   UNL     1      13.222   8.038  21.510  0.00  0.00    +0.146 C 
ATOM     11  C   UNL     1      12.036   7.058  21.594  0.00  0.00    +0.030 C 
ATOM     12  C   UNL     1      10.910   7.729  20.820  0.00  0.00    +0.017 C 
ATOM     13  C   UNL     1      11.282   9.198  20.851  0.00  0.00    +0.085 C 
BRANCH   5  14
ATOM     14  C   UNL     1      13.369  10.422  20.969  0.00  0.00    +0.120 C 
BRANCH  14  16
ATOM      2  O   UNL     1      11.657  11.819  25.397  0.00  0.00    -0.453 OA
ATOM      3  O   UNL     1      10.245  13.526  24.446  0.00  0.00    -0.453 OA
ATOM     16  C   UNL     1      12.515  11.272  21.872  0.00  0.00    -0.030 A 
ATOM     17  C   UNL     1      12.551  11.068  23.254  0.00  0.00    +0.054 A 
ATOM     18  C   UNL     1      11.691  12.268  21.317  0.00  0.00    +0.009 A 
ATOM     20  C   UNL     1      11.754  11.874  24.041  0.00  0.00    +0.167 A 
ATOM     21  C   UNL     1      10.894  13.069  22.137  0.00  0.00    +0.050 A 
ATOM     22  C   UNL     1      10.947  12.847  23.497  0.00  0.00    +0.166 A 
ATOM     24  C   UNL     1      10.699  12.870  25.647  0.00  0.00    +0.466 C 
ENDBRANCH  14  16
ENDBRANCH   5  14
ENDBRANCH  15  10
TORSDOF 8
ENDMDL
MODEL 9
REMARK VINA RESULT:      -6.2      3.771     10.614
REMARK  Name = 45783484
REMARK  9 active torsions:
REMARK  status: ('A' for Active; 'I' for Inactive)
REMARK    1  A    between atoms: O_4  and  C_30
REMARK    2  A    between atoms: O_4  and  C_31
REMARK    3  A    between atoms: N_5  and  C_14
REMARK    4  A    between atoms: N_9  and  C_28
REMARK    5  A    between atoms: N_9  and  C_29
REMARK    6  A    between atoms: C_10  and  C_15
REMARK    7  A    between atoms: C_14  and  C_16
REMARK    8  A    between atoms: C_19  and  C_23
REMARK    9  A    between atoms: C_29  and  C_30
REMARK                            x       y       z     vdW  Elec       q    Type
REMARK                         _______ _______ _______ _____ _____    ______ ____
ROOT
ATOM      1  O   UNL     1      22.235   6.719  20.724  0.00  0.00    -0.336 OA
ATOM      6  N   UNL     1      20.774   5.083  21.176  0.00  0.00    -0.190 NA
ATOM      7  N   UNL     1      20.972   7.221  20.385  0.00  0.00    -0.056 NA
ATOM     15  C   UNL     1      22.028   5.455  21.180  0.00  0.00    +0.245 A 
ATOM     19  C   UNL     1      20.163   6.198  20.681  0.00  0.00    +0.204 A 
ENDROOT
BRANCH  19  23
ATOM      8  N   UNL     1      16.564   6.840  21.360  0.00  0.00    -0.240 NA
ATOM     23  C   UNL     1      18.743   6.259  20.490  0.00  0.00    +0.041 A 
ATOM     25  C   UNL     1      18.160   5.818  19.306  0.00  0.00    +0.016 A 
ATOM     26  C   UNL     1      17.909   6.756  21.477  0.00  0.00    +0.124 A 
ATOM     27  C   UNL     1      16.780   5.888  19.149  0.00  0.00    +0.044 A 
ATOM     28  C   UNL     1      16.033   6.402  20.196  0.00  0.00    +0.119 A 
BRANCH  28   9
ATOM      9  N   UNL     1      14.629   6.469  20.021  0.00  0.00    -0.327 N 
ATOM     32  H   UNL     1      14.076   5.803  20.548  0.00  0.00    +0.148 HD
BRANCH   9  29
ATOM     29  C   UNL     1      14.006   7.412  19.150  0.00  0.00    +0.131 C 
BRANCH  29  30
ATOM     30  C   UNL     1      12.528   7.086  19.005  0.00  0.00    +0.178 C 
BRANCH  30   4
ATOM      4  O   UNL     1      12.151   7.202  17.639  0.00  0.00    -0.381 OA
ATOM     31  C   UNL     1      11.692   8.512  17.335  0.00  0.00    +0.194 C 
ENDBRANCH  30   4
ENDBRANCH  29  30
ENDBRANCH   9  29
ENDBRANCH  28   9
ENDBRANCH  19  23
BRANCH  15  10
ATOM      5  N   UNL     1      23.206   4.299  23.043  0.00  0.00    -0.287 NA
ATOM     10  C   UNL     1      23.257   4.688  21.619  0.00  0.00    +0.146 C 
ATOM     11  C   UNL     1      23.430   3.360  20.858  0.00  0.00    +0.030 C 
ATOM     12  C   UNL     1      23.528   2.292  21.938  0.00  0.00    +0.017 C 
ATOM     13  C   UNL     1      23.979   3.063  23.162  0.00  0.00    +0.085 C 
BRANCH   5  14
ATOM     14  C   UNL     1      23.694   5.339  23.940  0.00  0.00    +0.120 C 
BRANCH  14  16
ATOM      2  O   UNL     1      21.477   5.043  28.355  0.00  0.00    -0.453 OA
ATOM      3  O   UNL     1      19.873   6.752  27.797  0.00  0.00    -0.453 OA
ATOM     16  C   UNL     1      22.652   5.741  24.949  0.00  0.00    -0.030 A 
ATOM     17  C   UNL     1      22.627   5.124  26.203  0.00  0.00    +0.054 A 
ATOM     18  C   UNL     1      21.716   6.739  24.624  0.00  0.00    +0.009 A 
ATOM     20  C   UNL     1      21.657   5.529  27.096  0.00  0.00    +0.167 A 
ATOM     21  C   UNL     1      20.744   7.129  25.547  0.00  0.00    +0.050 A 
ATOM     22  C   UNL     1      20.740   6.505  26.777  0.00  0.00    +0.166 A 
ATOM     24  C   UNL     1      20.346   5.823  28.793  0.00  0.00    +0.466 C 
ENDBRANCH  14  16
ENDBRANCH   5  14
ENDBRANCH  15  10
TORSDOF 8
ENDMDL
MODEL 10
REMARK VINA RESULT:      -6.2     28.848     32.414
REMARK  Name = 45783484
REMARK  9 active torsions:
REMARK  status: ('A' for Active; 'I' for Inactive)
REMARK    1  A    between atoms: O_4  and  C_30
REMARK    2  A    between atoms: O_4  and  C_31
REMARK    3  A    between atoms: N_5  and  C_14
REMARK    4  A    between atoms: N_9  and  C_28
REMARK    5  A    between atoms: N_9  and  C_29
REMARK    6  A    between atoms: C_10  and  C_15
REMARK    7  A    between atoms: C_14  and  C_16
REMARK    8  A    between atoms: C_19  and  C_23
REMARK    9  A    between atoms: C_29  and  C_30
REMARK                            x       y       z     vdW  Elec       q    Type
REMARK                         _______ _______ _______ _____ _____    ______ ____
ROOT
ATOM      1  O   UNL     1      -9.015 -11.103  20.331  0.00  0.00    -0.336 OA
ATOM      6  N   UNL     1      -8.890 -10.927  18.102  0.00  0.00    -0.190 NA
ATOM      7  N   UNL     1      -7.655 -10.966  20.028  0.00  0.00    -0.056 NA
ATOM     15  C   UNL     1      -9.672 -11.071  19.141  0.00  0.00    +0.245 A 
ATOM     19  C   UNL     1      -7.662 -10.867  18.694  0.00  0.00    +0.204 A 
ENDROOT
BRANCH  19  23
ATOM      8  N   UNL     1      -5.319  -9.673  16.065  0.00  0.00    -0.240 NA
ATOM     23  C   UNL     1      -6.461 -10.710  17.926  0.00  0.00    +0.041 A 
ATOM     25  C   UNL     1      -5.302 -11.403  18.260  0.00  0.00    +0.016 A 
ATOM     26  C   UNL     1      -6.418  -9.865  16.830  0.00  0.00    +0.124 A 
ATOM     27  C   UNL     1      -4.152 -11.232  17.497  0.00  0.00    +0.044 A 
ATOM     28  C   UNL     1      -4.212 -10.364  16.419  0.00  0.00    +0.119 A 
BRANCH  28   9
ATOM      9  N   UNL     1      -3.032 -10.198  15.652  0.00  0.00    -0.327 N 
ATOM     32  H   UNL     1      -2.445  -9.407  15.891  0.00  0.00    +0.148 HD
BRANCH   9  29
ATOM     29  C   UNL     1      -2.673 -11.083  14.592  0.00  0.00    +0.131 C 
BRANCH  29  30
ATOM     30  C   UNL     1      -3.307 -10.619  13.291  0.00  0.00    +0.178 C 
BRANCH  30   4
ATOM      4  O   UNL     1      -2.451 -10.946  12.205  0.00  0.00    -0.381 OA
ATOM     31  C   UNL     1      -2.661 -10.082  11.098  0.00  0.00    +0.194 C 
ENDBRANCH  30   4
ENDBRANCH  29  30
ENDBRANCH   9  29
ENDBRANCH  28   9
ENDBRANCH  19  23
BRANCH  15  10
ATOM      5  N   UNL     1     -11.641 -11.913  20.407  0.00  0.00    -0.287 NA
ATOM     10  C   UNL     1     -11.179 -11.200  19.199  0.00  0.00    +0.146 C 
ATOM     11  C   UNL     1     -11.890  -9.835  19.254  0.00  0.00    +0.030 C 
ATOM     12  C   UNL     1     -12.776  -9.897  20.491  0.00  0.00    +0.017 C 
ATOM     13  C   UNL     1     -12.970 -11.383  20.716  0.00  0.00    +0.085 C 
BRANCH   5  14
ATOM     14  C   UNL     1     -11.652 -13.362  20.251  0.00  0.00    +0.120 C 
BRANCH  14  16
ATOM      2  O   UNL     1     -11.264 -15.148  24.850  0.00  0.00    -0.453 OA
ATOM      3  O   UNL     1      -9.010 -15.921  24.487  0.00  0.00    -0.453 OA
ATOM     16  C   UNL     1     -10.912 -14.050  21.366  0.00  0.00    -0.030 A 
ATOM     17  C   UNL     1     -11.538 -14.240  22.601  0.00  0.00    +0.054 A 
ATOM     18  C   UNL     1      -9.597 -14.501  21.155  0.00  0.00    +0.009 A 
ATOM     20  C   UNL     1     -10.822 -14.879  23.591  0.00  0.00    +0.167 A 
ATOM     21  C   UNL     1      -8.894 -15.145  22.175  0.00  0.00    +0.050 A 
ATOM     22  C   UNL     1      -9.534 -15.319  23.384  0.00  0.00    +0.166 A 
ATOM     24  C   UNL     1     -10.111 -15.809  25.411  0.00  0.00    +0.466 C 
ENDBRANCH  14  16
ENDBRANCH   5  14
ENDBRANCH  15  10
TORSDOF 8
ENDMDL
