MODEL 1
REMARK VINA RESULT:      -7.1      0.000      0.000
REMARK  Name = 11912477
REMARK  8 active torsions:
REMARK  status: ('A' for Active; 'I' for Inactive)
REMARK    1  A    between atoms: N_7  and  C_19
REMARK    2  A    between atoms: N_8  and  C_20
REMARK    3  A    between atoms: C_9  and  C_15
REMARK    4  A    between atoms: C_10  and  C_14
REMARK    5  A    between atoms: C_14  and  C_16
REMARK    6  A    between atoms: C_15  and  C_18
REMARK    7  A    between atoms: C_19  and  C_21
REMARK    8  A    between atoms: C_24  and  C_29
REMARK                            x       y       z     vdW  Elec       q    Type
REMARK                         _______ _______ _______ _____ _____    ______ ____
ROOT
ATOM      4  O   UNL     1      -8.204 -13.979  16.898  0.00  0.00    -0.252 OA
ATOM      6  N   UNL     1      -6.065 -13.344  17.502  0.00  0.00    -0.285 N 
ATOM      8  N   UNL     1      -7.814 -13.309  19.085  0.00  0.00    -0.269 N 
ATOM      9  C   UNL     1      -3.844 -11.733  16.580  0.00  0.00    +0.004 C 
ATOM     10  C   UNL     1      -4.405 -11.576  18.019  0.00  0.00    +0.010 C 
ATOM     11  C   UNL     1      -4.904 -12.288  15.610  0.00  0.00    +0.023 C 
ATOM     12  C   UNL     1      -5.048 -12.900  18.467  0.00  0.00    +0.113 C 
ATOM     13  C   UNL     1      -5.546 -13.565  16.151  0.00  0.00    +0.109 C 
ATOM     17  C   UNL     1      -7.429 -13.584  17.773  0.00  0.00    +0.306 C 
ATOM     34  H   UNL     1      -7.125 -13.408  19.821  0.00  0.00    +0.156 HD
ENDROOT
BRANCH   8  20
ATOM     20  C   UNL     1      -9.087 -12.879  19.535  0.00  0.00    +0.035 A 
ATOM     22  C   UNL     1      -9.640 -11.697  19.041  0.00  0.00    +0.035 A 
ATOM     23  C   UNL     1      -9.787 -13.638  20.473  0.00  0.00    +0.023 A 
ATOM     24  C   UNL     1     -10.893 -11.275  19.485  0.00  0.00    +0.057 A 
ATOM     27  C   UNL     1     -11.040 -13.215  20.916  0.00  0.00    +0.002 A 
ATOM     28  C   UNL     1     -11.593 -12.034  20.423  0.00  0.00    +0.012 A 
BRANCH  24  29
ATOM      1  F   UNL     1     -12.158 -10.173  17.779  0.00  0.00    -0.166 F 
ATOM      2  F   UNL     1     -10.558  -9.038  18.706  0.00  0.00    -0.166 F 
ATOM      3  F   UNL     1     -12.381  -9.451  19.818  0.00  0.00    -0.166 F 
ATOM     29  C   UNL     1     -11.484 -10.012  18.956  0.00  0.00    +0.417 C 
ENDBRANCH  24  29
ENDBRANCH   8  20
BRANCH  10  14
ATOM     14  C   UNL     1      -5.395 -10.417  18.180  0.00  0.00    +0.002 C 
ATOM     16  C   UNL     1      -6.010 -10.410  19.563  0.00  0.00    +0.004 C 
ENDBRANCH  10  14
BRANCH   9  15
ATOM     15  C   UNL     1      -3.232 -10.446  16.030  0.00  0.00    +0.099 C 
BRANCH  15  18
ATOM      5  O   UNL     1      -1.132 -11.269  15.156  0.00  0.00    -0.276 OA
ATOM      7  N   UNL     1      -2.650 -10.255  13.716  0.00  0.00    -0.311 N 
ATOM     18  C   UNL     1      -2.208 -10.715  14.948  0.00  0.00    +0.214 C 
ATOM     33  H   UNL     1      -3.555  -9.800  13.647  0.00  0.00    +0.149 HD
BRANCH   7  19
ATOM     19  C   UNL     1      -1.873 -10.377  12.504  0.00  0.00    +0.139 C 
BRANCH  19  21
ATOM     21  C   UNL     1      -2.744 -10.448  11.282  0.00  0.00    -0.030 A 
ATOM     25  C   UNL     1      -3.002  -9.295  10.542  0.00  0.00    +0.005 A 
ATOM     26  C   UNL     1      -3.295 -11.667  10.888  0.00  0.00    +0.005 A 
ATOM     30  C   UNL     1      -3.811  -9.360   9.407  0.00  0.00    +0.000 A 
ATOM     31  C   UNL     1      -4.104 -11.733   9.754  0.00  0.00    +0.000 A 
ATOM     32  C   UNL     1      -4.362 -10.579   9.013  0.00  0.00    +0.000 A 
ENDBRANCH  19  21
ENDBRANCH   7  19
ENDBRANCH  15  18
ENDBRANCH   9  15
TORSDOF 7
ENDMDL
MODEL 2
REMARK VINA RESULT:      -7.1      2.517      3.400
REMARK  Name = 11912477
REMARK  8 active torsions:
REMARK  status: ('A' for Active; 'I' for Inactive)
REMARK    1  A    between atoms: N_7  and  C_19
REMARK    2  A    between atoms: N_8  and  C_20
REMARK    3  A    between atoms: C_9  and  C_15
REMARK    4  A    between atoms: C_10  and  C_14
REMARK    5  A    between atoms: C_14  and  C_16
REMARK    6  A    between atoms: C_15  and  C_18
REMARK    7  A    between atoms: C_19  and  C_21
REMARK    8  A    between atoms: C_24  and  C_29
REMARK                            x       y       z     vdW  Elec       q    Type
REMARK                         _______ _______ _______ _____ _____    ______ ____
ROOT
ATOM      4  O   UNL     1      -7.576 -10.834  19.525  0.00  0.00    -0.252 OA
ATOM      6  N   UNL     1      -5.870 -10.453  18.013  0.00  0.00    -0.285 N 
ATOM      8  N   UNL     1      -7.848  -9.171  17.930  0.00  0.00    -0.269 N 
ATOM      9  C   UNL     1      -4.041 -11.868  16.272  0.00  0.00    +0.004 C 
ATOM     10  C   UNL     1      -4.908 -10.695  15.741  0.00  0.00    +0.010 C 
ATOM     11  C   UNL     1      -4.681 -12.542  17.499  0.00  0.00    +0.023 C 
ATOM     12  C   UNL     1      -5.237  -9.735  16.896  0.00  0.00    +0.113 C 
ATOM     13  C   UNL     1      -5.042 -11.521  18.577  0.00  0.00    +0.109 C 
ATOM     17  C   UNL     1      -7.139 -10.188  18.569  0.00  0.00    +0.306 C 
ATOM     34  H   UNL     1      -7.327  -8.429  17.478  0.00  0.00    +0.156 HD
ENDROOT
BRANCH   8  20
ATOM     20  C   UNL     1      -9.254  -9.045  17.814  0.00  0.00    +0.035 A 
ATOM     22  C   UNL     1      -9.803  -8.004  17.066  0.00  0.00    +0.035 A 
ATOM     23  C   UNL     1     -10.091  -9.962  18.451  0.00  0.00    +0.023 A 
ATOM     24  C   UNL     1     -11.188  -7.881  16.952  0.00  0.00    +0.057 A 
ATOM     27  C   UNL     1     -11.476  -9.838  18.337  0.00  0.00    +0.002 A 
ATOM     28  C   UNL     1     -12.025  -8.798  17.588  0.00  0.00    +0.012 A 
BRANCH  24  29
ATOM      1  F   UNL     1     -13.132  -6.672  16.257  0.00  0.00    -0.166 F 
ATOM      2  F   UNL     1     -11.528  -6.870  14.810  0.00  0.00    -0.166 F 
ATOM      3  F   UNL     1     -11.291  -5.545  16.519  0.00  0.00    -0.166 F 
ATOM     29  C   UNL     1     -11.774  -6.767  16.151  0.00  0.00    +0.417 C 
ENDBRANCH  24  29
ENDBRANCH   8  20
BRANCH  10  14
ATOM     14  C   UNL     1      -6.191 -11.140  15.030  0.00  0.00    +0.002 C 
ATOM     16  C   UNL     1      -7.063  -9.953  14.679  0.00  0.00    +0.004 C 
ENDBRANCH  10  14
BRANCH   9  15
ATOM     15  C   UNL     1      -3.709 -12.904  15.199  0.00  0.00    +0.099 C 
BRANCH  15  18
ATOM      5  O   UNL     1      -1.640 -12.062  14.269  0.00  0.00    -0.276 OA
ATOM      7  N   UNL     1      -3.535 -12.170  12.927  0.00  0.00    -0.311 N 
ATOM     18  C   UNL     1      -2.827 -12.335  14.108  0.00  0.00    +0.214 C 
ATOM     33  H   UNL     1      -4.520 -12.417  12.895  0.00  0.00    +0.149 HD
BRANCH   7  19
ATOM     19  C   UNL     1      -2.944 -11.642  11.719  0.00  0.00    +0.139 C 
BRANCH  19  21
ATOM     21  C   UNL     1      -3.711 -10.467  11.184  0.00  0.00    -0.030 A 
ATOM     25  C   UNL     1      -4.788  -9.951  11.903  0.00  0.00    +0.005 A 
ATOM     26  C   UNL     1      -3.344  -9.890   9.968  0.00  0.00    +0.005 A 
ATOM     30  C   UNL     1      -5.500  -8.859  11.407  0.00  0.00    +0.000 A 
ATOM     31  C   UNL     1      -4.056  -8.799   9.470  0.00  0.00    +0.000 A 
ATOM     32  C   UNL     1      -5.135  -8.283  10.190  0.00  0.00    +0.000 A 
ENDBRANCH  19  21
ENDBRANCH   7  19
ENDBRANCH  15  18
ENDBRANCH   9  15
TORSDOF 7
ENDMDL
MODEL 3
REMARK VINA RESULT:      -7.1      2.167      2.857
REMARK  Name = 11912477
REMARK  8 active torsions:
REMARK  status: ('A' for Active; 'I' for Inactive)
REMARK    1  A    between atoms: N_7  and  C_19
REMARK    2  A    between atoms: N_8  and  C_20
REMARK    3  A    between atoms: C_9  and  C_15
REMARK    4  A    between atoms: C_10  and  C_14
REMARK    5  A    between atoms: C_14  and  C_16
REMARK    6  A    between atoms: C_15  and  C_18
REMARK    7  A    between atoms: C_19  and  C_21
REMARK    8  A    between atoms: C_24  and  C_29
REMARK                            x       y       z     vdW  Elec       q    Type
REMARK                         _______ _______ _______ _____ _____    ______ ____
ROOT
ATOM      4  O   UNL     1      -7.687 -11.162  19.962  0.00  0.00    -0.252 OA
ATOM      6  N   UNL     1      -6.366 -10.263  18.291  0.00  0.00    -0.285 N 
ATOM      8  N   UNL     1      -8.702  -9.928  18.280  0.00  0.00    -0.269 N 
ATOM      9  C   UNL     1      -4.194 -10.962  16.511  0.00  0.00    +0.004 C 
ATOM     10  C   UNL     1      -5.495 -10.311  15.970  0.00  0.00    +0.010 C 
ATOM     11  C   UNL     1      -4.436 -11.715  17.832  0.00  0.00    +0.023 C 
ATOM     12  C   UNL     1      -6.144  -9.463  17.077  0.00  0.00    +0.113 C 
ATOM     13  C   UNL     1      -5.143 -10.832  18.860  0.00  0.00    +0.109 C 
ATOM     17  C   UNL     1      -7.604 -10.492  18.929  0.00  0.00    +0.306 C 
ATOM     34  H   UNL     1      -8.560  -9.086  17.735  0.00  0.00    +0.156 HD
ENDROOT
BRANCH   8  20
ATOM     20  C   UNL     1     -10.035 -10.406  18.272  0.00  0.00    +0.035 A 
ATOM     22  C   UNL     1     -10.940  -9.967  19.238  0.00  0.00    +0.035 A 
ATOM     23  C   UNL     1     -10.442 -11.319  17.299  0.00  0.00    +0.023 A 
ATOM     24  C   UNL     1     -12.253 -10.437  19.229  0.00  0.00    +0.057 A 
ATOM     27  C   UNL     1     -11.755 -11.790  17.291  0.00  0.00    +0.002 A 
ATOM     28  C   UNL     1     -12.661 -11.350  18.256  0.00  0.00    +0.012 A 
BRANCH  24  29
ATOM      1  F   UNL     1     -13.840 -10.980  20.935  0.00  0.00    -0.166 F 
ATOM      2  F   UNL     1     -14.236  -9.205  19.753  0.00  0.00    -0.166 F 
ATOM      3  F   UNL     1     -12.632  -9.195  21.221  0.00  0.00    -0.166 F 
ATOM     29  C   UNL     1     -13.221  -9.966  20.261  0.00  0.00    +0.417 C 
ENDBRANCH  24  29
ENDBRANCH   8  20
BRANCH  10  14
ATOM     14  C   UNL     1      -6.505 -11.315  15.402  0.00  0.00    +0.002 C 
ATOM     16  C   UNL     1      -7.721 -10.609  14.839  0.00  0.00    +0.004 C 
ENDBRANCH  10  14
BRANCH   9  15
ATOM     15  C   UNL     1      -3.507 -11.869  15.491  0.00  0.00    +0.099 C 
BRANCH  15  18
ATOM      5  O   UNL     1      -1.846 -10.287  14.723  0.00  0.00    -0.276 OA
ATOM      7  N   UNL     1      -3.184 -11.383  13.169  0.00  0.00    -0.311 N 
ATOM     18  C   UNL     1      -2.741 -11.083  14.450  0.00  0.00    +0.214 C 
ATOM     33  H   UNL     1      -3.939 -12.051  13.045  0.00  0.00    +0.149 HD
BRANCH   7  19
ATOM     19  C   UNL     1      -2.631 -10.776  11.981  0.00  0.00    +0.139 C 
BRANCH  19  21
ATOM     21  C   UNL     1      -3.652  -9.963  11.237  0.00  0.00    -0.030 A 
ATOM     25  C   UNL     1      -4.881  -9.677  11.829  0.00  0.00    +0.005 A 
ATOM     26  C   UNL     1      -3.369  -9.493   9.954  0.00  0.00    +0.005 A 
ATOM     30  C   UNL     1      -5.829  -8.922  11.139  0.00  0.00    +0.000 A 
ATOM     31  C   UNL     1      -4.317  -8.738   9.263  0.00  0.00    +0.000 A 
ATOM     32  C   UNL     1      -5.547  -8.452   9.856  0.00  0.00    +0.000 A 
ENDBRANCH  19  21
ENDBRANCH   7  19
ENDBRANCH  15  18
ENDBRANCH   9  15
TORSDOF 7
ENDMDL
MODEL 4
REMARK VINA RESULT:      -7.0     19.172     21.590
REMARK  Name = 11912477
REMARK  8 active torsions:
REMARK  status: ('A' for Active; 'I' for Inactive)
REMARK    1  A    between atoms: N_7  and  C_19
REMARK    2  A    between atoms: N_8  and  C_20
REMARK    3  A    between atoms: C_9  and  C_15
REMARK    4  A    between atoms: C_10  and  C_14
REMARK    5  A    between atoms: C_14  and  C_16
REMARK    6  A    between atoms: C_15  and  C_18
REMARK    7  A    between atoms: C_19  and  C_21
REMARK    8  A    between atoms: C_24  and  C_29
REMARK                            x       y       z     vdW  Elec       q    Type
REMARK                         _______ _______ _______ _____ _____    ______ ____
ROOT
ATOM      4  O   UNL     1     -17.703   3.950  19.756  0.00  0.00    -0.252 OA
ATOM      6  N   UNL     1     -18.187   3.630  21.993  0.00  0.00    -0.285 N 
ATOM      8  N   UNL     1     -17.191   5.640  21.261  0.00  0.00    -0.269 N 
ATOM      9  C   UNL     1     -17.956   1.650  24.091  0.00  0.00    +0.004 C 
ATOM     10  C   UNL     1     -17.457   3.104  24.304  0.00  0.00    +0.010 C 
ATOM     11  C   UNL     1     -17.964   1.259  22.602  0.00  0.00    +0.023 C 
ATOM     12  C   UNL     1     -18.254   4.059  23.399  0.00  0.00    +0.113 C 
ATOM     13  C   UNL     1     -18.716   2.286  21.756  0.00  0.00    +0.109 C 
ATOM     17  C   UNL     1     -17.697   4.389  20.909  0.00  0.00    +0.306 C 
ATOM     34  H   UNL     1     -17.577   6.106  22.073  0.00  0.00    +0.156 HD
ENDROOT
BRANCH   8  20
ATOM     20  C   UNL     1     -16.158   6.362  20.614  0.00  0.00    +0.035 A 
ATOM     22  C   UNL     1     -14.840   6.242  21.055  0.00  0.00    +0.035 A 
ATOM     23  C   UNL     1     -16.459   7.195  19.536  0.00  0.00    +0.023 A 
ATOM     24  C   UNL     1     -13.823   6.953  20.417  0.00  0.00    +0.057 A 
ATOM     27  C   UNL     1     -15.442   7.906  18.899  0.00  0.00    +0.002 A 
ATOM     28  C   UNL     1     -14.124   7.786  19.340  0.00  0.00    +0.012 A 
BRANCH  24  29
ATOM      1  F   UNL     1     -12.218   5.779  21.748  0.00  0.00    -0.166 F 
ATOM      2  F   UNL     1     -11.958   7.924  21.558  0.00  0.00    -0.166 F 
ATOM      3  F   UNL     1     -11.533   6.626  19.865  0.00  0.00    -0.166 F 
ATOM     29  C   UNL     1     -12.414   6.823  20.889  0.00  0.00    +0.417 C 
ENDBRANCH  24  29
ENDBRANCH   8  20
BRANCH  10  14
ATOM     14  C   UNL     1     -15.951   3.285  24.081  0.00  0.00    +0.002 C 
ATOM     16  C   UNL     1     -15.543   4.734  24.249  0.00  0.00    +0.004 C 
ENDBRANCH  10  14
BRANCH   9  15
ATOM     15  C   UNL     1     -17.181   0.622  24.914  0.00  0.00    +0.099 C 
BRANCH  15  18
ATOM      5  O   UNL     1     -18.547  -0.147  26.757  0.00  0.00    -0.276 OA
ATOM      7  N   UNL     1     -16.908   1.457  27.141  0.00  0.00    -0.311 N 
ATOM     18  C   UNL     1     -17.640   0.578  26.355  0.00  0.00    +0.214 C 
ATOM     33  H   UNL     1     -16.181   2.024  26.714  0.00  0.00    +0.149 HD
BRANCH   7  19
ATOM     19  C   UNL     1     -17.134   1.624  28.558  0.00  0.00    +0.139 C 
BRANCH  19  21
ATOM     21  C   UNL     1     -15.848   1.767  29.320  0.00  0.00    -0.030 A 
ATOM     25  C   UNL     1     -15.057   0.647  29.571  0.00  0.00    +0.005 A 
ATOM     26  C   UNL     1     -15.444   3.023  29.775  0.00  0.00    +0.005 A 
ATOM     30  C   UNL     1     -13.862   0.780  30.278  0.00  0.00    +0.000 A 
ATOM     31  C   UNL     1     -14.249   3.157  30.483  0.00  0.00    +0.000 A 
ATOM     32  C   UNL     1     -13.457   2.035  30.734  0.00  0.00    +0.000 A 
ENDBRANCH  19  21
ENDBRANCH   7  19
ENDBRANCH  15  18
ENDBRANCH   9  15
TORSDOF 7
ENDMDL
MODEL 5
REMARK VINA RESULT:      -7.0      4.157      8.899
REMARK  Name = 11912477
REMARK  8 active torsions:
REMARK  status: ('A' for Active; 'I' for Inactive)
REMARK    1  A    between atoms: N_7  and  C_19
REMARK    2  A    between atoms: N_8  and  C_20
REMARK    3  A    between atoms: C_9  and  C_15
REMARK    4  A    between atoms: C_10  and  C_14
REMARK    5  A    between atoms: C_14  and  C_16
REMARK    6  A    between atoms: C_15  and  C_18
REMARK    7  A    between atoms: C_19  and  C_21
REMARK    8  A    between atoms: C_24  and  C_29
REMARK                            x       y       z     vdW  Elec       q    Type
REMARK                         _______ _______ _______ _____ _____    ______ ____
ROOT
ATOM      4  O   UNL     1      -2.197 -11.132  15.644  0.00  0.00    -0.252 OA
ATOM      6  N   UNL     1      -4.325 -11.802  16.247  0.00  0.00    -0.285 N 
ATOM      8  N   UNL     1      -3.746 -11.566  13.972  0.00  0.00    -0.269 N 
ATOM      9  C   UNL     1      -6.455 -11.154  18.096  0.00  0.00    +0.004 C 
ATOM     10  C   UNL     1      -6.731 -11.302  16.576  0.00  0.00    +0.010 C 
ATOM     11  C   UNL     1      -4.991 -10.772  18.377  0.00  0.00    +0.023 C 
ATOM     12  C   UNL     1      -5.695 -12.254  15.956  0.00  0.00    +0.113 C 
ATOM     13  C   UNL     1      -4.018 -11.720  17.676  0.00  0.00    +0.109 C 
ATOM     17  C   UNL     1      -3.329 -11.482  15.300  0.00  0.00    +0.306 C 
ATOM     34  H   UNL     1      -4.476 -12.228  13.736  0.00  0.00    +0.156 HD
ENDROOT
BRANCH   8  20
ATOM     20  C   UNL     1      -3.273 -10.809  12.873  0.00  0.00    +0.035 A 
ATOM     22  C   UNL     1      -4.175 -10.282  11.948  0.00  0.00    +0.035 A 
ATOM     23  C   UNL     1      -1.905 -10.590  12.714  0.00  0.00    +0.023 A 
ATOM     24  C   UNL     1      -3.709  -9.535  10.866  0.00  0.00    +0.057 A 
ATOM     27  C   UNL     1      -1.439  -9.844  11.631  0.00  0.00    +0.002 A 
ATOM     28  C   UNL     1      -2.340  -9.316  10.707  0.00  0.00    +0.012 A 
BRANCH  24  29
ATOM      1  F   UNL     1      -4.131  -8.754   8.644  0.00  0.00    -0.166 F 
ATOM      2  F   UNL     1      -5.200  -7.767  10.253  0.00  0.00    -0.166 F 
ATOM      3  F   UNL     1      -5.747  -9.788   9.667  0.00  0.00    -0.166 F 
ATOM     29  C   UNL     1      -4.674  -8.972   9.878  0.00  0.00    +0.417 C 
ENDBRANCH  24  29
ENDBRANCH   8  20
BRANCH  10  14
ATOM     14  C   UNL     1      -6.762  -9.972  15.815  0.00  0.00    +0.002 C 
ATOM     16  C   UNL     1      -7.978  -9.883  14.916  0.00  0.00    +0.004 C 
ENDBRANCH  10  14
BRANCH   9  15
ATOM     15  C   UNL     1      -7.409 -10.181  18.788  0.00  0.00    +0.099 C 
BRANCH  15  18
ATOM      5  O   UNL     1      -9.339 -11.626  18.588  0.00  0.00    -0.276 OA
ATOM      7  N   UNL     1      -9.557  -9.358  18.124  0.00  0.00    -0.311 N 
ATOM     18  C   UNL     1      -8.860 -10.498  18.498  0.00  0.00    +0.214 C 
ATOM     33  H   UNL     1      -9.069  -8.469  18.069  0.00  0.00    +0.149 HD
BRANCH   7  19
ATOM     19  C   UNL     1     -10.962  -9.367  17.787  0.00  0.00    +0.139 C 
BRANCH  19  21
ATOM     21  C   UNL     1     -11.296  -8.341  16.742  0.00  0.00    -0.030 A 
ATOM     25  C   UNL     1     -12.089  -8.690  15.650  0.00  0.00    +0.005 A 
ATOM     26  C   UNL     1     -10.814  -7.038  16.866  0.00  0.00    +0.005 A 
ATOM     30  C   UNL     1     -12.400  -7.737  14.680  0.00  0.00    +0.000 A 
ATOM     31  C   UNL     1     -11.124  -6.084  15.897  0.00  0.00    +0.000 A 
ATOM     32  C   UNL     1     -11.918  -6.433  14.803  0.00  0.00    +0.000 A 
ENDBRANCH  19  21
ENDBRANCH   7  19
ENDBRANCH  15  18
ENDBRANCH   9  15
TORSDOF 7
ENDMDL
MODEL 6
REMARK VINA RESULT:      -7.0      6.043     10.512
REMARK  Name = 11912477
REMARK  8 active torsions:
REMARK  status: ('A' for Active; 'I' for Inactive)
REMARK    1  A    between atoms: N_7  and  C_19
REMARK    2  A    between atoms: N_8  and  C_20
REMARK    3  A    between atoms: C_9  and  C_15
REMARK    4  A    between atoms: C_10  and  C_14
REMARK    5  A    between atoms: C_14  and  C_16
REMARK    6  A    between atoms: C_15  and  C_18
REMARK    7  A    between atoms: C_19  and  C_21
REMARK    8  A    between atoms: C_24  and  C_29
REMARK                            x       y       z     vdW  Elec       q    Type
REMARK                         _______ _______ _______ _____ _____    ______ ____
ROOT
ATOM      4  O   UNL     1      -6.069 -13.352   9.100  0.00  0.00    -0.252 OA
ATOM      6  N   UNL     1      -5.597 -11.735  10.682  0.00  0.00    -0.285 N 
ATOM      8  N   UNL     1      -6.441 -11.126   8.564  0.00  0.00    -0.269 N 
ATOM      9  C   UNL     1      -3.558 -10.968  12.587  0.00  0.00    +0.004 C 
ATOM     10  C   UNL     1      -4.124  -9.946  11.565  0.00  0.00    +0.010 C 
ATOM     11  C   UNL     1      -3.698 -12.417  12.085  0.00  0.00    +0.023 C 
ATOM     12  C   UNL     1      -5.556 -10.349  11.176  0.00  0.00    +0.113 C 
ATOM     13  C   UNL     1      -5.131 -12.725  11.653  0.00  0.00    +0.109 C 
ATOM     17  C   UNL     1      -6.052 -12.160   9.415  0.00  0.00    +0.306 C 
ATOM     34  H   UNL     1      -6.805 -10.274   8.975  0.00  0.00    +0.156 HD
ENDROOT
BRANCH   8  20
ATOM     20  C   UNL     1      -6.376 -11.107   7.150  0.00  0.00    +0.035 A 
ATOM     22  C   UNL     1      -5.319 -11.733   6.490  0.00  0.00    +0.035 A 
ATOM     23  C   UNL     1      -7.370 -10.459   6.415  0.00  0.00    +0.023 A 
ATOM     24  C   UNL     1      -5.256 -11.715   5.097  0.00  0.00    +0.057 A 
ATOM     27  C   UNL     1      -7.307 -10.440   5.022  0.00  0.00    +0.002 A 
ATOM     28  C   UNL     1      -6.250 -11.067   4.362  0.00  0.00    +0.012 A 
BRANCH  24  29
ATOM      1  F   UNL     1      -4.048 -13.728   4.636  0.00  0.00    -0.166 F 
ATOM      2  F   UNL     1      -2.898 -11.891   4.732  0.00  0.00    -0.166 F 
ATOM      3  F   UNL     1      -4.206 -12.264   3.035  0.00  0.00    -0.166 F 
ATOM     29  C   UNL     1      -4.126 -12.386   4.392  0.00  0.00    +0.417 C 
ENDBRANCH  24  29
ENDBRANCH   8  20
BRANCH  10  14
ATOM     14  C   UNL     1      -3.257  -9.769  10.313  0.00  0.00    +0.002 C 
ATOM     16  C   UNL     1      -3.931  -8.863   9.305  0.00  0.00    +0.004 C 
ENDBRANCH  10  14
BRANCH   9  15
ATOM     15  C   UNL     1      -2.113 -10.675  12.991  0.00  0.00    +0.099 C 
BRANCH  15  18
ATOM      5  O   UNL     1      -1.083  -9.685  14.943  0.00  0.00    -0.276 OA
ATOM      7  N   UNL     1      -3.002 -10.973  15.194  0.00  0.00    -0.311 N 
ATOM     18  C   UNL     1      -1.982 -10.373  14.468  0.00  0.00    +0.214 C 
ATOM     33  H   UNL     1      -3.697 -11.534  14.711  0.00  0.00    +0.149 HD
BRANCH   7  19
ATOM     19  C   UNL     1      -3.123 -10.855  16.629  0.00  0.00    +0.139 C 
BRANCH  19  21
ATOM     21  C   UNL     1      -4.527 -10.523  17.049  0.00  0.00    -0.030 A 
ATOM     25  C   UNL     1      -5.375  -9.846  16.174  0.00  0.00    +0.005 A 
ATOM     26  C   UNL     1      -4.982 -10.894  18.314  0.00  0.00    +0.005 A 
ATOM     30  C   UNL     1      -6.679  -9.539  16.563  0.00  0.00    +0.000 A 
ATOM     31  C   UNL     1      -6.285 -10.587  18.704  0.00  0.00    +0.000 A 
ATOM     32  C   UNL     1      -7.135  -9.909  17.828  0.00  0.00    +0.000 A 
ENDBRANCH  19  21
ENDBRANCH   7  19
ENDBRANCH  15  18
ENDBRANCH   9  15
TORSDOF 7
ENDMDL
MODEL 7
REMARK VINA RESULT:      -6.9      4.596      8.656
REMARK  Name = 11912477
REMARK  8 active torsions:
REMARK  status: ('A' for Active; 'I' for Inactive)
REMARK    1  A    between atoms: N_7  and  C_19
REMARK    2  A    between atoms: N_8  and  C_20
REMARK    3  A    between atoms: C_9  and  C_15
REMARK    4  A    between atoms: C_10  and  C_14
REMARK    5  A    between atoms: C_14  and  C_16
REMARK    6  A    between atoms: C_15  and  C_18
REMARK    7  A    between atoms: C_19  and  C_21
REMARK    8  A    between atoms: C_24  and  C_29
REMARK                            x       y       z     vdW  Elec       q    Type
REMARK                         _______ _______ _______ _____ _____    ______ ____
ROOT
ATOM      4  O   UNL     1      -4.239  -8.242  10.360  0.00  0.00    -0.252 OA
ATOM      6  N   UNL     1      -3.498 -10.422  10.559  0.00  0.00    -0.285 N 
ATOM      8  N   UNL     1      -5.557  -9.950   9.507  0.00  0.00    -0.269 N 
ATOM      9  C   UNL     1      -2.330 -12.242  12.483  0.00  0.00    +0.004 C 
ATOM     10  C   UNL     1      -3.590 -12.638  11.667  0.00  0.00    +0.010 C 
ATOM     11  C   UNL     1      -2.197 -10.714  12.624  0.00  0.00    +0.023 C 
ATOM     12  C   UNL     1      -3.601 -11.872  10.334  0.00  0.00    +0.113 C 
ATOM     13  C   UNL     1      -2.284 -10.016  11.267  0.00  0.00    +0.109 C 
ATOM     17  C   UNL     1      -4.425  -9.442  10.143  0.00  0.00    +0.306 C 
ATOM     34  H   UNL     1      -5.473 -10.819   8.993  0.00  0.00    +0.156 HD
ENDROOT
BRANCH   8  20
ATOM     20  C   UNL     1      -6.860  -9.395   9.498  0.00  0.00    +0.035 A 
ATOM     22  C   UNL     1      -7.099  -8.183   8.851  0.00  0.00    +0.035 A 
ATOM     23  C   UNL     1      -7.905 -10.061  10.139  0.00  0.00    +0.023 A 
ATOM     24  C   UNL     1      -8.383  -7.637   8.842  0.00  0.00    +0.057 A 
ATOM     27  C   UNL     1      -9.189  -9.515  10.131  0.00  0.00    +0.002 A 
ATOM     28  C   UNL     1      -9.428  -8.303   9.483  0.00  0.00    +0.012 A 
BRANCH  24  29
ATOM      1  F   UNL     1      -8.848  -6.471   6.806  0.00  0.00    -0.166 F 
ATOM      2  F   UNL     1      -7.609  -5.449   8.263  0.00  0.00    -0.166 F 
ATOM      3  F   UNL     1      -9.738  -5.695   8.632  0.00  0.00    -0.166 F 
ATOM     29  C   UNL     1      -8.637  -6.342   8.149  0.00  0.00    +0.417 C 
ENDBRANCH  24  29
ENDBRANCH   8  20
BRANCH  10  14
ATOM     14  C   UNL     1      -4.910 -12.429  12.417  0.00  0.00    +0.002 C 
ATOM     16  C   UNL     1      -6.083 -12.964  11.622  0.00  0.00    +0.004 C 
ENDBRANCH  10  14
BRANCH   9  15
ATOM     15  C   UNL     1      -2.264 -12.917  13.851  0.00  0.00    +0.099 C 
BRANCH  15  18
ATOM      5  O   UNL     1      -0.936 -11.419  15.210  0.00  0.00    -0.276 OA
ATOM      7  N   UNL     1      -3.201 -11.672  15.669  0.00  0.00    -0.311 N 
ATOM     18  C   UNL     1      -2.029 -11.924  14.969  0.00  0.00    +0.214 C 
ATOM     33  H   UNL     1      -4.057 -12.148  15.399  0.00  0.00    +0.149 HD
BRANCH   7  19
ATOM     19  C   UNL     1      -3.270 -10.764  16.791  0.00  0.00    +0.139 C 
BRANCH  19  21
ATOM     21  C   UNL     1      -4.689 -10.461  17.181  0.00  0.00    -0.030 A 
ATOM     25  C   UNL     1      -5.535  -9.810  16.285  0.00  0.00    +0.005 A 
ATOM     26  C   UNL     1      -5.159 -10.831  18.441  0.00  0.00    +0.005 A 
ATOM     30  C   UNL     1      -6.852  -9.528  16.647  0.00  0.00    +0.000 A 
ATOM     31  C   UNL     1      -6.476 -10.550  18.805  0.00  0.00    +0.000 A 
ATOM     32  C   UNL     1      -7.323  -9.898  17.907  0.00  0.00    +0.000 A 
ENDBRANCH  19  21
ENDBRANCH   7  19
ENDBRANCH  15  18
ENDBRANCH   9  15
TORSDOF 7
ENDMDL
MODEL 8
REMARK VINA RESULT:      -6.9      4.871      8.449
REMARK  Name = 11912477
REMARK  8 active torsions:
REMARK  status: ('A' for Active; 'I' for Inactive)
REMARK    1  A    between atoms: N_7  and  C_19
REMARK    2  A    between atoms: N_8  and  C_20
REMARK    3  A    between atoms: C_9  and  C_15
REMARK    4  A    between atoms: C_10  and  C_14
REMARK    5  A    between atoms: C_14  and  C_16
REMARK    6  A    between atoms: C_15  and  C_18
REMARK    7  A    between atoms: C_19  and  C_21
REMARK    8  A    between atoms: C_24  and  C_29
REMARK                            x       y       z     vdW  Elec       q    Type
REMARK                         _______ _______ _______ _____ _____    ______ ____
ROOT
ATOM      4  O   UNL     1      -3.035 -12.959  11.901  0.00  0.00    -0.252 OA
ATOM      6  N   UNL     1      -3.569 -11.393  10.287  0.00  0.00    -0.285 N 
ATOM      8  N   UNL     1      -2.815 -10.708  12.414  0.00  0.00    -0.269 N 
ATOM      9  C   UNL     1      -5.607 -10.778   8.326  0.00  0.00    +0.004 C 
ATOM     10  C   UNL     1      -5.129  -9.711   9.346  0.00  0.00    +0.010 C 
ATOM     11  C   UNL     1      -5.389 -12.209   8.851  0.00  0.00    +0.023 C 
ATOM     12  C   UNL     1      -3.684 -10.019   9.774  0.00  0.00    +0.113 C 
ATOM     13  C   UNL     1      -3.950 -12.422   9.318  0.00  0.00    +0.109 C 
ATOM     17  C   UNL     1      -3.119 -11.774  11.569  0.00  0.00    +0.306 C 
ATOM     34  H   UNL     1      -2.494  -9.840  12.001  0.00  0.00    +0.156 HD
ENDROOT
BRANCH   8  20
ATOM     20  C   UNL     1      -2.913 -10.675  13.827  0.00  0.00    +0.035 A 
ATOM     22  C   UNL     1      -4.162 -10.559  14.437  0.00  0.00    +0.035 A 
ATOM     23  C   UNL     1      -1.760 -10.759  14.608  0.00  0.00    +0.023 A 
ATOM     24  C   UNL     1      -4.258 -10.528  15.829  0.00  0.00    +0.057 A 
ATOM     27  C   UNL     1      -1.857 -10.728  15.999  0.00  0.00    +0.002 A 
ATOM     28  C   UNL     1      -3.105 -10.611  16.610  0.00  0.00    +0.012 A 
BRANCH  24  29
ATOM      1  F   UNL     1      -5.563 -10.596  17.833  0.00  0.00    -0.166 F 
ATOM      2  F   UNL     1      -6.515 -11.299  16.015  0.00  0.00    -0.166 F 
ATOM      3  F   UNL     1      -6.155  -9.173  16.299  0.00  0.00    -0.166 F 
ATOM     29  C   UNL     1      -5.594 -10.404  16.481  0.00  0.00    +0.417 C 
ENDBRANCH  24  29
ENDBRANCH   8  20
BRANCH  10  14
ATOM     14  C   UNL     1      -6.034  -9.573  10.576  0.00  0.00    +0.002 C 
ATOM     16  C   UNL     1      -5.586  -8.428  11.461  0.00  0.00    +0.004 C 
ENDBRANCH  10  14
BRANCH   9  15
ATOM     15  C   UNL     1      -7.057 -10.580   7.886  0.00  0.00    +0.099 C 
BRANCH  15  18
ATOM      5  O   UNL     1      -6.756  -9.355   5.821  0.00  0.00    -0.276 OA
ATOM      7  N   UNL     1      -7.943  -8.379   7.566  0.00  0.00    -0.311 N 
ATOM     18  C   UNL     1      -7.217  -9.394   6.959  0.00  0.00    +0.214 C 
ATOM     33  H   UNL     1      -8.276  -8.502   8.518  0.00  0.00    +0.149 HD
BRANCH   7  19
ATOM     19  C   UNL     1      -8.246  -7.127   6.913  0.00  0.00    +0.139 C 
BRANCH  19  21
ATOM     21  C   UNL     1      -9.421  -6.434   7.542  0.00  0.00    -0.030 A 
ATOM     25  C   UNL     1      -9.218  -5.349   8.392  0.00  0.00    +0.005 A 
ATOM     26  C   UNL     1     -10.716  -6.878   7.273  0.00  0.00    +0.005 A 
ATOM     30  C   UNL     1     -10.309  -4.705   8.976  0.00  0.00    +0.000 A 
ATOM     31  C   UNL     1     -11.808  -6.235   7.857  0.00  0.00    +0.000 A 
ATOM     32  C   UNL     1     -11.605  -5.148   8.708  0.00  0.00    +0.000 A 
ENDBRANCH  19  21
ENDBRANCH   7  19
ENDBRANCH  15  18
ENDBRANCH   9  15
TORSDOF 7
ENDMDL
MODEL 9
REMARK VINA RESULT:      -6.8      5.743      8.670
REMARK  Name = 11912477
REMARK  8 active torsions:
REMARK  status: ('A' for Active; 'I' for Inactive)
REMARK    1  A    between atoms: N_7  and  C_19
REMARK    2  A    between atoms: N_8  and  C_20
REMARK    3  A    between atoms: C_9  and  C_15
REMARK    4  A    between atoms: C_10  and  C_14
REMARK    5  A    between atoms: C_14  and  C_16
REMARK    6  A    between atoms: C_15  and  C_18
REMARK    7  A    between atoms: C_19  and  C_21
REMARK    8  A    between atoms: C_24  and  C_29
REMARK                            x       y       z     vdW  Elec       q    Type
REMARK                         _______ _______ _______ _____ _____    ______ ____
ROOT
ATOM      4  O   UNL     1      -7.007 -10.776  13.996  0.00  0.00    -0.252 OA
ATOM      6  N   UNL     1      -6.638 -10.856  11.716  0.00  0.00    -0.285 N 
ATOM      8  N   UNL     1      -4.937 -11.484  13.225  0.00  0.00    -0.269 N 
ATOM      9  C   UNL     1      -7.036  -9.297   9.310  0.00  0.00    +0.004 C 
ATOM     10  C   UNL     1      -5.646  -9.895   9.656  0.00  0.00    +0.010 C 
ATOM     11  C   UNL     1      -7.897  -9.084  10.567  0.00  0.00    +0.023 C 
ATOM     12  C   UNL     1      -5.829 -11.152  10.523  0.00  0.00    +0.113 C 
ATOM     13  C   UNL     1      -7.980 -10.355  11.413  0.00  0.00    +0.109 C 
ATOM     17  C   UNL     1      -6.246 -11.033  13.060  0.00  0.00    +0.306 C 
ATOM     34  H   UNL     1      -4.530 -12.060  12.497  0.00  0.00    +0.156 HD
ENDROOT
BRANCH   8  20
ATOM     20  C   UNL     1      -4.067 -11.221  14.311  0.00  0.00    +0.035 A 
ATOM     22  C   UNL     1      -4.470 -11.509  15.615  0.00  0.00    +0.035 A 
ATOM     23  C   UNL     1      -2.806 -10.671  14.077  0.00  0.00    +0.023 A 
ATOM     24  C   UNL     1      -3.613 -11.250  16.684  0.00  0.00    +0.057 A 
ATOM     27  C   UNL     1      -1.949 -10.412  15.146  0.00  0.00    +0.002 A 
ATOM     28  C   UNL     1      -2.352 -10.700  16.450  0.00  0.00    +0.012 A 
BRANCH  24  29
ATOM      1  F   UNL     1      -4.860 -10.608  18.622  0.00  0.00    -0.166 F 
ATOM      2  F   UNL     1      -3.006 -11.682  18.957  0.00  0.00    -0.166 F 
ATOM      3  F   UNL     1      -4.738 -12.730  18.165  0.00  0.00    -0.166 F 
ATOM     29  C   UNL     1      -4.044 -11.558  18.078  0.00  0.00    +0.417 C 
ENDBRANCH  24  29
ENDBRANCH   8  20
BRANCH  10  14
ATOM     14  C   UNL     1      -4.694  -8.906  10.339  0.00  0.00    +0.002 C 
ATOM     16  C   UNL     1      -3.276  -9.435  10.358  0.00  0.00    +0.004 C 
ENDBRANCH  10  14
BRANCH   9  15
ATOM     15  C   UNL     1      -6.949  -8.010   8.491  0.00  0.00    +0.099 C 
BRANCH  15  18
ATOM      5  O   UNL     1      -8.870  -8.376   7.068  0.00  0.00    -0.276 OA
ATOM      7  N   UNL     1      -8.703  -6.396   8.274  0.00  0.00    -0.311 N 
ATOM     18  C   UNL     1      -8.272  -7.646   7.854  0.00  0.00    +0.214 C 
ATOM     33  H   UNL     1      -8.132  -5.861   8.921  0.00  0.00    +0.149 HD
BRANCH   7  19
ATOM     19  C   UNL     1      -9.936  -5.793   7.822  0.00  0.00    +0.139 C 
BRANCH  19  21
ATOM     21  C   UNL     1     -10.752  -5.257   8.964  0.00  0.00    -0.030 A 
ATOM     25  C   UNL     1     -10.858  -3.881   9.159  0.00  0.00    +0.005 A 
ATOM     26  C   UNL     1     -11.404  -6.137   9.828  0.00  0.00    +0.005 A 
ATOM     30  C   UNL     1     -11.615  -3.383  10.220  0.00  0.00    +0.000 A 
ATOM     31  C   UNL     1     -12.161  -5.640  10.888  0.00  0.00    +0.000 A 
ATOM     32  C   UNL     1     -12.268  -4.263  11.084  0.00  0.00    +0.000 A 
ENDBRANCH  19  21
ENDBRANCH   7  19
ENDBRANCH  15  18
ENDBRANCH   9  15
TORSDOF 7
ENDMDL
MODEL 10
REMARK VINA RESULT:      -6.8      5.742     10.278
REMARK  Name = 11912477
REMARK  8 active torsions:
REMARK  status: ('A' for Active; 'I' for Inactive)
REMARK    1  A    between atoms: N_7  and  C_19
REMARK    2  A    between atoms: N_8  and  C_20
REMARK    3  A    between atoms: C_9  and  C_15
REMARK    4  A    between atoms: C_10  and  C_14
REMARK    5  A    between atoms: C_14  and  C_16
REMARK    6  A    between atoms: C_15  and  C_18
REMARK    7  A    between atoms: C_19  and  C_21
REMARK    8  A    between atoms: C_24  and  C_29
REMARK                            x       y       z     vdW  Elec       q    Type
REMARK                         _______ _______ _______ _____ _____    ______ ____
ROOT
ATOM      4  O   UNL     1      -8.934  -9.297  10.138  0.00  0.00    -0.252 OA
ATOM      6  N   UNL     1      -6.882  -8.976  11.152  0.00  0.00    -0.285 N 
ATOM      8  N   UNL     1      -7.328  -8.039   9.033  0.00  0.00    -0.269 N 
ATOM      9  C   UNL     1      -4.817 -10.424  12.573  0.00  0.00    +0.004 C 
ATOM     10  C   UNL     1      -4.471  -9.519  11.360  0.00  0.00    +0.010 C 
ATOM     11  C   UNL     1      -6.270 -10.929  12.514  0.00  0.00    +0.023 C 
ATOM     12  C   UNL     1      -5.527  -8.408  11.230  0.00  0.00    +0.113 C 
ATOM     13  C   UNL     1      -7.257  -9.779  12.317  0.00  0.00    +0.109 C 
ATOM     17  C   UNL     1      -7.807  -8.795  10.102  0.00  0.00    +0.306 C 
ATOM     34  H   UNL     1      -6.625  -7.333   9.218  0.00  0.00    +0.156 HD
ENDROOT
BRANCH   8  20
ATOM     20  C   UNL     1      -7.699  -8.146   7.670  0.00  0.00    +0.035 A 
ATOM     22  C   UNL     1      -7.217  -9.201   6.896  0.00  0.00    +0.035 A 
ATOM     23  C   UNL     1      -8.545  -7.193   7.102  0.00  0.00    +0.023 A 
ATOM     24  C   UNL     1      -7.583  -9.305   5.553  0.00  0.00    +0.057 A 
ATOM     27  C   UNL     1      -8.910  -7.298   5.760  0.00  0.00    +0.002 A 
ATOM     28  C   UNL     1      -8.430  -8.353   4.985  0.00  0.00    +0.012 A 
BRANCH  24  29
ATOM      1  F   UNL     1      -7.753 -11.602   4.907  0.00  0.00    -0.166 F 
ATOM      2  F   UNL     1      -5.762 -10.745   4.977  0.00  0.00    -0.166 F 
ATOM      3  F   UNL     1      -7.132 -10.176   3.387  0.00  0.00    -0.166 F 
ATOM     29  C   UNL     1      -7.069 -10.434   4.726  0.00  0.00    +0.417 C 
ENDBRANCH  24  29
ENDBRANCH   8  20
BRANCH  10  14
ATOM     14  C   UNL     1      -4.325 -10.278  10.036  0.00  0.00    +0.002 C 
ATOM     16  C   UNL     1      -4.089  -9.327   8.882  0.00  0.00    +0.004 C 
ENDBRANCH  10  14
BRANCH   9  15
ATOM     15  C   UNL     1      -3.846 -11.591  12.747  0.00  0.00    +0.099 C 
BRANCH  15  18
ATOM      5  O   UNL     1      -3.357 -12.968  14.675  0.00  0.00    -0.276 OA
ATOM      7  N   UNL     1      -3.408 -10.655  14.906  0.00  0.00    -0.311 N 
ATOM     18  C   UNL     1      -3.512 -11.846  14.201  0.00  0.00    +0.214 C 
ATOM     33  H   UNL     1      -3.563  -9.773  14.426  0.00  0.00    +0.149 HD
BRANCH   7  19
ATOM     19  C   UNL     1      -3.100 -10.598  16.317  0.00  0.00    +0.139 C 
BRANCH  19  21
ATOM     21  C   UNL     1      -4.336 -10.678  17.166  0.00  0.00    -0.030 A 
ATOM     25  C   UNL     1      -4.314 -11.392  18.363  0.00  0.00    +0.005 A 
ATOM     26  C   UNL     1      -5.505 -10.036  16.757  0.00  0.00    +0.005 A 
ATOM     30  C   UNL     1      -5.462 -11.466  19.152  0.00  0.00    +0.000 A 
ATOM     31  C   UNL     1      -6.653 -10.110  17.546  0.00  0.00    +0.000 A 
ATOM     32  C   UNL     1      -6.632 -10.825  18.744  0.00  0.00    +0.000 A 
ENDBRANCH  19  21
ENDBRANCH   7  19
ENDBRANCH  15  18
ENDBRANCH   9  15
TORSDOF 7
ENDMDL
