MODEL 1
REMARK VINA RESULT:      -7.0      0.000      0.000
REMARK  Name = 7662935
REMARK  7 active torsions:
REMARK  status: ('A' for Active; 'I' for Inactive)
REMARK    1  A    between atoms: O_3  and  C_22
REMARK    2  A    between atoms: O_3  and  C_28
REMARK    3  A    between atoms: O_4  and  C_30
REMARK    4  A    between atoms: C_16  and  C_21
REMARK    5  A    between atoms: C_18  and  C_22
REMARK    6  A    between atoms: C_25  and  C_29
REMARK    7  A    between atoms: C_28  and  C_30
REMARK                            x       y       z     vdW  Elec       q    Type
REMARK                         _______ _______ _______ _____ _____    ______ ____
ROOT
ATOM      1  O   UNL     1      10.947   8.951  17.230  0.00  0.00    -0.268 OA
ATOM      2  O   UNL     1      11.189  11.838  21.628  0.00  0.00    -0.273 OA
ATOM      6  N   UNL     1      12.169   9.765  21.997  0.00  0.00    -0.299 N 
ATOM      7  N   UNL     1      12.068   8.293  19.177  0.00  0.00    -0.311 N 
ATOM      9  C   UNL     1      10.801   7.788  21.348  0.00  0.00    +0.027 C 
ATOM     10  C   UNL     1      13.253   7.636  21.296  0.00  0.00    +0.054 C 
ATOM     11  C   UNL     1      11.977   6.875  21.654  0.00  0.00    +0.018 C 
ATOM     12  C   UNL     1      10.887   9.085  22.171  0.00  0.00    +0.113 C 
ATOM     13  C   UNL     1      10.778   8.066  19.845  0.00  0.00    +0.130 C 
ATOM     14  C   UNL     1      13.352   8.909  22.163  0.00  0.00    +0.117 C 
ATOM     15  C   UNL     1      13.294   8.003  19.810  0.00  0.00    +0.034 A 
ATOM     16  C   UNL     1      14.453   8.083  19.107  0.00  0.00    +0.002 A 
ATOM     17  C   UNL     1      11.990   8.699  17.834  0.00  0.00    +0.252 A 
ATOM     18  C   UNL     1      12.197  11.139  21.764  0.00  0.00    +0.241 C 
ATOM     19  C   UNL     1      14.412   8.503  17.719  0.00  0.00    +0.015 A 
ATOM     20  C   UNL     1      13.272   8.812  17.102  0.00  0.00    +0.071 A 
ENDROOT
BRANCH  16  21
ATOM     21  C   UNL     1      15.762   7.770  19.722  0.00  0.00    -0.015 A 
ATOM     23  C   UNL     1      16.430   8.744  20.458  0.00  0.00    +0.027 A 
ATOM     24  C   UNL     1      16.315   6.504  19.560  0.00  0.00    +0.008 A 
ATOM     25  C   UNL     1      17.664   8.448  21.038  0.00  0.00    +0.052 A 
ATOM     26  C   UNL     1      17.549   6.208  20.140  0.00  0.00    +0.002 A 
ATOM     27  C   UNL     1      18.223   7.181  20.879  0.00  0.00    +0.019 A 
BRANCH  25  29
ATOM      8  N   UNL     1      18.917  10.254  22.409  0.00  0.00    -0.191 NA
ATOM     29  C   UNL     1      18.356   9.444  21.794  0.00  0.00    +0.099 C 
ENDBRANCH  25  29
ENDBRANCH  16  21
BRANCH  18  22
ATOM     22  C   UNL     1      13.558  11.782  21.668  0.00  0.00    +0.256 C 
BRANCH  22   3
ATOM      3  O   UNL     1      13.662  12.668  22.756  0.00  0.00    -0.359 OA
BRANCH   3  28
ATOM     28  C   UNL     1      14.007  11.993  23.965  0.00  0.00    +0.280 C 
BRANCH  28  30
ATOM      5  O   UNL     1      12.693  13.376  25.471  0.00  0.00    -0.248 OA
ATOM     30  C   UNL     1      12.971  12.275  25.017  0.00  0.00    +0.331 C 
BRANCH  30   4
ATOM      4  O   UNL     1      12.372  11.121  25.405  0.00  0.00    -0.479 OA
ATOM     31  H   UNL     1      11.641  10.868  24.800  0.00  0.00    +0.295 HD
ENDBRANCH  30   4
ENDBRANCH  28  30
ENDBRANCH   3  28
ENDBRANCH  22   3
ENDBRANCH  18  22
TORSDOF 7
ENDMDL
MODEL 2
REMARK VINA RESULT:      -6.4      2.524      3.859
REMARK  Name = 7662935
REMARK  7 active torsions:
REMARK  status: ('A' for Active; 'I' for Inactive)
REMARK    1  A    between atoms: O_3  and  C_22
REMARK    2  A    between atoms: O_3  and  C_28
REMARK    3  A    between atoms: O_4  and  C_30
REMARK    4  A    between atoms: C_16  and  C_21
REMARK    5  A    between atoms: C_18  and  C_22
REMARK    6  A    between atoms: C_25  and  C_29
REMARK    7  A    between atoms: C_28  and  C_30
REMARK                            x       y       z     vdW  Elec       q    Type
REMARK                         _______ _______ _______ _____ _____    ______ ____
ROOT
ATOM      1  O   UNL     1      13.231   8.654  15.547  0.00  0.00    -0.268 OA
ATOM      2  O   UNL     1      10.806   7.964  20.173  0.00  0.00    -0.273 OA
ATOM      6  N   UNL     1      13.072   8.338  20.523  0.00  0.00    -0.299 N 
ATOM      7  N   UNL     1      14.271   8.903  17.630  0.00  0.00    -0.311 N 
ATOM      9  C   UNL     1      14.624   6.908  19.201  0.00  0.00    +0.027 C 
ATOM     10  C   UNL     1      15.338   9.155  19.894  0.00  0.00    +0.054 C 
ATOM     11  C   UNL     1      15.805   7.710  19.722  0.00  0.00    +0.018 C 
ATOM     12  C   UNL     1      13.446   6.964  20.189  0.00  0.00    +0.113 C 
ATOM     13  C   UNL     1      14.240   7.446  17.822  0.00  0.00    +0.130 C 
ATOM     14  C   UNL     1      14.190   9.204  20.923  0.00  0.00    +0.117 C 
ATOM     15  C   UNL     1      14.884   9.763  18.564  0.00  0.00    +0.034 A 
ATOM     16  C   UNL     1      15.024  11.083  18.276  0.00  0.00    +0.002 A 
ATOM     17  C   UNL     1      13.761   9.362  16.404  0.00  0.00    +0.252 A 
ATOM     18  C   UNL     1      11.729   8.711  20.513  0.00  0.00    +0.241 C 
ATOM     19  C   UNL     1      14.506  11.594  17.021  0.00  0.00    +0.015 A 
ATOM     20  C   UNL     1      13.896  10.811  16.132  0.00  0.00    +0.071 A 
ENDROOT
BRANCH  16  21
ATOM     21  C   UNL     1      15.677  12.021  19.216  0.00  0.00    -0.015 A 
ATOM     23  C   UNL     1      17.056  12.203  19.165  0.00  0.00    +0.027 A 
ATOM     24  C   UNL     1      14.907  12.716  20.143  0.00  0.00    +0.008 A 
ATOM     25  C   UNL     1      17.671  13.088  20.051  0.00  0.00    +0.052 A 
ATOM     26  C   UNL     1      15.522  13.602  21.029  0.00  0.00    +0.002 A 
ATOM     27  C   UNL     1      16.904  13.787  20.983  0.00  0.00    +0.019 A 
BRANCH  25  29
ATOM      8  N   UNL     1      20.237  13.432  19.968  0.00  0.00    -0.191 NA
ATOM     29  C   UNL     1      19.086  13.278  20.005  0.00  0.00    +0.099 C 
ENDBRANCH  25  29
ENDBRANCH  16  21
BRANCH  18  22
ATOM     22  C   UNL     1      11.415  10.122  20.940  0.00  0.00    +0.256 C 
BRANCH  22   3
ATOM      3  O   UNL     1      11.027  10.057  22.291  0.00  0.00    -0.359 OA
BRANCH   3  28
ATOM     28  C   UNL     1      11.765  10.968  23.104  0.00  0.00    +0.280 C 
BRANCH  28  30
ATOM      5  O   UNL     1      10.168  12.201  24.460  0.00  0.00    -0.248 OA
ATOM     30  C   UNL     1      10.978  11.293  24.344  0.00  0.00    +0.331 C 
BRANCH  30   4
ATOM      4  O   UNL     1      11.293  10.426  25.339  0.00  0.00    -0.479 OA
ATOM     31  H   UNL     1      11.187  10.832  26.225  0.00  0.00    +0.295 HD
ENDBRANCH  30   4
ENDBRANCH  28  30
ENDBRANCH   3  28
ENDBRANCH  22   3
ENDBRANCH  18  22
TORSDOF 7
ENDMDL
MODEL 3
REMARK VINA RESULT:      -6.4     14.427     17.433
REMARK  Name = 7662935
REMARK  7 active torsions:
REMARK  status: ('A' for Active; 'I' for Inactive)
REMARK    1  A    between atoms: O_3  and  C_22
REMARK    2  A    between atoms: O_3  and  C_28
REMARK    3  A    between atoms: O_4  and  C_30
REMARK    4  A    between atoms: C_16  and  C_21
REMARK    5  A    between atoms: C_18  and  C_22
REMARK    6  A    between atoms: C_25  and  C_29
REMARK    7  A    between atoms: C_28  and  C_30
REMARK                            x       y       z     vdW  Elec       q    Type
REMARK                         _______ _______ _______ _____ _____    ______ ____
ROOT
ATOM      1  O   UNL     1       7.323   9.111   4.228  0.00  0.00    -0.268 OA
ATOM      2  O   UNL     1      11.590   9.832   7.231  0.00  0.00    -0.273 OA
ATOM      6  N   UNL     1      11.332   7.571   6.765  0.00  0.00    -0.299 N 
ATOM      7  N   UNL     1       8.827   7.413   4.810  0.00  0.00    -0.311 N 
ATOM      9  C   UNL     1       9.079   6.618   7.234  0.00  0.00    +0.027 C 
ATOM     10  C   UNL     1      10.472   5.628   5.467  0.00  0.00    +0.054 C 
ATOM     11  C   UNL     1       9.507   5.301   6.606  0.00  0.00    +0.018 C 
ATOM     12  C   UNL     1      10.296   7.384   7.780  0.00  0.00    +0.113 C 
ATOM     13  C   UNL     1       8.315   7.430   6.188  0.00  0.00    +0.130 C 
ATOM     14  C   UNL     1      11.710   6.353   6.036  0.00  0.00    +0.117 C 
ATOM     15  C   UNL     1       9.804   6.487   4.391  0.00  0.00    +0.034 A 
ATOM     16  C   UNL     1      10.137   6.405   3.076  0.00  0.00    +0.002 A 
ATOM     17  C   UNL     1       8.191   8.294   3.918  0.00  0.00    +0.252 A 
ATOM     18  C   UNL     1      11.925   8.822   6.605  0.00  0.00    +0.241 C 
ATOM     19  C   UNL     1       9.505   7.302   2.127  0.00  0.00    +0.015 A 
ATOM     20  C   UNL     1       8.600   8.207   2.498  0.00  0.00    +0.071 A 
ENDROOT
BRANCH  16  21
ATOM     21  C   UNL     1      11.142   5.436   2.586  0.00  0.00    -0.015 A 
ATOM     23  C   UNL     1      12.386   5.889   2.158  0.00  0.00    +0.027 A 
ATOM     24  C   UNL     1      10.836   4.079   2.556  0.00  0.00    +0.008 A 
ATOM     25  C   UNL     1      13.334   4.976   1.695  0.00  0.00    +0.052 A 
ATOM     26  C   UNL     1      11.784   3.166   2.094  0.00  0.00    +0.002 A 
ATOM     27  C   UNL     1      13.033   3.614   1.663  0.00  0.00    +0.019 A 
BRANCH  25  29
ATOM      8  N   UNL     1      15.654   5.807   0.895  0.00  0.00    -0.191 NA
ATOM     29  C   UNL     1      14.614   5.434   1.254  0.00  0.00    +0.099 C 
ENDBRANCH  25  29
ENDBRANCH  16  21
BRANCH  18  22
ATOM     22  C   UNL     1      13.036   8.919   5.590  0.00  0.00    +0.256 C 
BRANCH  22   3
ATOM      3  O   UNL     1      14.243   8.931   6.314  0.00  0.00    -0.359 OA
BRANCH   3  28
ATOM     28  C   UNL     1      14.973   7.715   6.159  0.00  0.00    +0.280 C 
BRANCH  28  30
ATOM      5  O   UNL     1      16.312   8.648   4.358  0.00  0.00    -0.248 OA
ATOM     30  C   UNL     1      15.682   7.714   4.833  0.00  0.00    +0.331 C 
BRANCH  30   4
ATOM      4  O   UNL     1      15.528   6.513   4.221  0.00  0.00    -0.479 OA
ATOM     31  H   UNL     1      14.613   6.171   4.313  0.00  0.00    +0.295 HD
ENDBRANCH  30   4
ENDBRANCH  28  30
ENDBRANCH   3  28
ENDBRANCH  22   3
ENDBRANCH  18  22
TORSDOF 7
ENDMDL
MODEL 4
REMARK VINA RESULT:      -6.1     26.915     29.308
REMARK  Name = 7662935
REMARK  7 active torsions:
REMARK  status: ('A' for Active; 'I' for Inactive)
REMARK    1  A    between atoms: O_3  and  C_22
REMARK    2  A    between atoms: O_3  and  C_28
REMARK    3  A    between atoms: O_4  and  C_30
REMARK    4  A    between atoms: C_16  and  C_21
REMARK    5  A    between atoms: C_18  and  C_22
REMARK    6  A    between atoms: C_25  and  C_29
REMARK    7  A    between atoms: C_28  and  C_30
REMARK                            x       y       z     vdW  Elec       q    Type
REMARK                         _______ _______ _______ _____ _____    ______ ____
ROOT
ATOM      1  O   UNL     1      -0.906 -12.460  13.701  0.00  0.00    -0.268 OA
ATOM      2  O   UNL     1      -5.421 -12.165  11.004  0.00  0.00    -0.273 OA
ATOM      6  N   UNL     1      -5.826 -13.037  13.118  0.00  0.00    -0.299 N 
ATOM      7  N   UNL     1      -3.013 -12.944  14.601  0.00  0.00    -0.311 N 
ATOM      9  C   UNL     1      -4.386 -14.953  13.795  0.00  0.00    +0.027 C 
ATOM     10  C   UNL     1      -5.299 -13.454  15.516  0.00  0.00    +0.054 C 
ATOM     11  C   UNL     1      -4.993 -14.915  15.189  0.00  0.00    +0.018 C 
ATOM     12  C   UNL     1      -5.365 -14.377  12.757  0.00  0.00    +0.113 C 
ATOM     13  C   UNL     1      -3.063 -14.188  13.819  0.00  0.00    +0.130 C 
ATOM     14  C   UNL     1      -6.318 -12.903  14.496  0.00  0.00    +0.117 C 
ATOM     15  C   UNL     1      -4.031 -12.597  15.513  0.00  0.00    +0.034 A 
ATOM     16  C   UNL     1      -3.873 -11.519  16.324  0.00  0.00    +0.002 A 
ATOM     17  C   UNL     1      -1.831 -12.194  14.468  0.00  0.00    +0.252 A 
ATOM     18  C   UNL     1      -5.840 -12.028  12.157  0.00  0.00    +0.241 C 
ATOM     19  C   UNL     1      -2.668 -10.718  16.212  0.00  0.00    +0.015 A 
ATOM     20  C   UNL     1      -1.702 -11.005  15.340  0.00  0.00    +0.071 A 
ENDROOT
BRANCH  16  21
ATOM     21  C   UNL     1      -4.904 -11.126  17.309  0.00  0.00    -0.015 A 
ATOM     23  C   UNL     1      -5.986 -10.350  16.904  0.00  0.00    +0.027 A 
ATOM     24  C   UNL     1      -4.786 -11.536  18.633  0.00  0.00    +0.008 A 
ATOM     25  C   UNL     1      -6.959  -9.981  17.833  0.00  0.00    +0.052 A 
ATOM     26  C   UNL     1      -5.759 -11.166  19.562  0.00  0.00    +0.002 A 
ATOM     27  C   UNL     1      -6.845 -10.389  19.162  0.00  0.00    +0.019 A 
BRANCH  25  29
ATOM      8  N   UNL     1      -8.977  -8.535  17.091  0.00  0.00    -0.191 NA
ATOM     29  C   UNL     1      -8.072  -9.183  17.424  0.00  0.00    +0.099 C 
ENDBRANCH  25  29
ENDBRANCH  16  21
BRANCH  18  22
ATOM     22  C   UNL     1      -6.398 -10.694  12.584  0.00  0.00    +0.256 C 
BRANCH  22   3
ATOM      3  O   UNL     1      -5.375  -9.748  12.390  0.00  0.00    -0.359 OA
BRANCH   3  28
ATOM     28  C   UNL     1      -5.756  -8.727  11.470  0.00  0.00    +0.280 C 
BRANCH  28  30
ATOM      5  O   UNL     1      -3.621  -9.112  10.375  0.00  0.00    -0.248 OA
ATOM     30  C   UNL     1      -4.752  -8.648  10.354  0.00  0.00    +0.331 C 
BRANCH  30   4
ATOM      4  O   UNL     1      -5.278  -7.979   9.297  0.00  0.00    -0.479 OA
ATOM     31  H   UNL     1      -4.663  -7.296   8.953  0.00  0.00    +0.295 HD
ENDBRANCH  30   4
ENDBRANCH  28  30
ENDBRANCH   3  28
ENDBRANCH  22   3
ENDBRANCH  18  22
TORSDOF 7
ENDMDL
MODEL 5
REMARK VINA RESULT:      -6.0     27.403     29.071
REMARK  Name = 7662935
REMARK  7 active torsions:
REMARK  status: ('A' for Active; 'I' for Inactive)
REMARK    1  A    between atoms: O_3  and  C_22
REMARK    2  A    between atoms: O_3  and  C_28
REMARK    3  A    between atoms: O_4  and  C_30
REMARK    4  A    between atoms: C_16  and  C_21
REMARK    5  A    between atoms: C_18  and  C_22
REMARK    6  A    between atoms: C_25  and  C_29
REMARK    7  A    between atoms: C_28  and  C_30
REMARK                            x       y       z     vdW  Elec       q    Type
REMARK                         _______ _______ _______ _____ _____    ______ ____
ROOT
ATOM      1  O   UNL     1      -5.980 -15.285  16.928  0.00  0.00    -0.268 OA
ATOM      2  O   UNL     1      -8.310 -10.636  17.767  0.00  0.00    -0.273 OA
ATOM      6  N   UNL     1      -6.080 -10.306  17.208  0.00  0.00    -0.299 N 
ATOM      7  N   UNL     1      -4.949 -13.212  16.575  0.00  0.00    -0.311 N 
ATOM      9  C   UNL     1      -4.426 -11.626  18.521  0.00  0.00    +0.027 C 
ATOM     10  C   UNL     1      -3.891 -10.959  16.216  0.00  0.00    +0.054 C 
ATOM     11  C   UNL     1      -3.310 -11.121  17.620  0.00  0.00    +0.018 C 
ATOM     12  C   UNL     1      -5.597 -10.630  18.550  0.00  0.00    +0.113 C 
ATOM     13  C   UNL     1      -4.861 -13.007  18.028  0.00  0.00    +0.130 C 
ATOM     14  C   UNL     1      -5.033  -9.922  16.251  0.00  0.00    +0.117 C 
ATOM     15  C   UNL     1      -4.402 -12.290  15.660  0.00  0.00    +0.034 A 
ATOM     16  C   UNL     1      -4.371 -12.591  14.335  0.00  0.00    +0.002 A 
ATOM     17  C   UNL     1      -5.503 -14.439  16.171  0.00  0.00    +0.252 A 
ATOM     18  C   UNL     1      -7.449 -10.310  16.945  0.00  0.00    +0.241 C 
ATOM     19  C   UNL     1      -4.937 -13.847  13.880  0.00  0.00    +0.015 A 
ATOM     20  C   UNL     1      -5.487 -14.725  14.719  0.00  0.00    +0.071 A 
ENDROOT
BRANCH  16  21
ATOM     21  C   UNL     1      -3.790 -11.665  13.339  0.00  0.00    -0.015 A 
ATOM     23  C   UNL     1      -4.626 -10.838  12.594  0.00  0.00    +0.027 A 
ATOM     24  C   UNL     1      -2.412 -11.626  13.153  0.00  0.00    +0.008 A 
ATOM     25  C   UNL     1      -4.078  -9.965  11.655  0.00  0.00    +0.052 A 
ATOM     26  C   UNL     1      -1.864 -10.753  12.214  0.00  0.00    +0.002 A 
ATOM     27  C   UNL     1      -2.697  -9.922  11.464  0.00  0.00    +0.019 A 
BRANCH  25  29
ATOM      8  N   UNL     1      -5.625  -8.422  10.262  0.00  0.00    -0.191 NA
ATOM     29  C   UNL     1      -4.931  -9.114  10.886  0.00  0.00    +0.099 C 
ENDBRANCH  25  29
ENDBRANCH  16  21
BRANCH  18  22
ATOM     22  C   UNL     1      -7.872  -9.893  15.559  0.00  0.00    +0.256 C 
BRANCH  22   3
ATOM      3  O   UNL     1      -9.261  -9.669  15.613  0.00  0.00    -0.359 OA
BRANCH   3  28
ATOM     28  C   UNL     1      -9.581  -8.279  15.575  0.00  0.00    +0.280 C 
BRANCH  28  30
ATOM      5  O   UNL     1     -11.546  -7.798  16.921  0.00  0.00    -0.248 OA
ATOM     30  C   UNL     1     -10.332  -7.897  16.820  0.00  0.00    +0.331 C 
BRANCH  30   4
ATOM      4  O   UNL     1      -9.465  -7.672  17.839  0.00  0.00    -0.479 OA
ATOM     31  H   UNL     1      -9.818  -7.990  18.697  0.00  0.00    +0.295 HD
ENDBRANCH  30   4
ENDBRANCH  28  30
ENDBRANCH   3  28
ENDBRANCH  22   3
ENDBRANCH  18  22
TORSDOF 7
ENDMDL
MODEL 6
REMARK VINA RESULT:      -5.8     12.912     16.012
REMARK  Name = 7662935
REMARK  7 active torsions:
REMARK  status: ('A' for Active; 'I' for Inactive)
REMARK    1  A    between atoms: O_3  and  C_22
REMARK    2  A    between atoms: O_3  and  C_28
REMARK    3  A    between atoms: O_4  and  C_30
REMARK    4  A    between atoms: C_16  and  C_21
REMARK    5  A    between atoms: C_18  and  C_22
REMARK    6  A    between atoms: C_25  and  C_29
REMARK    7  A    between atoms: C_28  and  C_30
REMARK                            x       y       z     vdW  Elec       q    Type
REMARK                         _______ _______ _______ _____ _____    ______ ____
ROOT
ATOM      1  O   UNL     1      13.633   6.957   6.488  0.00  0.00    -0.268 OA
ATOM      2  O   UNL     1       9.446   6.699   3.302  0.00  0.00    -0.273 OA
ATOM      6  N   UNL     1       8.760   7.229   5.457  0.00  0.00    -0.299 N 
ATOM      7  N   UNL     1      11.450   7.507   7.134  0.00  0.00    -0.311 N 
ATOM      9  C   UNL     1       9.603   5.734   7.262  0.00  0.00    +0.027 C 
ATOM     10  C   UNL     1       9.087   8.082   7.773  0.00  0.00    +0.054 C 
ATOM     11  C   UNL     1       8.991   6.654   8.307  0.00  0.00    +0.018 C 
ATOM     12  C   UNL     1       8.848   5.847   5.926  0.00  0.00    +0.113 C 
ATOM     13  C   UNL     1      11.084   6.084   7.112  0.00  0.00    +0.130 C 
ATOM     14  C   UNL     1       8.286   8.193   6.459  0.00  0.00    +0.117 C 
ATOM     15  C   UNL     1      10.541   8.503   7.544  0.00  0.00    +0.034 A 
ATOM     16  C   UNL     1      10.965   9.785   7.694  0.00  0.00    +0.002 A 
ATOM     17  C   UNL     1      12.794   7.790   6.836  0.00  0.00    +0.252 A 
ATOM     18  C   UNL     1       9.049   7.527   4.126  0.00  0.00    +0.241 C 
ATOM     19  C   UNL     1      12.345  10.115   7.391  0.00  0.00    +0.015 A 
ATOM     20  C   UNL     1      13.220   9.201   6.973  0.00  0.00    +0.071 A 
ENDROOT
BRANCH  16  21
ATOM     21  C   UNL     1      10.053  10.861   8.140  0.00  0.00    -0.015 A 
ATOM     23  C   UNL     1       9.806  11.038   9.498  0.00  0.00    +0.027 A 
ATOM     24  C   UNL     1       9.449  11.689   7.199  0.00  0.00    +0.008 A 
ATOM     25  C   UNL     1       8.946  12.054   9.919  0.00  0.00    +0.052 A 
ATOM     26  C   UNL     1       8.590  12.704   7.619  0.00  0.00    +0.002 A 
ATOM     27  C   UNL     1       8.338  12.886   8.980  0.00  0.00    +0.019 A 
BRANCH  25  29
ATOM      8  N   UNL     1       8.477  12.391  12.444  0.00  0.00    -0.191 NA
ATOM     29  C   UNL     1       8.688  12.240  11.312  0.00  0.00    +0.099 C 
ENDBRANCH  25  29
ENDBRANCH  16  21
BRANCH  18  22
ATOM     22  C   UNL     1       8.864   8.962   3.699  0.00  0.00    +0.256 C 
BRANCH  22   3
ATOM      3  O   UNL     1       7.582   9.049   3.126  0.00  0.00    -0.359 OA
BRANCH   3  28
ATOM     28  C   UNL     1       7.215  10.397   2.837  0.00  0.00    +0.280 C 
BRANCH  28  30
ATOM      5  O   UNL     1       6.957  12.109   4.543  0.00  0.00    -0.248 OA
ATOM     30  C   UNL     1       6.623  11.036   4.063  0.00  0.00    +0.331 C 
BRANCH  30   4
ATOM      4  O   UNL     1       5.647  10.245   4.577  0.00  0.00    -0.479 OA
ATOM     31  H   UNL     1       5.687   9.334   4.217  0.00  0.00    +0.295 HD
ENDBRANCH  30   4
ENDBRANCH  28  30
ENDBRANCH   3  28
ENDBRANCH  22   3
ENDBRANCH  18  22
TORSDOF 7
ENDMDL
MODEL 7
REMARK VINA RESULT:      -5.7     26.214     29.336
REMARK  Name = 7662935
REMARK  7 active torsions:
REMARK  status: ('A' for Active; 'I' for Inactive)
REMARK    1  A    between atoms: O_3  and  C_22
REMARK    2  A    between atoms: O_3  and  C_28
REMARK    3  A    between atoms: O_4  and  C_30
REMARK    4  A    between atoms: C_16  and  C_21
REMARK    5  A    between atoms: C_18  and  C_22
REMARK    6  A    between atoms: C_25  and  C_29
REMARK    7  A    between atoms: C_28  and  C_30
REMARK                            x       y       z     vdW  Elec       q    Type
REMARK                         _______ _______ _______ _____ _____    ______ ____
ROOT
ATOM      1  O   UNL     1      -1.534 -10.677  16.696  0.00  0.00    -0.268 OA
ATOM      2  O   UNL     1      -4.967 -14.665  16.462  0.00  0.00    -0.273 OA
ATOM      6  N   UNL     1      -5.796 -12.846  15.279  0.00  0.00    -0.299 N 
ATOM      7  N   UNL     1      -3.490 -10.657  15.410  0.00  0.00    -0.311 N 
ATOM      9  C   UNL     1      -5.811 -10.675  16.499  0.00  0.00    +0.027 C 
ATOM     10  C   UNL     1      -5.605 -10.689  14.050  0.00  0.00    +0.054 C 
ATOM     11  C   UNL     1      -6.255  -9.965  15.229  0.00  0.00    +0.018 C 
ATOM     12  C   UNL     1      -6.249 -12.149  16.483  0.00  0.00    +0.113 C 
ATOM     13  C   UNL     1      -4.295 -10.530  16.634  0.00  0.00    +0.130 C 
ATOM     14  C   UNL     1      -6.090 -12.153  14.017  0.00  0.00    +0.117 C 
ATOM     15  C   UNL     1      -4.078 -10.638  14.128  0.00  0.00    +0.034 A 
ATOM     16  C   UNL     1      -3.288 -10.606  13.024  0.00  0.00    +0.002 A 
ATOM     17  C   UNL     1      -2.098 -10.675  15.602  0.00  0.00    +0.252 A 
ATOM     18  C   UNL     1      -5.204 -14.103  15.389  0.00  0.00    +0.241 C 
ATOM     19  C   UNL     1      -1.846 -10.628  13.183  0.00  0.00    +0.015 A 
ATOM     20  C   UNL     1      -1.262 -10.675  14.380  0.00  0.00    +0.071 A 
ENDROOT
BRANCH  16  21
ATOM     21  C   UNL     1      -3.857 -10.566  11.659  0.00  0.00    -0.015 A 
ATOM     23  C   UNL     1      -3.764 -11.687  10.839  0.00  0.00    +0.027 A 
ATOM     24  C   UNL     1      -4.482  -9.409  11.205  0.00  0.00    +0.008 A 
ATOM     25  C   UNL     1      -4.302 -11.650   9.552  0.00  0.00    +0.052 A 
ATOM     26  C   UNL     1      -5.019  -9.372   9.918  0.00  0.00    +0.002 A 
ATOM     27  C   UNL     1      -4.929 -10.492   9.091  0.00  0.00    +0.019 A 
BRANCH  25  29
ATOM      8  N   UNL     1      -4.134 -13.730   8.017  0.00  0.00    -0.191 NA
ATOM     29  C   UNL     1      -4.209 -12.797   8.705  0.00  0.00    +0.099 C 
ENDBRANCH  25  29
ENDBRANCH  16  21
BRANCH  18  22
ATOM     22  C   UNL     1      -4.831 -14.790  14.099  0.00  0.00    +0.256 C 
BRANCH  22   3
ATOM      3  O   UNL     1      -3.494 -15.207  14.237  0.00  0.00    -0.359 OA
BRANCH   3  28
ATOM     28  C   UNL     1      -2.575 -14.215  13.782  0.00  0.00    +0.280 C 
BRANCH  28  30
ATOM      5  O   UNL     1      -0.943 -16.016  13.727  0.00  0.00    -0.248 OA
ATOM     30  C   UNL     1      -1.220 -14.835  13.579  0.00  0.00    +0.331 C 
BRANCH  30   4
ATOM      4  O   UNL     1      -0.324 -13.888  13.201  0.00  0.00    -0.479 OA
ATOM     31  H   UNL     1      -0.660 -12.980  13.365  0.00  0.00    +0.295 HD
ENDBRANCH  30   4
ENDBRANCH  28  30
ENDBRANCH   3  28
ENDBRANCH  22   3
ENDBRANCH  18  22
TORSDOF 7
ENDMDL
MODEL 8
REMARK VINA RESULT:      -5.6      1.965      2.948
REMARK  Name = 7662935
REMARK  7 active torsions:
REMARK  status: ('A' for Active; 'I' for Inactive)
REMARK    1  A    between atoms: O_3  and  C_22
REMARK    2  A    between atoms: O_3  and  C_28
REMARK    3  A    between atoms: O_4  and  C_30
REMARK    4  A    between atoms: C_16  and  C_21
REMARK    5  A    between atoms: C_18  and  C_22
REMARK    6  A    between atoms: C_25  and  C_29
REMARK    7  A    between atoms: C_28  and  C_30
REMARK                            x       y       z     vdW  Elec       q    Type
REMARK                         _______ _______ _______ _____ _____    ______ ____
ROOT
ATOM      1  O   UNL     1      12.818   9.472  16.926  0.00  0.00    -0.268 OA
ATOM      2  O   UNL     1      10.548   9.065  21.662  0.00  0.00    -0.273 OA
ATOM      6  N   UNL     1      12.736   8.293  21.772  0.00  0.00    -0.299 N 
ATOM      7  N   UNL     1      13.939   8.808  18.872  0.00  0.00    -0.311 N 
ATOM      9  C   UNL     1      13.377   6.605  20.057  0.00  0.00    +0.027 C 
ATOM     10  C   UNL     1      15.092   8.098  20.991  0.00  0.00    +0.054 C 
ATOM     11  C   UNL     1      14.818   6.664  20.540  0.00  0.00    +0.018 C 
ATOM     12  C   UNL     1      12.406   6.995  21.185  0.00  0.00    +0.113 C 
ATOM     13  C   UNL     1      13.234   7.518  18.839  0.00  0.00    +0.130 C 
ATOM     14  C   UNL     1      14.145   8.459  22.154  0.00  0.00    +0.117 C 
ATOM     15  C   UNL     1      14.922   9.094  19.841  0.00  0.00    +0.034 A 
ATOM     16  C   UNL     1      15.654  10.233  19.744  0.00  0.00    +0.002 A 
ATOM     17  C   UNL     1      13.654   9.679  17.806  0.00  0.00    +0.252 A 
ATOM     18  C   UNL     1      11.726   9.229  21.992  0.00  0.00    +0.241 C 
ATOM     19  C   UNL     1      15.385  11.159  18.660  0.00  0.00    +0.015 A 
ATOM     20  C   UNL     1      14.442  10.930  17.746  0.00  0.00    +0.071 A 
ENDROOT
BRANCH  16  21
ATOM     21  C   UNL     1      16.709  10.568  20.725  0.00  0.00    -0.015 A 
ATOM     23  C   UNL     1      17.830   9.750  20.842  0.00  0.00    +0.027 A 
ATOM     24  C   UNL     1      16.575  11.699  21.525  0.00  0.00    +0.008 A 
ATOM     25  C   UNL     1      18.825  10.067  21.767  0.00  0.00    +0.052 A 
ATOM     26  C   UNL     1      17.570  12.015  22.450  0.00  0.00    +0.002 A 
ATOM     27  C   UNL     1      18.695  11.199  22.571  0.00  0.00    +0.019 A 
BRANCH  25  29
ATOM      8  N   UNL     1      20.913   8.551  21.994  0.00  0.00    -0.191 NA
ATOM     29  C   UNL     1      19.977   9.230  21.892  0.00  0.00    +0.099 C 
ENDBRANCH  25  29
ENDBRANCH  16  21
BRANCH  18  22
ATOM     22  C   UNL     1      12.131  10.514  22.669  0.00  0.00    +0.256 C 
BRANCH  22   3
ATOM      3  O   UNL     1      11.031  10.924  23.445  0.00  0.00    -0.359 OA
BRANCH   3  28
ATOM     28  C   UNL     1      10.765  12.318  23.301  0.00  0.00    +0.280 C 
BRANCH  28  30
ATOM      5  O   UNL     1      10.476  12.324  25.714  0.00  0.00    -0.248 OA
ATOM     30  C   UNL     1      10.466  12.919  24.647  0.00  0.00    +0.331 C 
BRANCH  30   4
ATOM      4  O   UNL     1      10.178  14.239  24.516  0.00  0.00    -0.479 OA
ATOM     31  H   UNL     1       9.817  14.448  23.629  0.00  0.00    +0.295 HD
ENDBRANCH  30   4
ENDBRANCH  28  30
ENDBRANCH   3  28
ENDBRANCH  22   3
ENDBRANCH  18  22
TORSDOF 7
ENDMDL
MODEL 9
REMARK VINA RESULT:      -5.6      2.280      4.035
REMARK  Name = 7662935
REMARK  7 active torsions:
REMARK  status: ('A' for Active; 'I' for Inactive)
REMARK    1  A    between atoms: O_3  and  C_22
REMARK    2  A    between atoms: O_3  and  C_28
REMARK    3  A    between atoms: O_4  and  C_30
REMARK    4  A    between atoms: C_16  and  C_21
REMARK    5  A    between atoms: C_18  and  C_22
REMARK    6  A    between atoms: C_25  and  C_29
REMARK    7  A    between atoms: C_28  and  C_30
REMARK                            x       y       z     vdW  Elec       q    Type
REMARK                         _______ _______ _______ _____ _____    ______ ____
ROOT
ATOM      1  O   UNL     1      13.218  10.222  16.724  0.00  0.00    -0.268 OA
ATOM      2  O   UNL     1      11.066   7.482  20.675  0.00  0.00    -0.273 OA
ATOM      6  N   UNL     1      13.357   7.671  21.009  0.00  0.00    -0.299 N 
ATOM      7  N   UNL     1      14.389   9.502  18.619  0.00  0.00    -0.311 N 
ATOM      9  C   UNL     1      14.791   7.013  19.082  0.00  0.00    +0.027 C 
ATOM     10  C   UNL     1      15.599   8.702  20.674  0.00  0.00    +0.054 C 
ATOM     11  C   UNL     1      16.021   7.498  19.833  0.00  0.00    +0.018 C 
ATOM     12  C   UNL     1      13.678   6.604  20.062  0.00  0.00    +0.113 C 
ATOM     13  C   UNL     1      14.336   8.117  18.128  0.00  0.00    +0.130 C 
ATOM     14  C   UNL     1      14.517   8.268  21.685  0.00  0.00    +0.117 C 
ATOM     15  C   UNL     1      15.078   9.846  19.800  0.00  0.00    +0.034 A 
ATOM     16  C   UNL     1      15.231  11.153  20.136  0.00  0.00    +0.002 A 
ATOM     17  C   UNL     1      13.816  10.466  17.772  0.00  0.00    +0.252 A 
ATOM     18  C   UNL     1      12.024   7.998  21.257  0.00  0.00    +0.241 C 
ATOM     19  C   UNL     1      14.649  12.176  19.288  0.00  0.00    +0.015 A 
ATOM     20  C   UNL     1      13.968  11.880  18.181  0.00  0.00    +0.071 A 
ENDROOT
BRANCH  16  21
ATOM     21  C   UNL     1      15.962  11.565  21.355  0.00  0.00    -0.015 A 
ATOM     23  C   UNL     1      15.266  11.761  22.545  0.00  0.00    +0.027 A 
ATOM     24  C   UNL     1      17.339  11.752  21.304  0.00  0.00    +0.008 A 
ATOM     25  C   UNL     1      15.956  12.148  23.694  0.00  0.00    +0.052 A 
ATOM     26  C   UNL     1      18.029  12.139  22.454  0.00  0.00    +0.002 A 
ATOM     27  C   UNL     1      17.337  12.337  23.648  0.00  0.00    +0.019 A 
BRANCH  25  29
ATOM      8  N   UNL     1      14.672  12.518  25.913  0.00  0.00    -0.191 NA
ATOM     29  C   UNL     1      15.247  12.352  24.918  0.00  0.00    +0.099 C 
ENDBRANCH  25  29
ENDBRANCH  16  21
BRANCH  18  22
ATOM     22  C   UNL     1      11.771   9.058  22.299  0.00  0.00    +0.256 C 
BRANCH  22   3
ATOM      3  O   UNL     1      10.992  10.054  21.680  0.00  0.00    -0.359 OA
BRANCH   3  28
ATOM     28  C   UNL     1      11.772  11.190  21.312  0.00  0.00    +0.280 C 
BRANCH  28  30
ATOM      5  O   UNL     1      10.540  13.250  21.696  0.00  0.00    -0.248 OA
ATOM     30  C   UNL     1      11.316  12.392  22.091  0.00  0.00    +0.331 C 
BRANCH  30   4
ATOM      4  O   UNL     1      11.892  12.399  23.320  0.00  0.00    -0.479 OA
ATOM     31  H   UNL     1      12.585  11.709  23.403  0.00  0.00    +0.295 HD
ENDBRANCH  30   4
ENDBRANCH  28  30
ENDBRANCH   3  28
ENDBRANCH  22   3
ENDBRANCH  18  22
TORSDOF 7
ENDMDL
MODEL 10
REMARK VINA RESULT:      -5.5     13.278     15.337
REMARK  Name = 7662935
REMARK  7 active torsions:
REMARK  status: ('A' for Active; 'I' for Inactive)
REMARK    1  A    between atoms: O_3  and  C_22
REMARK    2  A    between atoms: O_3  and  C_28
REMARK    3  A    between atoms: O_4  and  C_30
REMARK    4  A    between atoms: C_16  and  C_21
REMARK    5  A    between atoms: C_18  and  C_22
REMARK    6  A    between atoms: C_25  and  C_29
REMARK    7  A    between atoms: C_28  and  C_30
REMARK                            x       y       z     vdW  Elec       q    Type
REMARK                         _______ _______ _______ _____ _____    ______ ____
ROOT
ATOM      1  O   UNL     1      19.777  -5.066  21.520  0.00  0.00    -0.268 OA
ATOM      2  O   UNL     1      20.768  -1.184  24.939  0.00  0.00    -0.273 OA
ATOM      6  N   UNL     1      18.565  -1.884  25.165  0.00  0.00    -0.299 N 
ATOM      7  N   UNL     1      18.266  -4.328  23.150  0.00  0.00    -0.311 N 
ATOM      9  C   UNL     1      17.237  -1.982  23.061  0.00  0.00    +0.027 C 
ATOM     10  C   UNL     1      16.682  -3.494  24.917  0.00  0.00    +0.054 C 
ATOM     11  C   UNL     1      16.082  -2.615  23.820  0.00  0.00    +0.018 C 
ATOM     12  C   UNL     1      18.107  -1.129  24.000  0.00  0.00    +0.113 C 
ATOM     13  C   UNL     1      18.044  -3.092  22.387  0.00  0.00    +0.130 C 
ATOM     14  C   UNL     1      17.512  -2.619  25.880  0.00  0.00    +0.117 C 
ATOM     15  C   UNL     1      17.553  -4.610  24.333  0.00  0.00    +0.034 A 
ATOM     16  C   UNL     1      17.677  -5.827  24.923  0.00  0.00    +0.002 A 
ATOM     17  C   UNL     1      19.141  -5.255  22.558  0.00  0.00    +0.252 A 
ATOM     18  C   UNL     1      19.901  -1.809  25.556  0.00  0.00    +0.241 C 
ATOM     19  C   UNL     1      18.575  -6.808  24.343  0.00  0.00    +0.015 A 
ATOM     20  C   UNL     1      19.285  -6.560  23.242  0.00  0.00    +0.071 A 
ENDROOT
BRANCH  16  21
ATOM     21  C   UNL     1      16.935  -6.177  26.154  0.00  0.00    -0.015 A 
ATOM     23  C   UNL     1      17.352  -5.668  27.381  0.00  0.00    +0.027 A 
ATOM     24  C   UNL     1      15.824  -7.011  26.078  0.00  0.00    +0.008 A 
ATOM     25  C   UNL     1      16.652  -5.997  28.541  0.00  0.00    +0.052 A 
ATOM     26  C   UNL     1      15.124  -7.340  27.238  0.00  0.00    +0.002 A 
ATOM     27  C   UNL     1      15.538  -6.833  28.470  0.00  0.00    +0.019 A 
BRANCH  25  29
ATOM      8  N   UNL     1      17.421  -5.057  30.830  0.00  0.00    -0.191 NA
ATOM     29  C   UNL     1      17.076  -5.479  29.804  0.00  0.00    +0.099 C 
ENDBRANCH  25  29
ENDBRANCH  16  21
BRANCH  18  22
ATOM     22  C   UNL     1      20.282  -2.556  26.809  0.00  0.00    +0.256 C 
BRANCH  22   3
ATOM      3  O   UNL     1      20.035  -1.686  27.887  0.00  0.00    -0.359 OA
BRANCH   3  28
ATOM     28  C   UNL     1      19.741  -2.394  29.091  0.00  0.00    +0.280 C 
BRANCH  28  30
ATOM      5  O   UNL     1      18.882  -0.777  30.689  0.00  0.00    -0.248 OA
ATOM     30  C   UNL     1      18.684  -1.660  29.867  0.00  0.00    +0.331 C 
BRANCH  30   4
ATOM      4  O   UNL     1      17.452  -2.116  29.527  0.00  0.00    -0.479 OA
ATOM     31  H   UNL     1      17.452  -3.083  29.362  0.00  0.00    +0.295 HD
ENDBRANCH  30   4
ENDBRANCH  28  30
ENDBRANCH   3  28
ENDBRANCH  22   3
ENDBRANCH  18  22
TORSDOF 7
ENDMDL
