REMARK  Name = 45784354
REMARK  8 active torsions:
REMARK  status: ('A' for Active; 'I' for Inactive)
REMARK    1  A    between atoms: O_2  and  C_20
REMARK    2  A    between atoms: O_2  and  C_26
REMARK    3  A    between atoms: O_3  and  C_25
REMARK    4  A    between atoms: O_3  and  C_27
REMARK    5  A    between atoms: N_5  and  C_11
REMARK    6  A    between atoms: C_7  and  C_12
REMARK    7  A    between atoms: C_11  and  C_13
REMARK    8  A    between atoms: C_18  and  C_25
REMARK                            x       y       z     vdW  Elec       q    Type
REMARK                         _______ _______ _______ _____ _____    ______ ____
ROOT
ATOM      5  N   UNL     1      -1.762  -0.991  -0.262  0.00  0.00    -0.297 NA
ATOM      7  C   UNL     1       0.317  -1.845   0.407  0.00  0.00    +0.090 C 
ATOM      8  C   UNL     1      -0.361  -1.150   1.600  0.00  0.00    +0.029 C 
ATOM      9  C   UNL     1      -0.458  -1.352  -0.822  0.00  0.00    +0.097 C 
ATOM     10  C   UNL     1      -1.454  -0.287   0.984  0.00  0.00    +0.085 C 
ENDROOT
BRANCH   7  12
ATOM      1  O   UNL     1       2.196  -0.312   0.163  0.00  0.00    -0.439 OA
ATOM      6  N   UNL     1       2.777  -2.497   0.317  0.00  0.00    -0.213 NA
ATOM     12  C   UNL     1       1.806  -1.610   0.297  0.00  0.00    +0.201 A 
ATOM     14  C   UNL     1       3.557  -0.391   0.090  0.00  0.00    +0.169 A 
ATOM     15  C   UNL     1       3.909  -1.729   0.184  0.00  0.00    +0.110 A 
ATOM     18  C   UNL     1       4.458   0.657  -0.053  0.00  0.00    +0.103 A 
ATOM     19  C   UNL     1       5.266  -2.078   0.135  0.00  0.00    +0.031 A 
ATOM     22  C   UNL     1       5.808   0.292  -0.101  0.00  0.00    +0.019 A 
ATOM     23  C   UNL     1       6.207  -1.047  -0.009  0.00  0.00    +0.003 A 
BRANCH  18  25
ATOM      4  O   UNL     1       2.852   2.417  -0.111  0.00  0.00    -0.245 OA
ATOM     25  C   UNL     1       4.033   2.039  -0.147  0.00  0.00    +0.343 C 
BRANCH  25   3
ATOM      3  O   UNL     1       5.098   2.890  -0.282  0.00  0.00    -0.464 OA
ATOM     27  C   UNL     1       4.805   4.288  -0.384  0.00  0.00    +0.280 C 
ENDBRANCH  25   3
ENDBRANCH  18  25
ENDBRANCH   7  12
BRANCH   5  11
ATOM     11  C   UNL     1      -2.554  -0.181  -1.175  0.00  0.00    +0.119 C 
BRANCH  11  13
ATOM     13  C   UNL     1      -4.013  -0.180  -0.803  0.00  0.00    -0.030 A 
ATOM     16  C   UNL     1      -4.570   0.931  -0.169  0.00  0.00    +0.050 A 
ATOM     17  C   UNL     1      -4.807  -1.290  -1.091  0.00  0.00    +0.005 A 
ATOM     20  C   UNL     1      -5.921   0.931   0.176  0.00  0.00    +0.120 A 
ATOM     21  C   UNL     1      -6.158  -1.289  -0.746  0.00  0.00    +0.004 A 
ATOM     24  C   UNL     1      -6.715  -0.179  -0.112  0.00  0.00    +0.045 A 
BRANCH  20   2
ATOM      2  O   UNL     1      -6.464   2.015   0.795  0.00  0.00    -0.495 OA
ATOM     26  C   UNL     1      -7.852   1.948   1.122  0.00  0.00    +0.277 C 
ENDBRANCH  20   2
ENDBRANCH  11  13
ENDBRANCH   5  11
TORSDOF 6
