REMARK  Name = 11885045
REMARK  14 active torsions:
REMARK  status: ('A' for Active; 'I' for Inactive)
REMARK    1  A    between atoms: O_2  and  C_15
REMARK    2  A    between atoms: O_3  and  C_20
REMARK    3  A    between atoms: O_6  and  C_35
REMARK    4  A    between atoms: N_8  and  C_26
REMARK    5  A    between atoms: C_10  and  C_18
REMARK    6  A    between atoms: C_12  and  C_20
REMARK    7  A    between atoms: C_12  and  C_21
REMARK    8  A    between atoms: C_13  and  C_23
REMARK    9  A    between atoms: C_23  and  C_24
REMARK   10  A    between atoms: C_27  and  C_28
REMARK   11  A    between atoms: C_28  and  C_29
REMARK   12  A    between atoms: C_29  and  C_32
REMARK   13  A    between atoms: C_29  and  C_33
REMARK   14  A    between atoms: C_29  and  C_34
REMARK                            x       y       z     vdW  Elec       q    Type
REMARK                         _______ _______ _______ _____ _____    ______ ____
ROOT
ATOM      1  S   UNL     1      -0.859   3.219  -0.412  0.00  0.00    -0.057 S 
ATOM      5  O   UNL     1       3.267   1.072  -0.692  0.00  0.00    -0.275 OA
ATOM      7  N   UNL     1       0.322   0.918  -0.383  0.00  0.00    -0.229 NA
ATOM      9  N   UNL     1       1.727   2.859  -0.649  0.00  0.00    -0.265 N 
ATOM     10  C   UNL     1      -3.084  -0.675   0.468  0.00  0.00    -0.019 C 
ATOM     11  C   UNL     1      -3.893   0.436  -0.335  0.00  0.00    +0.011 C 
ATOM     12  C   UNL     1      -5.467   0.378  -0.249  0.00  0.00    +0.021 C 
ATOM     13  C   UNL     1      -1.590  -0.702  -0.098  0.00  0.00    +0.054 C 
ATOM     14  C   UNL     1      -3.727  -2.064   0.216  0.00  0.00    +0.010 C 
ATOM     15  C   UNL     1      -5.939  -1.087  -0.479  0.00  0.00    +0.123 C 
ATOM     16  C   UNL     1      -3.305   1.856  -0.090  0.00  0.00    +0.049 C 
ATOM     17  C   UNL     1      -5.234  -2.093   0.425  0.00  0.00    +0.032 C 
ATOM     18  C   UNL     1      -3.053  -0.412   1.994  0.00  0.00    +0.012 C 
ATOM     19  C   UNL     1      -1.032   0.693  -0.221  0.00  0.00    +0.058 A 
ATOM     21  C   UNL     1      -6.070   1.242  -1.393  0.00  0.00    +0.016 C 
ATOM     22  C   UNL     1      -1.821   1.825  -0.234  0.00  0.00    +0.015 A 
ATOM     25  C   UNL     1       0.530   2.213  -0.486  0.00  0.00    +0.165 A 
ATOM     27  C   UNL     1       2.999   2.269  -0.741  0.00  0.00    +0.219 C 
ATOM     41  H   UNL     1       1.661   3.872  -0.703  0.00  0.00    +0.157 HD
ENDROOT
BRANCH  15   2
ATOM      2  O   UNL     1      -7.347  -1.198  -0.280  0.00  0.00    -0.391 OA
ATOM     38  H   UNL     1      -7.601  -2.116  -0.479  0.00  0.00    +0.210 HD
ENDBRANCH  15   2
BRANCH  12  20
ATOM     20  C   UNL     1      -6.060   0.948   1.058  0.00  0.00    +0.165 C 
BRANCH  20   3
ATOM      3  O   UNL     1      -7.463   0.837   0.981  0.00  0.00    -0.394 OA
ATOM     39  H   UNL     1      -7.829   1.207   1.802  0.00  0.00    +0.209 HD
ENDBRANCH  20   3
ENDBRANCH  12  20
BRANCH  13  23
ATOM     23  C   UNL     1      -0.633  -1.624   0.671  0.00  0.00    +0.106 C 
BRANCH  23  24
ATOM      4  O   UNL     1       0.390  -2.289  -1.406  0.00  0.00    -0.275 OA
ATOM      8  N   UNL     1       1.641  -2.326   0.582  0.00  0.00    -0.285 N 
ATOM     24  C   UNL     1       0.506  -2.117  -0.197  0.00  0.00    +0.218 C 
ATOM     40  H   UNL     1       1.573  -2.143   1.580  0.00  0.00    +0.155 HD
BRANCH   8  26
ATOM     26  C   UNL     1       2.910  -2.783   0.152  0.00  0.00    +0.037 A 
ATOM     30  C   UNL     1       3.944  -2.938   1.075  0.00  0.00    +0.068 A 
ATOM     31  C   UNL     1       3.126  -3.079  -1.194  0.00  0.00    +0.023 A 
ATOM     35  C   UNL     1       5.195  -3.388   0.652  0.00  0.00    +0.119 A 
ATOM     36  C   UNL     1       4.376  -3.529  -1.617  0.00  0.00    +0.005 A 
ATOM     37  C   UNL     1       5.410  -3.684  -0.694  0.00  0.00    +0.045 A 
BRANCH  35   6
ATOM      6  O   UNL     1       6.204  -3.540   1.552  0.00  0.00    -0.507 OA
ATOM     42  H   UNL     1       5.880  -3.290   2.434  0.00  0.00    +0.292 HD
ENDBRANCH  35   6
ENDBRANCH   8  26
ENDBRANCH  23  24
ENDBRANCH  13  23
BRANCH  27  28
ATOM     28  C   UNL     1       4.112   3.296  -0.912  0.00  0.00    +0.102 C 
BRANCH  28  29
ATOM     29  C   UNL     1       4.791   3.742   0.406  0.00  0.00    -0.029 C 
ATOM     32  C   UNL     1       5.402   2.541   1.147  0.00  0.00    +0.011 C 
ATOM     33  C   UNL     1       3.801   4.462   1.336  0.00  0.00    +0.011 C 
ATOM     34  C   UNL     1       5.925   4.723   0.049  0.00  0.00    +0.011 C 
ENDBRANCH  28  29
ENDBRANCH  27  28
TORSDOF 9
