MODEL 1
REMARK VINA RESULT:      -7.4      0.000      0.000
REMARK  Name = 11886184
REMARK  5 active torsions:
REMARK  status: ('A' for Active; 'I' for Inactive)
REMARK    1  A    between atoms: O_3  and  C_24
REMARK    2  A    between atoms: O_3  and  C_25
REMARK    3  A    between atoms: N_5  and  C_13
REMARK    4  A    between atoms: N_6  and  C_14
REMARK    5  A    between atoms: N_7  and  C_17
REMARK                            x       y       z     vdW  Elec       q    Type
REMARK                         _______ _______ _______ _____ _____    ______ ____
ROOT
ATOM      1  O   UNL     1      -6.547 -11.766  15.694  0.00  0.00    -0.370 OA
ATOM      2  O   UNL     1      -4.811 -10.746  18.110  0.00  0.00    -0.370 OA
ATOM     11  C   UNL     1      -5.634 -10.100  17.126  0.00  0.00    +0.171 C 
ATOM     12  C   UNL     1      -5.451 -10.841  15.815  0.00  0.00    +0.176 C 
ATOM     13  C   UNL     1      -7.097 -10.287  17.460  0.00  0.00    +0.131 C 
ATOM     14  C   UNL     1      -4.150 -11.602  15.982  0.00  0.00    +0.171 C 
ATOM     15  C   UNL     1      -7.400 -11.637  16.840  0.00  0.00    +0.185 C 
ATOM     16  C   UNL     1      -4.056 -11.797  17.491  0.00  0.00    +0.190 C 
ENDROOT
BRANCH  13   5
ATOM      4  O   UNL     1      -9.770  -9.548  18.216  0.00  0.00    -0.253 OA
ATOM      5  N   UNL     1      -7.904  -9.247  16.870  0.00  0.00    -0.292 N 
ATOM      7  N   UNL     1      -9.753  -7.912  16.568  0.00  0.00    -0.297 N 
ATOM     20  C   UNL     1      -9.196  -8.956  17.303  0.00  0.00    +0.300 C 
ATOM     31  H   UNL     1      -7.543  -8.748  16.063  0.00  0.00    +0.151 HD
ATOM     32  H   UNL     1      -9.219  -7.544  15.787  0.00  0.00    +0.151 HD
BRANCH   7  17
ATOM     17  C   UNL     1     -11.085  -7.402  16.802  0.00  0.00    +0.074 C 
ATOM     18  C   UNL     1     -11.207  -5.946  16.339  0.00  0.00    +0.022 C 
ATOM     19  C   UNL     1     -12.141  -8.289  16.131  0.00  0.00    +0.022 C 
ATOM     21  C   UNL     1     -11.204  -5.815  14.815  0.00  0.00    +0.002 C 
ATOM     22  C   UNL     1     -12.136  -8.153  14.608  0.00  0.00    +0.002 C 
ATOM     23  C   UNL     1     -12.270  -6.697  14.172  0.00  0.00    +0.000 C 
ENDBRANCH   7  17
ENDBRANCH  13   5
BRANCH  14   6
ATOM      6  N   UNL     1      -3.011 -10.909  15.373  0.00  0.00    -0.187 N 
ATOM      8  N   UNL     1      -2.052 -10.371  16.132  0.00  0.00    -0.041 NA
ATOM      9  N   UNL     1      -1.619 -10.036  13.971  0.00  0.00    -0.071 NA
ATOM     10  N   UNL     1      -1.199  -9.837  15.267  0.00  0.00    -0.020 NA
ATOM     24  C   UNL     1      -2.745 -10.705  14.062  0.00  0.00    +0.342 A 
BRANCH  24   3
ATOM      3  O   UNL     1      -3.503 -11.114  13.062  0.00  0.00    -0.423 OA
BRANCH   3  25
ATOM     25  C   UNL     1      -3.952 -10.259  12.065  0.00  0.00    +0.132 A 
ATOM     26  C   UNL     1      -3.148 -10.032  10.964  0.00  0.00    +0.046 A 
ATOM     27  C   UNL     1      -5.187  -9.657  12.204  0.00  0.00    +0.046 A 
ATOM     28  C   UNL     1      -3.599  -9.171   9.963  0.00  0.00    +0.004 A 
ATOM     29  C   UNL     1      -5.639  -8.797  11.203  0.00  0.00    +0.004 A 
ATOM     30  C   UNL     1      -4.843  -8.554  10.082  0.00  0.00    +0.000 A 
ENDBRANCH   3  25
ENDBRANCH  24   3
ENDBRANCH  14   6
TORSDOF 5
ENDMDL
MODEL 2
REMARK VINA RESULT:      -6.7     25.593     27.887
REMARK  Name = 11886184
REMARK  5 active torsions:
REMARK  status: ('A' for Active; 'I' for Inactive)
REMARK    1  A    between atoms: O_3  and  C_24
REMARK    2  A    between atoms: O_3  and  C_25
REMARK    3  A    between atoms: N_5  and  C_13
REMARK    4  A    between atoms: N_6  and  C_14
REMARK    5  A    between atoms: N_7  and  C_17
REMARK                            x       y       z     vdW  Elec       q    Type
REMARK                         _______ _______ _______ _____ _____    ______ ____
ROOT
ATOM      1  O   UNL     1       8.173   6.334  -2.582  0.00  0.00    -0.370 OA
ATOM      2  O   UNL     1       9.514   5.420  -5.276  0.00  0.00    -0.370 OA
ATOM     11  C   UNL     1       8.302   5.067  -4.592  0.00  0.00    +0.171 C 
ATOM     12  C   UNL     1       8.598   5.062  -3.104  0.00  0.00    +0.176 C 
ATOM     13  C   UNL     1       7.266   6.155  -4.763  0.00  0.00    +0.131 C 
ATOM     14  C   UNL     1      10.107   4.945  -3.012  0.00  0.00    +0.171 C 
ATOM     15  C   UNL     1       7.624   7.120  -3.649  0.00  0.00    +0.185 C 
ATOM     16  C   UNL     1      10.579   5.559  -4.326  0.00  0.00    +0.190 C 
ENDROOT
BRANCH  13   5
ATOM      4  O   UNL     1       5.299   5.771  -6.825  0.00  0.00    -0.253 OA
ATOM      5  N   UNL     1       5.931   5.636  -4.595  0.00  0.00    -0.292 N 
ATOM      7  N   UNL     1       3.823   4.962  -5.225  0.00  0.00    -0.297 N 
ATOM     20  C   UNL     1       5.041   5.482  -5.657  0.00  0.00    +0.300 C 
ATOM     31  H   UNL     1       5.600   5.432  -3.658  0.00  0.00    +0.151 HD
ATOM     32  H   UNL     1       3.690   4.828  -4.228  0.00  0.00    +0.151 HD
BRANCH   7  17
ATOM     17  C   UNL     1       2.714   4.701  -6.115  0.00  0.00    +0.074 C 
ATOM     18  C   UNL     1       2.720   3.243  -6.590  0.00  0.00    +0.022 C 
ATOM     19  C   UNL     1       1.379   5.064  -5.455  0.00  0.00    +0.022 C 
ATOM     21  C   UNL     1       2.327   2.266  -5.482  0.00  0.00    +0.002 C 
ATOM     22  C   UNL     1       0.988   4.083  -4.349  0.00  0.00    +0.002 C 
ATOM     23  C   UNL     1       0.990   2.641  -4.849  0.00  0.00    +0.000 C 
ENDBRANCH   7  17
ENDBRANCH  13   5
BRANCH  14   6
ATOM      6  N   UNL     1      10.552   3.569  -2.775  0.00  0.00    -0.187 N 
ATOM      8  N   UNL     1       9.732   2.537  -2.994  0.00  0.00    -0.041 NA
ATOM      9  N   UNL     1      11.715   1.821  -2.267  0.00  0.00    -0.071 NA
ATOM     10  N   UNL     1      10.451   1.466  -2.680  0.00  0.00    -0.020 NA
ATOM     24  C   UNL     1      11.755   3.132  -2.335  0.00  0.00    +0.342 A 
BRANCH  24   3
ATOM      3  O   UNL     1      12.779   3.907  -2.030  0.00  0.00    -0.423 OA
BRANCH   3  25
ATOM     25  C   UNL     1      13.455   3.810  -0.821  0.00  0.00    +0.132 A 
ATOM     26  C   UNL     1      14.811   4.072  -0.789  0.00  0.00    +0.046 A 
ATOM     27  C   UNL     1      12.753   3.454   0.313  0.00  0.00    +0.046 A 
ATOM     28  C   UNL     1      15.491   3.974   0.424  0.00  0.00    +0.004 A 
ATOM     29  C   UNL     1      13.432   3.357   1.528  0.00  0.00    +0.004 A 
ATOM     30  C   UNL     1      14.802   3.617   1.583  0.00  0.00    +0.000 A 
ENDBRANCH   3  25
ENDBRANCH  24   3
ENDBRANCH  14   6
TORSDOF 5
ENDMDL
MODEL 3
REMARK VINA RESULT:      -6.7     19.220     22.965
REMARK  Name = 11886184
REMARK  5 active torsions:
REMARK  status: ('A' for Active; 'I' for Inactive)
REMARK    1  A    between atoms: O_3  and  C_24
REMARK    2  A    between atoms: O_3  and  C_25
REMARK    3  A    between atoms: N_5  and  C_13
REMARK    4  A    between atoms: N_6  and  C_14
REMARK    5  A    between atoms: N_7  and  C_17
REMARK                            x       y       z     vdW  Elec       q    Type
REMARK                         _______ _______ _______ _____ _____    ______ ____
ROOT
ATOM      1  O   UNL     1     -16.138   3.831  32.034  0.00  0.00    -0.370 OA
ATOM      2  O   UNL     1     -13.889   2.240  33.550  0.00  0.00    -0.370 OA
ATOM     11  C   UNL     1     -13.885   3.295  32.576  0.00  0.00    +0.171 C 
ATOM     12  C   UNL     1     -15.021   3.031  31.607  0.00  0.00    +0.176 C 
ATOM     13  C   UNL     1     -14.247   4.611  33.227  0.00  0.00    +0.131 C 
ATOM     14  C   UNL     1     -15.343   1.560  31.783  0.00  0.00    +0.171 C 
ATOM     15  C   UNL     1     -15.763   4.579  33.198  0.00  0.00    +0.185 C 
ATOM     16  C   UNL     1     -14.901   1.280  33.214  0.00  0.00    +0.190 C 
ENDROOT
BRANCH  13   5
ATOM      4  O   UNL     1     -13.604   7.225  34.237  0.00  0.00    -0.253 OA
ATOM      5  N   UNL     1     -13.733   5.726  32.469  0.00  0.00    -0.292 N 
ATOM      7  N   UNL     1     -12.965   7.863  32.097  0.00  0.00    -0.297 N 
ATOM     20  C   UNL     1     -13.447   6.963  33.045  0.00  0.00    +0.300 C 
ATOM     31  H   UNL     1     -13.635   5.630  31.464  0.00  0.00    +0.151 HD
ATOM     32  H   UNL     1     -12.945   7.566  31.127  0.00  0.00    +0.151 HD
BRANCH   7  17
ATOM     17  C   UNL     1     -12.590   9.222  32.416  0.00  0.00    +0.074 C 
ATOM     18  C   UNL     1     -11.363   9.659  31.607  0.00  0.00    +0.022 C 
ATOM     19  C   UNL     1     -13.765  10.183  32.205  0.00  0.00    +0.022 C 
ATOM     21  C   UNL     1     -11.685   9.878  30.129  0.00  0.00    +0.002 C 
ATOM     22  C   UNL     1     -14.083  10.402  30.726  0.00  0.00    +0.002 C 
ATOM     23  C   UNL     1     -12.850  10.847  29.945  0.00  0.00    +0.000 C 
ENDBRANCH   7  17
ENDBRANCH  13   5
BRANCH  14   6
ATOM      6  N   UNL     1     -14.709   0.719  30.763  0.00  0.00    -0.187 N 
ATOM      8  N   UNL     1     -13.498   0.192  30.965  0.00  0.00    -0.041 NA
ATOM      9  N   UNL     1     -14.285  -0.401  28.965  0.00  0.00    -0.071 NA
ATOM     10  N   UNL     1     -13.242  -0.495  29.858  0.00  0.00    -0.020 NA
ATOM     24  C   UNL     1     -15.185   0.357  29.548  0.00  0.00    +0.342 A 
BRANCH  24   3
ATOM      3  O   UNL     1     -16.354   0.717  29.053  0.00  0.00    -0.423 OA
BRANCH   3  25
ATOM     25  C   UNL     1     -16.474   1.508  27.919  0.00  0.00    +0.132 A 
ATOM     26  C   UNL     1     -16.193   2.858  28.010  0.00  0.00    +0.046 A 
ATOM     27  C   UNL     1     -16.872   0.923  26.733  0.00  0.00    +0.046 A 
ATOM     28  C   UNL     1     -16.314   3.653  26.870  0.00  0.00    +0.004 A 
ATOM     29  C   UNL     1     -16.993   1.718  25.593  0.00  0.00    +0.004 A 
ATOM     30  C   UNL     1     -16.713   3.083  25.662  0.00  0.00    +0.000 A 
ENDBRANCH   3  25
ENDBRANCH  24   3
ENDBRANCH  14   6
TORSDOF 5
ENDMDL
MODEL 4
REMARK VINA RESULT:      -6.5     24.783     27.673
REMARK  Name = 11886184
REMARK  5 active torsions:
REMARK  status: ('A' for Active; 'I' for Inactive)
REMARK    1  A    between atoms: O_3  and  C_24
REMARK    2  A    between atoms: O_3  and  C_25
REMARK    3  A    between atoms: N_5  and  C_13
REMARK    4  A    between atoms: N_6  and  C_14
REMARK    5  A    between atoms: N_7  and  C_17
REMARK                            x       y       z     vdW  Elec       q    Type
REMARK                         _______ _______ _______ _____ _____    ______ ____
ROOT
ATOM      1  O   UNL     1      11.935   7.354  -0.980  0.00  0.00    -0.370 OA
ATOM      2  O   UNL     1       8.967   6.648  -1.743  0.00  0.00    -0.370 OA
ATOM     11  C   UNL     1       9.762   6.481  -0.559  0.00  0.00    +0.171 C 
ATOM     12  C   UNL     1      11.172   6.133  -0.997  0.00  0.00    +0.176 C 
ATOM     13  C   UNL     1       9.909   7.800   0.165  0.00  0.00    +0.131 C 
ATOM     14  C   UNL     1      11.021   5.640  -2.423  0.00  0.00    +0.171 C 
ATOM     15  C   UNL     1      11.090   8.430  -0.550  0.00  0.00    +0.185 C 
ATOM     16  C   UNL     1       9.759   6.349  -2.901  0.00  0.00    +0.190 C 
ENDROOT
BRANCH  13   5
ATOM      4  O   UNL     1       8.139   8.318   2.370  0.00  0.00    -0.253 OA
ATOM      5  N   UNL     1      10.193   7.599   1.565  0.00  0.00    -0.292 N 
ATOM      7  N   UNL     1       9.792   7.595   3.830  0.00  0.00    -0.297 N 
ATOM     20  C   UNL     1       9.269   7.877   2.571  0.00  0.00    +0.300 C 
ATOM     31  H   UNL     1      11.125   7.301   1.836  0.00  0.00    +0.151 HD
ATOM     32  H   UNL     1      10.763   7.304   3.887  0.00  0.00    +0.151 HD
BRANCH   7  17
ATOM     17  C   UNL     1       9.052   7.791   5.056  0.00  0.00    +0.074 C 
ATOM     18  C   UNL     1       8.208   6.557   5.394  0.00  0.00    +0.022 C 
ATOM     19  C   UNL     1       9.989   8.156   6.214  0.00  0.00    +0.022 C 
ATOM     21  C   UNL     1       9.060   5.374   5.857  0.00  0.00    +0.002 C 
ATOM     22  C   UNL     1      10.837   6.971   6.675  0.00  0.00    +0.002 C 
ATOM     23  C   UNL     1       9.975   5.760   7.016  0.00  0.00    +0.000 C 
ENDBRANCH   7  17
ENDBRANCH  13   5
BRANCH  14   6
ATOM      6  N   UNL     1      10.982   4.178  -2.511  0.00  0.00    -0.187 N 
ATOM      8  N   UNL     1       9.836   3.537  -2.758  0.00  0.00    -0.041 NA
ATOM      9  N   UNL     1      11.511   2.083  -2.528  0.00  0.00    -0.071 NA
ATOM     10  N   UNL     1      10.166   2.251  -2.768  0.00  0.00    -0.020 NA
ATOM     24  C   UNL     1      11.998   3.293  -2.373  0.00  0.00    +0.342 A 
BRANCH  24   3
ATOM      3  O   UNL     1      13.253   3.613  -2.123  0.00  0.00    -0.423 OA
BRANCH   3  25
ATOM     25  C   UNL     1      13.779   3.627  -0.838  0.00  0.00    +0.132 A 
ATOM     26  C   UNL     1      12.968   3.270   0.222  0.00  0.00    +0.046 A 
ATOM     27  C   UNL     1      15.096   4.000  -0.657  0.00  0.00    +0.046 A 
ATOM     28  C   UNL     1      13.496   3.286   1.513  0.00  0.00    +0.004 A 
ATOM     29  C   UNL     1      15.625   4.015   0.634  0.00  0.00    +0.004 A 
ATOM     30  C   UNL     1      14.824   3.657   1.719  0.00  0.00    +0.000 A 
ENDBRANCH   3  25
ENDBRANCH  24   3
ENDBRANCH  14   6
TORSDOF 5
ENDMDL
MODEL 5
REMARK VINA RESULT:      -6.4     23.934     27.526
REMARK  Name = 11886184
REMARK  5 active torsions:
REMARK  status: ('A' for Active; 'I' for Inactive)
REMARK    1  A    between atoms: O_3  and  C_24
REMARK    2  A    between atoms: O_3  and  C_25
REMARK    3  A    between atoms: N_5  and  C_13
REMARK    4  A    between atoms: N_6  and  C_14
REMARK    5  A    between atoms: N_7  and  C_17
REMARK                            x       y       z     vdW  Elec       q    Type
REMARK                         _______ _______ _______ _____ _____    ______ ____
ROOT
ATOM      1  O   UNL     1      10.841   5.866   7.623  0.00  0.00    -0.370 OA
ATOM      2  O   UNL     1       8.489   7.271   6.079  0.00  0.00    -0.370 OA
ATOM     11  C   UNL     1       9.725   6.658   5.678  0.00  0.00    +0.171 C 
ATOM     12  C   UNL     1      10.766   6.991   6.729  0.00  0.00    +0.176 C 
ATOM     13  C   UNL     1       9.606   5.152   5.732  0.00  0.00    +0.131 C 
ATOM     14  C   UNL     1      10.204   8.194   7.461  0.00  0.00    +0.171 C 
ATOM     15  C   UNL     1       9.922   4.856   7.186  0.00  0.00    +0.185 C 
ATOM     16  C   UNL     1       8.699   8.038   7.273  0.00  0.00    +0.190 C 
ENDROOT
BRANCH  13   5
ATOM      4  O   UNL     1       9.971   5.682   2.930  0.00  0.00    -0.253 OA
ATOM      5  N   UNL     1      10.558   4.521   4.852  0.00  0.00    -0.292 N 
ATOM      7  N   UNL     1      11.661   4.090   2.879  0.00  0.00    -0.297 N 
ATOM     20  C   UNL     1      10.667   4.842   3.500  0.00  0.00    +0.300 C 
ATOM     31  H   UNL     1      11.132   3.765   5.214  0.00  0.00    +0.151 HD
ATOM     32  H   UNL     1      12.125   3.372   3.427  0.00  0.00    +0.151 HD
BRANCH   7  17
ATOM     17  C   UNL     1      11.989   4.217   1.477  0.00  0.00    +0.074 C 
ATOM     18  C   UNL     1      12.467   5.636   1.148  0.00  0.00    +0.022 C 
ATOM     19  C   UNL     1      13.028   3.170   1.057  0.00  0.00    +0.022 C 
ATOM     21  C   UNL     1      13.858   5.930   1.711  0.00  0.00    +0.002 C 
ATOM     22  C   UNL     1      14.418   3.469   1.619  0.00  0.00    +0.002 C 
ATOM     23  C   UNL     1      14.876   4.882   1.270  0.00  0.00    +0.000 C 
ENDBRANCH   7  17
ENDBRANCH  13   5
BRANCH  14   6
ATOM      6  N   UNL     1      10.762   9.459   6.975  0.00  0.00    -0.187 N 
ATOM      8  N   UNL     1       9.965  10.424   6.505  0.00  0.00    -0.041 NA
ATOM      9  N   UNL     1      12.100  11.058   6.411  0.00  0.00    -0.071 NA
ATOM     10  N   UNL     1      10.792  11.403   6.161  0.00  0.00    -0.020 NA
ATOM     24  C   UNL     1      12.057   9.847   6.918  0.00  0.00    +0.342 A 
BRANCH  24   3
ATOM      3  O   UNL     1      13.086   9.117   7.307  0.00  0.00    -0.423 OA
BRANCH   3  25
ATOM     25  C   UNL     1      14.136   8.795   6.459  0.00  0.00    +0.132 A 
ATOM     26  C   UNL     1      14.049   7.652   5.687  0.00  0.00    +0.046 A 
ATOM     27  C   UNL     1      15.240   9.624   6.414  0.00  0.00    +0.046 A 
ATOM     28  C   UNL     1      15.105   7.328   4.836  0.00  0.00    +0.004 A 
ATOM     29  C   UNL     1      16.296   9.301   5.562  0.00  0.00    +0.004 A 
ATOM     30  C   UNL     1      16.229   8.152   4.773  0.00  0.00    +0.000 A 
ENDBRANCH   3  25
ENDBRANCH  24   3
ENDBRANCH  14   6
TORSDOF 5
ENDMDL
MODEL 6
REMARK VINA RESULT:      -6.4      1.854      2.294
REMARK  Name = 11886184
REMARK  5 active torsions:
REMARK  status: ('A' for Active; 'I' for Inactive)
REMARK    1  A    between atoms: O_3  and  C_24
REMARK    2  A    between atoms: O_3  and  C_25
REMARK    3  A    between atoms: N_5  and  C_13
REMARK    4  A    between atoms: N_6  and  C_14
REMARK    5  A    between atoms: N_7  and  C_17
REMARK                            x       y       z     vdW  Elec       q    Type
REMARK                         _______ _______ _______ _____ _____    ______ ____
ROOT
ATOM      1  O   UNL     1      -6.433 -11.804  14.532  0.00  0.00    -0.370 OA
ATOM      2  O   UNL     1      -4.101 -10.507  16.198  0.00  0.00    -0.370 OA
ATOM     11  C   UNL     1      -5.233  -9.984  15.484  0.00  0.00    +0.171 C 
ATOM     12  C   UNL     1      -5.420 -10.825  14.236  0.00  0.00    +0.176 C 
ATOM     13  C   UNL     1      -6.501 -10.204  16.277  0.00  0.00    +0.131 C 
ATOM     14  C   UNL     1      -4.083 -11.512  14.032  0.00  0.00    +0.171 C 
ATOM     15  C   UNL     1      -6.891 -11.615  15.878  0.00  0.00    +0.185 C 
ATOM     16  C   UNL     1      -3.509 -11.573  15.443  0.00  0.00    +0.190 C 
ENDROOT
BRANCH  13   5
ATOM      4  O   UNL     1      -8.733  -9.361  17.882  0.00  0.00    -0.253 OA
ATOM      5  N   UNL     1      -7.521  -9.255  15.905  0.00  0.00    -0.292 N 
ATOM      7  N   UNL     1      -9.414  -7.970  16.152  0.00  0.00    -0.297 N 
ATOM     20  C   UNL     1      -8.572  -8.903  16.751  0.00  0.00    +0.300 C 
ATOM     31  H   UNL     1      -7.513  -8.873  14.965  0.00  0.00    +0.151 HD
ATOM     32  H   UNL     1      -9.230  -7.715  15.187  0.00  0.00    +0.151 HD
BRANCH   7  17
ATOM     17  C   UNL     1     -10.586  -7.430  16.802  0.00  0.00    +0.074 C 
ATOM     18  C   UNL     1     -10.997  -6.092  16.176  0.00  0.00    +0.022 C 
ATOM     19  C   UNL     1     -11.745  -8.434  16.775  0.00  0.00    +0.022 C 
ATOM     21  C   UNL     1     -11.597  -6.259  14.780  0.00  0.00    +0.002 C 
ATOM     22  C   UNL     1     -12.344  -8.596  15.378  0.00  0.00    +0.002 C 
ATOM     23  C   UNL     1     -12.755  -7.254  14.781  0.00  0.00    +0.000 C 
ENDBRANCH   7  17
ENDBRANCH  13   5
BRANCH  14   6
ATOM      6  N   UNL     1      -3.242 -10.825  13.048  0.00  0.00    -0.187 N 
ATOM      8  N   UNL     1      -2.040 -10.349  13.388  0.00  0.00    -0.041 NA
ATOM      9  N   UNL     1      -2.469  -9.929  11.241  0.00  0.00    -0.071 NA
ATOM     10  N   UNL     1      -1.570  -9.800  12.275  0.00  0.00    -0.020 NA
ATOM     24  C   UNL     1      -3.499 -10.569  11.744  0.00  0.00    +0.342 A 
BRANCH  24   3
ATOM      3  O   UNL     1      -4.604 -10.911  11.108  0.00  0.00    -0.423 OA
BRANCH   3  25
ATOM     25  C   UNL     1      -4.635 -11.152   9.742  0.00  0.00    +0.132 A 
ATOM     26  C   UNL     1      -5.111 -10.167   8.898  0.00  0.00    +0.046 A 
ATOM     27  C   UNL     1      -4.192 -12.370   9.265  0.00  0.00    +0.046 A 
ATOM     28  C   UNL     1      -5.143 -10.409   7.525  0.00  0.00    +0.004 A 
ATOM     29  C   UNL     1      -4.224 -12.613   7.892  0.00  0.00    +0.004 A 
ATOM     30  C   UNL     1      -4.700 -11.631   7.021  0.00  0.00    +0.000 A 
ENDBRANCH   3  25
ENDBRANCH  24   3
ENDBRANCH  14   6
TORSDOF 5
ENDMDL
MODEL 7
REMARK VINA RESULT:      -6.3     25.658     29.568
REMARK  Name = 11886184
REMARK  5 active torsions:
REMARK  status: ('A' for Active; 'I' for Inactive)
REMARK    1  A    between atoms: O_3  and  C_24
REMARK    2  A    between atoms: O_3  and  C_25
REMARK    3  A    between atoms: N_5  and  C_13
REMARK    4  A    between atoms: N_6  and  C_14
REMARK    5  A    between atoms: N_7  and  C_17
REMARK                            x       y       z     vdW  Elec       q    Type
REMARK                         _______ _______ _______ _____ _____    ______ ____
ROOT
ATOM      1  O   UNL     1      12.968   9.196   4.176  0.00  0.00    -0.370 OA
ATOM      2  O   UNL     1      12.163   8.861   7.197  0.00  0.00    -0.370 OA
ATOM     11  C   UNL     1      13.240   8.365   6.388  0.00  0.00    +0.171 C 
ATOM     12  C   UNL     1      12.680   8.060   5.012  0.00  0.00    +0.176 C 
ATOM     13  C   UNL     1      14.259   9.455   6.144  0.00  0.00    +0.131 C 
ATOM     14  C   UNL     1      11.183   7.942   5.223  0.00  0.00    +0.171 C 
ATOM     15  C   UNL     1      13.678  10.177   4.944  0.00  0.00    +0.185 C 
ATOM     16  C   UNL     1      10.940   8.813   6.450  0.00  0.00    +0.190 C 
ENDROOT
BRANCH  13   5
ATOM      4  O   UNL     1      16.692  10.919   5.691  0.00  0.00    -0.253 OA
ATOM      5  N   UNL     1      15.556   8.901   5.843  0.00  0.00    -0.292 N 
ATOM      7  N   UNL     1      17.806   8.909   5.365  0.00  0.00    -0.297 N 
ATOM     20  C   UNL     1      16.687   9.690   5.639  0.00  0.00    +0.300 C 
ATOM     31  H   UNL     1      15.639   7.898   5.712  0.00  0.00    +0.151 HD
ATOM     32  H   UNL     1      17.675   7.906   5.273  0.00  0.00    +0.151 HD
BRANCH   7  17
ATOM     17  C   UNL     1      19.116   9.465   5.111  0.00  0.00    +0.074 C 
ATOM     18  C   UNL     1      19.928   9.580   6.407  0.00  0.00    +0.022 C 
ATOM     19  C   UNL     1      19.868   8.645   4.056  0.00  0.00    +0.022 C 
ATOM     21  C   UNL     1      20.383   8.219   6.934  0.00  0.00    +0.002 C 
ATOM     22  C   UNL     1      20.324   7.286   4.588  0.00  0.00    +0.002 C 
ATOM     23  C   UNL     1      21.139   7.428   5.871  0.00  0.00    +0.000 C 
ENDBRANCH   7  17
ENDBRANCH  13   5
BRANCH  14   6
ATOM      6  N   UNL     1      10.742   6.550   5.353  0.00  0.00    -0.187 N 
ATOM      8  N   UNL     1      10.353   6.062   6.535  0.00  0.00    -0.041 NA
ATOM      9  N   UNL     1      10.213   4.494   4.957  0.00  0.00    -0.071 NA
ATOM     10  N   UNL     1      10.029   4.799   6.286  0.00  0.00    -0.020 NA
ATOM     24  C   UNL     1      10.655   5.596   4.397  0.00  0.00    +0.342 A 
BRANCH  24   3
ATOM      3  O   UNL     1      10.968   5.765   3.126  0.00  0.00    -0.423 OA
BRANCH   3  25
ATOM     25  C   UNL     1      12.016   5.087   2.518  0.00  0.00    +0.132 A 
ATOM     26  C   UNL     1      13.198   5.760   2.274  0.00  0.00    +0.046 A 
ATOM     27  C   UNL     1      11.846   3.761   2.173  0.00  0.00    +0.046 A 
ATOM     28  C   UNL     1      14.251   5.080   1.662  0.00  0.00    +0.004 A 
ATOM     29  C   UNL     1      12.899   3.080   1.562  0.00  0.00    +0.004 A 
ATOM     30  C   UNL     1      14.102   3.740   1.307  0.00  0.00    +0.000 A 
ENDBRANCH   3  25
ENDBRANCH  24   3
ENDBRANCH  14   6
TORSDOF 5
ENDMDL
MODEL 8
REMARK VINA RESULT:      -6.3     24.904     27.635
REMARK  Name = 11886184
REMARK  5 active torsions:
REMARK  status: ('A' for Active; 'I' for Inactive)
REMARK    1  A    between atoms: O_3  and  C_24
REMARK    2  A    between atoms: O_3  and  C_25
REMARK    3  A    between atoms: N_5  and  C_13
REMARK    4  A    between atoms: N_6  and  C_14
REMARK    5  A    between atoms: N_7  and  C_17
REMARK                            x       y       z     vdW  Elec       q    Type
REMARK                         _______ _______ _______ _____ _____    ______ ____
ROOT
ATOM      1  O   UNL     1      11.640   8.010   6.850  0.00  0.00    -0.370 OA
ATOM      2  O   UNL     1       8.762   6.828   6.394  0.00  0.00    -0.370 OA
ATOM     11  C   UNL     1       9.876   7.109   5.532  0.00  0.00    +0.171 C 
ATOM     12  C   UNL     1      10.525   8.389   6.022  0.00  0.00    +0.176 C 
ATOM     13  C   UNL     1      10.948   6.057   5.701  0.00  0.00    +0.131 C 
ATOM     14  C   UNL     1       9.461   9.061   6.869  0.00  0.00    +0.171 C 
ATOM     15  C   UNL     1      11.727   6.579   6.893  0.00  0.00    +0.185 C 
ATOM     16  C   UNL     1       8.612   7.889   7.347  0.00  0.00    +0.190 C 
ENDROOT
BRANCH  13   5
ATOM      4  O   UNL     1      10.555   4.336   3.432  0.00  0.00    -0.253 OA
ATOM      5  N   UNL     1      11.784   5.971   4.528  0.00  0.00    -0.292 N 
ATOM      7  N   UNL     1      12.473   5.217   2.467  0.00  0.00    -0.297 N 
ATOM     20  C   UNL     1      11.515   5.104   3.471  0.00  0.00    +0.300 C 
ATOM     31  H   UNL     1      12.639   6.517   4.497  0.00  0.00    +0.151 HD
ATOM     32  H   UNL     1      13.265   5.830   2.633  0.00  0.00    +0.151 HD
BRANCH   7  17
ATOM     17  C   UNL     1      12.443   4.435   1.252  0.00  0.00    +0.074 C 
ATOM     18  C   UNL     1      12.810   5.292   0.035  0.00  0.00    +0.022 C 
ATOM     19  C   UNL     1      13.356   3.208   1.363  0.00  0.00    +0.022 C 
ATOM     21  C   UNL     1      14.294   5.658   0.004  0.00  0.00    +0.002 C 
ATOM     22  C   UNL     1      14.838   3.578   1.329  0.00  0.00    +0.002 C 
ATOM     23  C   UNL     1      15.181   4.421   0.104  0.00  0.00    +0.000 C 
ENDBRANCH   7  17
ENDBRANCH  13   5
BRANCH  14   6
ATOM      6  N   UNL     1       8.729  10.097   6.134  0.00  0.00    -0.187 N 
ATOM      8  N   UNL     1       7.913   9.776   5.127  0.00  0.00    -0.041 NA
ATOM      9  N   UNL     1       7.940  11.984   5.437  0.00  0.00    -0.071 NA
ATOM     10  N   UNL     1       7.431  10.937   4.702  0.00  0.00    -0.020 NA
ATOM     24  C   UNL     1       8.743  11.438   6.321  0.00  0.00    +0.342 A 
BRANCH  24   3
ATOM      3  O   UNL     1       9.452  12.068   7.239  0.00  0.00    -0.423 OA
BRANCH   3  25
ATOM     25  C   UNL     1       8.973  12.308   8.519  0.00  0.00    +0.132 A 
ATOM     26  C   UNL     1       8.059  13.327   8.713  0.00  0.00    +0.046 A 
ATOM     27  C   UNL     1       9.424  11.524   9.562  0.00  0.00    +0.046 A 
ATOM     28  C   UNL     1       7.578  13.569  10.000  0.00  0.00    +0.004 A 
ATOM     29  C   UNL     1       8.943  11.765  10.849  0.00  0.00    +0.004 A 
ATOM     30  C   UNL     1       8.019  12.788  11.068  0.00  0.00    +0.000 A 
ENDBRANCH   3  25
ENDBRANCH  24   3
ENDBRANCH  14   6
TORSDOF 5
ENDMDL
MODEL 9
REMARK VINA RESULT:      -6.2     20.681     24.279
REMARK  Name = 11886184
REMARK  5 active torsions:
REMARK  status: ('A' for Active; 'I' for Inactive)
REMARK    1  A    between atoms: O_3  and  C_24
REMARK    2  A    between atoms: O_3  and  C_25
REMARK    3  A    between atoms: N_5  and  C_13
REMARK    4  A    between atoms: N_6  and  C_14
REMARK    5  A    between atoms: N_7  and  C_17
REMARK                            x       y       z     vdW  Elec       q    Type
REMARK                         _______ _______ _______ _____ _____    ______ ____
ROOT
ATOM      1  O   UNL     1     -16.242   7.178  32.053  0.00  0.00    -0.370 OA
ATOM      2  O   UNL     1     -13.749   6.700  33.910  0.00  0.00    -0.370 OA
ATOM     11  C   UNL     1     -13.915   7.098  32.540  0.00  0.00    +0.171 C 
ATOM     12  C   UNL     1     -15.088   6.322  31.974  0.00  0.00    +0.176 C 
ATOM     13  C   UNL     1     -14.350   8.544  32.463  0.00  0.00    +0.131 C 
ATOM     14  C   UNL     1     -15.257   5.141  32.911  0.00  0.00    +0.171 C 
ATOM     15  C   UNL     1     -15.855   8.437  32.622  0.00  0.00    +0.185 C 
ATOM     16  C   UNL     1     -14.688   5.662  34.225  0.00  0.00    +0.190 C 
ENDROOT
BRANCH  13   5
ATOM      4  O   UNL     1     -11.789   9.610  31.707  0.00  0.00    -0.253 OA
ATOM      5  N   UNL     1     -14.000   9.127  31.191  0.00  0.00    -0.292 N 
ATOM      7  N   UNL     1     -12.654  10.127  29.615  0.00  0.00    -0.297 N 
ATOM     20  C   UNL     1     -12.727   9.620  30.910  0.00  0.00    +0.300 C 
ATOM     31  H   UNL     1     -14.725   9.243  30.491  0.00  0.00    +0.151 HD
ATOM     32  H   UNL     1     -13.508  10.154  29.067  0.00  0.00    +0.151 HD
BRANCH   7  17
ATOM     17  C   UNL     1     -11.452  10.704  29.057  0.00  0.00    +0.074 C 
ATOM     18  C   UNL     1     -11.000   9.937  27.809  0.00  0.00    +0.022 C 
ATOM     19  C   UNL     1     -11.645  12.194  28.754  0.00  0.00    +0.022 C 
ATOM     21  C   UNL     1     -11.918  10.179  26.611  0.00  0.00    +0.002 C 
ATOM     22  C   UNL     1     -12.560  12.432  27.553  0.00  0.00    +0.002 C 
ATOM     23  C   UNL     1     -12.084  11.668  26.321  0.00  0.00    +0.000 C 
ENDBRANCH   7  17
ENDBRANCH  13   5
BRANCH  14   6
ATOM      6  N   UNL     1     -14.623   3.922  32.400  0.00  0.00    -0.187 N 
ATOM      8  N   UNL     1     -13.439   3.518  32.869  0.00  0.00    -0.041 NA
ATOM      9  N   UNL     1     -14.184   2.111  31.309  0.00  0.00    -0.071 NA
ATOM     10  N   UNL     1     -13.174   2.405  32.196  0.00  0.00    -0.020 NA
ATOM     24  C   UNL     1     -15.073   3.066  31.454  0.00  0.00    +0.342 A 
BRANCH  24   3
ATOM      3  O   UNL     1     -16.212   3.190  30.798  0.00  0.00    -0.423 OA
BRANCH   3  25
ATOM     25  C   UNL     1     -16.356   2.813  29.470  0.00  0.00    +0.132 A 
ATOM     26  C   UNL     1     -16.032   3.718  28.478  0.00  0.00    +0.046 A 
ATOM     27  C   UNL     1     -16.820   1.546  29.180  0.00  0.00    +0.046 A 
ATOM     28  C   UNL     1     -16.177   3.340  27.143  0.00  0.00    +0.004 A 
ATOM     29  C   UNL     1     -16.964   1.166  27.845  0.00  0.00    +0.004 A 
ATOM     30  C   UNL     1     -16.642   2.064  26.826  0.00  0.00    +0.000 A 
ENDBRANCH   3  25
ENDBRANCH  24   3
ENDBRANCH  14   6
TORSDOF 5
ENDMDL
MODEL 10
REMARK VINA RESULT:      -6.0      4.467      7.378
REMARK  Name = 11886184
REMARK  5 active torsions:
REMARK  status: ('A' for Active; 'I' for Inactive)
REMARK    1  A    between atoms: O_3  and  C_24
REMARK    2  A    between atoms: O_3  and  C_25
REMARK    3  A    between atoms: N_5  and  C_13
REMARK    4  A    between atoms: N_6  and  C_14
REMARK    5  A    between atoms: N_7  and  C_17
REMARK                            x       y       z     vdW  Elec       q    Type
REMARK                         _______ _______ _______ _____ _____    ______ ____
ROOT
ATOM      1  O   UNL     1      -3.388 -11.872  10.782  0.00  0.00    -0.370 OA
ATOM      2  O   UNL     1      -4.001  -8.789  10.733  0.00  0.00    -0.370 OA
ATOM     11  C   UNL     1      -4.536  -9.904  11.464  0.00  0.00    +0.171 C 
ATOM     12  C   UNL     1      -4.571 -11.094  10.525  0.00  0.00    +0.176 C 
ATOM     13  C   UNL     1      -3.581 -10.319  12.560  0.00  0.00    +0.131 C 
ATOM     14  C   UNL     1      -4.499 -10.491   9.136  0.00  0.00    +0.171 C 
ATOM     15  C   UNL     1      -2.630 -11.245  11.826  0.00  0.00    +0.185 C 
ATOM     16  C   UNL     1      -3.772  -9.172   9.371  0.00  0.00    +0.190 C 
ENDROOT
BRANCH  13   5
ATOM      4  O   UNL     1      -2.760 -10.518  15.308  0.00  0.00    -0.253 OA
ATOM      5  N   UNL     1      -4.273 -11.013  13.619  0.00  0.00    -0.292 N 
ATOM      7  N   UNL     1      -4.652 -11.789  15.751  0.00  0.00    -0.297 N 
ATOM     20  C   UNL     1      -3.799 -11.057  14.929  0.00  0.00    +0.300 C 
ATOM     31  H   UNL     1      -5.106 -11.546  13.391  0.00  0.00    +0.151 HD
ATOM     32  H   UNL     1      -5.445 -12.253  15.320  0.00  0.00    +0.151 HD
BRANCH   7  17
ATOM     17  C   UNL     1      -4.406 -11.998  17.160  0.00  0.00    +0.074 C 
ATOM     18  C   UNL     1      -4.840 -10.779  17.983  0.00  0.00    +0.022 C 
ATOM     19  C   UNL     1      -5.093 -13.276  17.656  0.00  0.00    +0.022 C 
ATOM     21  C   UNL     1      -6.360 -10.637  18.060  0.00  0.00    +0.002 C 
ATOM     22  C   UNL     1      -6.613 -13.129  17.735  0.00  0.00    +0.002 C 
ATOM     23  C   UNL     1      -7.019 -11.916  18.568  0.00  0.00    +0.000 C 
ENDBRANCH   7  17
ENDBRANCH  13   5
BRANCH  14   6
ATOM      6  N   UNL     1      -5.817 -10.370   8.506  0.00  0.00    -0.187 N 
ATOM      8  N   UNL     1      -6.605  -9.321   8.763  0.00  0.00    -0.041 NA
ATOM      9  N   UNL     1      -7.596 -10.712   7.330  0.00  0.00    -0.071 NA
ATOM     10  N   UNL     1      -7.696  -9.536   8.039  0.00  0.00    -0.020 NA
ATOM     24  C   UNL     1      -6.421 -11.211   7.635  0.00  0.00    +0.342 A 
BRANCH  24   3
ATOM      3  O   UNL     1      -5.901 -12.338   7.185  0.00  0.00    -0.423 OA
BRANCH   3  25
ATOM     25  C   UNL     1      -5.112 -12.394   6.044  0.00  0.00    +0.132 A 
ATOM     26  C   UNL     1      -3.764 -12.665   6.174  0.00  0.00    +0.046 A 
ATOM     27  C   UNL     1      -5.698 -12.175   4.813  0.00  0.00    +0.046 A 
ATOM     28  C   UNL     1      -2.971 -12.720   5.028  0.00  0.00    +0.004 A 
ATOM     29  C   UNL     1      -4.906 -12.231   3.666  0.00  0.00    +0.004 A 
ATOM     30  C   UNL     1      -3.541 -12.504   3.774  0.00  0.00    +0.000 A 
ENDBRANCH   3  25
ENDBRANCH  24   3
ENDBRANCH  14   6
TORSDOF 5
ENDMDL
