MODEL 1
REMARK VINA RESULT:      -8.2      0.000      0.000
REMARK  Name = 26743270
REMARK  9 active torsions:
REMARK  status: ('A' for Active; 'I' for Inactive)
REMARK    1  A    between atoms: C_8  and  C_14
REMARK    2  A    between atoms: C_9  and  C_12
REMARK    3  A    between atoms: C_12  and  C_15
REMARK    4  A    between atoms: C_14  and  C_16
REMARK    5  A    between atoms: C_18  and  C_20
REMARK    6  A    between atoms: C_19  and  C_21
REMARK    7  A    between atoms: C_19  and  C_25
REMARK    8  A    between atoms: C_19  and  C_26
REMARK    9  A    between atoms: C_19  and  C_27
REMARK                            x       y       z     vdW  Elec       q    Type
REMARK                         _______ _______ _______ _____ _____    ______ ____
ROOT
ATOM      4  N   UNL     1      11.699   5.943  20.708  0.00  0.00    -0.316 NA
ATOM      8  C   UNL     1      11.765   8.850  20.207  0.00  0.00    +0.004 C 
ATOM      9  C   UNL     1      12.523   7.832  19.322  0.00  0.00    +0.012 C 
ATOM     10  C   UNL     1      10.584   8.140  20.891  0.00  0.00    +0.019 C 
ATOM     11  C   UNL     1      12.883   6.558  20.104  0.00  0.00    +0.085 C 
ATOM     13  C   UNL     1      11.011   6.863  21.612  0.00  0.00    +0.081 C 
ATOM     32  H   UNL     1      11.978   5.108  21.223  0.00  0.00    +0.122 HD
ENDROOT
BRANCH   9  12
ATOM     12  C   UNL     1      13.768   8.424  18.660  0.00  0.00    +0.064 C 
BRANCH  12  15
ATOM      2  O   UNL     1      16.395   5.965  18.804  0.00  0.00    -0.354 OA
ATOM      5  N   UNL     1      15.201   6.461  18.294  0.00  0.00    -0.083 NA
ATOM     15  C   UNL     1      14.989   7.602  18.956  0.00  0.00    +0.085 A 
ATOM     17  C   UNL     1      16.005   7.873  19.889  0.00  0.00    +0.076 A 
ATOM     18  C   UNL     1      16.863   6.815  19.753  0.00  0.00    +0.167 A 
BRANCH  18  20
ATOM     20  C   UNL     1      18.098   6.433  20.375  0.00  0.00    +0.020 A 
ATOM     21  C   UNL     1      20.501   5.689  21.582  0.00  0.00    -0.042 A 
ATOM     22  C   UNL     1      18.852   5.387  19.842  0.00  0.00    +0.012 A 
ATOM     23  C   UNL     1      18.544   7.107  21.512  0.00  0.00    +0.012 A 
ATOM     28  C   UNL     1      20.053   5.015  20.446  0.00  0.00    +0.005 A 
ATOM     29  C   UNL     1      19.746   6.736  22.115  0.00  0.00    +0.005 A 
BRANCH  21  19
ATOM     19  C   UNL     1      21.784   5.291  22.229  0.00  0.00    -0.013 C 
ATOM     25  C   UNL     1      21.911   5.904  23.658  0.00  0.00    +0.015 C 
ATOM     26  C   UNL     1      23.011   5.780  21.399  0.00  0.00    +0.015 C 
ATOM     27  C   UNL     1      21.994   3.752  22.414  0.00  0.00    +0.015 C 
ENDBRANCH  21  19
ENDBRANCH  18  20
ENDBRANCH  12  15
ENDBRANCH   9  12
BRANCH   8  14
ATOM     14  C   UNL     1      12.649   9.558  21.241  0.00  0.00    +0.100 C 
BRANCH  14  16
ATOM      1  S   UNL     1      10.981  12.039  25.212  0.00  0.00    -0.061 S 
ATOM      3  O   UNL     1      12.135  11.843  20.676  0.00  0.00    -0.275 OA
ATOM      6  N   UNL     1      11.818  11.085  22.877  0.00  0.00    -0.265 N 
ATOM      7  N   UNL     1      11.113  13.428  23.035  0.00  0.00    -0.233 NA
ATOM     16  C   UNL     1      12.175  10.970  21.536  0.00  0.00    +0.219 C 
ATOM     24  C   UNL     1      11.330  12.234  23.544  0.00  0.00    +0.164 A 
ATOM     30  C   UNL     1      10.498  13.683  25.278  0.00  0.00    +0.068 A 
ATOM     31  C   UNL     1      10.636  14.256  24.031  0.00  0.00    +0.120 A 
ATOM     33  H   UNL     1      11.906  10.268  23.476  0.00  0.00    +0.157 HD
ENDBRANCH  14  16
ENDBRANCH   8  14
TORSDOF 6
ENDMDL
MODEL 2
REMARK VINA RESULT:      -8.0      2.940      4.812
REMARK  Name = 26743270
REMARK  9 active torsions:
REMARK  status: ('A' for Active; 'I' for Inactive)
REMARK    1  A    between atoms: C_8  and  C_14
REMARK    2  A    between atoms: C_9  and  C_12
REMARK    3  A    between atoms: C_12  and  C_15
REMARK    4  A    between atoms: C_14  and  C_16
REMARK    5  A    between atoms: C_18  and  C_20
REMARK    6  A    between atoms: C_19  and  C_21
REMARK    7  A    between atoms: C_19  and  C_25
REMARK    8  A    between atoms: C_19  and  C_26
REMARK    9  A    between atoms: C_19  and  C_27
REMARK                            x       y       z     vdW  Elec       q    Type
REMARK                         _______ _______ _______ _____ _____    ______ ____
ROOT
ATOM      4  N   UNL     1      11.305   8.785  23.098  0.00  0.00    -0.316 NA
ATOM      8  C   UNL     1      12.039   7.605  20.495  0.00  0.00    +0.004 C 
ATOM      9  C   UNL     1      13.053   8.362  21.386  0.00  0.00    +0.012 C 
ATOM     10  C   UNL     1      10.906   7.057  21.378  0.00  0.00    +0.019 C 
ATOM     11  C   UNL     1      12.357   9.396  22.285  0.00  0.00    +0.085 C 
ATOM     13  C   UNL     1      10.291   8.132  22.272  0.00  0.00    +0.081 C 
ATOM     32  H   UNL     1      10.863   9.501  23.673  0.00  0.00    +0.122 HD
ENDROOT
BRANCH   9  12
ATOM     12  C   UNL     1      14.181   9.016  20.587  0.00  0.00    +0.064 C 
BRANCH  12  15
ATOM      2  O   UNL     1      16.607   6.498  19.729  0.00  0.00    -0.354 OA
ATOM      5  N   UNL     1      15.383   7.134  19.561  0.00  0.00    -0.083 NA
ATOM     15  C   UNL     1      15.371   8.108  20.476  0.00  0.00    +0.085 A 
ATOM     17  C   UNL     1      16.549   8.133  21.243  0.00  0.00    +0.076 A 
ATOM     18  C   UNL     1      17.292   7.102  20.734  0.00  0.00    +0.167 A 
BRANCH  18  20
ATOM     20  C   UNL     1      18.583   6.550  21.025  0.00  0.00    +0.020 A 
ATOM     21  C   UNL     1      21.095   5.476  21.592  0.00  0.00    -0.042 A 
ATOM     22  C   UNL     1      19.306   7.009  22.126  0.00  0.00    +0.012 A 
ATOM     23  C   UNL     1      19.116   5.554  20.206  0.00  0.00    +0.012 A 
ATOM     28  C   UNL     1      20.562   6.472  22.410  0.00  0.00    +0.005 A 
ATOM     29  C   UNL     1      20.372   5.016  20.490  0.00  0.00    +0.005 A 
BRANCH  21  19
ATOM     19  C   UNL     1      22.438   4.902  21.894  0.00  0.00    -0.013 C 
ATOM     25  C   UNL     1      22.849   3.837  20.831  0.00  0.00    +0.015 C 
ATOM     26  C   UNL     1      22.454   4.204  23.290  0.00  0.00    +0.015 C 
ATOM     27  C   UNL     1      23.615   5.932  21.930  0.00  0.00    +0.015 C 
ENDBRANCH  21  19
ENDBRANCH  18  20
ENDBRANCH  12  15
ENDBRANCH   9  12
BRANCH   8  14
ATOM     14  C   UNL     1      11.475   8.444  19.342  0.00  0.00    +0.100 C 
BRANCH  14  16
ATOM      1  S   UNL     1      14.585  10.883  16.327  0.00  0.00    -0.061 S 
ATOM      3  O   UNL     1      12.045   7.102  17.424  0.00  0.00    -0.275 OA
ATOM      6  N   UNL     1      12.950   9.258  17.650  0.00  0.00    -0.265 N 
ATOM      7  N   UNL     1      13.935   8.509  15.535  0.00  0.00    -0.233 NA
ATOM     16  C   UNL     1      12.177   8.163  18.025  0.00  0.00    +0.219 C 
ATOM     24  C   UNL     1      13.754   9.391  16.493  0.00  0.00    +0.164 A 
ATOM     30  C   UNL     1      15.253  10.318  14.852  0.00  0.00    +0.068 A 
ATOM     31  C   UNL     1      14.795   9.042  14.595  0.00  0.00    +0.120 A 
ATOM     33  H   UNL     1      12.963  10.075  18.256  0.00  0.00    +0.157 HD
ENDBRANCH  14  16
ENDBRANCH   8  14
TORSDOF 6
ENDMDL
MODEL 3
REMARK VINA RESULT:      -8.0      1.080      1.595
REMARK  Name = 26743270
REMARK  9 active torsions:
REMARK  status: ('A' for Active; 'I' for Inactive)
REMARK    1  A    between atoms: C_8  and  C_14
REMARK    2  A    between atoms: C_9  and  C_12
REMARK    3  A    between atoms: C_12  and  C_15
REMARK    4  A    between atoms: C_14  and  C_16
REMARK    5  A    between atoms: C_18  and  C_20
REMARK    6  A    between atoms: C_19  and  C_21
REMARK    7  A    between atoms: C_19  and  C_25
REMARK    8  A    between atoms: C_19  and  C_26
REMARK    9  A    between atoms: C_19  and  C_27
REMARK                            x       y       z     vdW  Elec       q    Type
REMARK                         _______ _______ _______ _____ _____    ______ ____
ROOT
ATOM      4  N   UNL     1      11.569   5.944  20.628  0.00  0.00    -0.316 NA
ATOM      8  C   UNL     1      11.823   8.879  20.484  0.00  0.00    +0.004 C 
ATOM      9  C   UNL     1      12.416   7.935  19.411  0.00  0.00    +0.012 C 
ATOM     10  C   UNL     1      10.655   8.170  21.188  0.00  0.00    +0.019 C 
ATOM     11  C   UNL     1      12.739   6.549  19.992  0.00  0.00    +0.085 C 
ATOM     13  C   UNL     1      11.039   6.784  21.702  0.00  0.00    +0.081 C 
ATOM     32  H   UNL     1      11.824   5.032  21.007  0.00  0.00    +0.122 HD
ENDROOT
BRANCH   9  12
ATOM     12  C   UNL     1      13.640   8.522  18.707  0.00  0.00    +0.064 C 
BRANCH  12  15
ATOM      2  O   UNL     1      16.266   6.058  18.752  0.00  0.00    -0.354 OA
ATOM      5  N   UNL     1      15.061   6.563  18.277  0.00  0.00    -0.083 NA
ATOM     15  C   UNL     1      14.866   7.693  18.962  0.00  0.00    +0.085 A 
ATOM     17  C   UNL     1      15.904   7.950  19.875  0.00  0.00    +0.076 A 
ATOM     18  C   UNL     1      16.757   6.893  19.703  0.00  0.00    +0.167 A 
BRANCH  18  20
ATOM     20  C   UNL     1      18.006   6.499  20.290  0.00  0.00    +0.020 A 
ATOM     21  C   UNL     1      20.433   5.733  21.432  0.00  0.00    -0.042 A 
ATOM     22  C   UNL     1      18.522   7.209  21.373  0.00  0.00    +0.012 A 
ATOM     23  C   UNL     1      18.703   5.405  19.776  0.00  0.00    +0.012 A 
ATOM     28  C   UNL     1      19.736   6.827  21.944  0.00  0.00    +0.005 A 
ATOM     29  C   UNL     1      19.916   5.021  20.347  0.00  0.00    +0.005 A 
BRANCH  21  19
ATOM     19  C   UNL     1      21.731   5.323  22.041  0.00  0.00    -0.013 C 
ATOM     25  C   UNL     1      22.938   5.934  21.263  0.00  0.00    +0.015 C 
ATOM     26  C   UNL     1      21.899   3.772  22.027  0.00  0.00    +0.015 C 
ATOM     27  C   UNL     1      21.937   5.750  23.532  0.00  0.00    +0.015 C 
ENDBRANCH  21  19
ENDBRANCH  18  20
ENDBRANCH  12  15
ENDBRANCH   9  12
BRANCH   8  14
ATOM     14  C   UNL     1      12.849   9.386  21.505  0.00  0.00    +0.100 C 
BRANCH  14  16
ATOM      1  S   UNL     1      14.135  11.816  25.645  0.00  0.00    -0.061 S 
ATOM      3  O   UNL     1      11.406  11.279  21.875  0.00  0.00    -0.275 OA
ATOM      6  N   UNL     1      13.138  10.816  23.394  0.00  0.00    -0.265 N 
ATOM      7  N   UNL     1      12.117  12.817  24.375  0.00  0.00    -0.233 NA
ATOM     16  C   UNL     1      12.358  10.608  22.260  0.00  0.00    +0.219 C 
ATOM     24  C   UNL     1      13.004  11.846  24.356  0.00  0.00    +0.164 A 
ATOM     30  C   UNL     1      13.392  13.218  26.297  0.00  0.00    +0.068 A 
ATOM     31  C   UNL     1      12.342  13.603  25.489  0.00  0.00    +0.120 A 
ATOM     33  H   UNL     1      13.902  10.172  23.585  0.00  0.00    +0.157 HD
ENDBRANCH  14  16
ENDBRANCH   8  14
TORSDOF 6
ENDMDL
MODEL 4
REMARK VINA RESULT:      -7.7      2.283      2.631
REMARK  Name = 26743270
REMARK  9 active torsions:
REMARK  status: ('A' for Active; 'I' for Inactive)
REMARK    1  A    between atoms: C_8  and  C_14
REMARK    2  A    between atoms: C_9  and  C_12
REMARK    3  A    between atoms: C_12  and  C_15
REMARK    4  A    between atoms: C_14  and  C_16
REMARK    5  A    between atoms: C_18  and  C_20
REMARK    6  A    between atoms: C_19  and  C_21
REMARK    7  A    between atoms: C_19  and  C_25
REMARK    8  A    between atoms: C_19  and  C_26
REMARK    9  A    between atoms: C_19  and  C_27
REMARK                            x       y       z     vdW  Elec       q    Type
REMARK                         _______ _______ _______ _____ _____    ______ ____
ROOT
ATOM      4  N   UNL     1      12.194   6.222  21.238  0.00  0.00    -0.316 NA
ATOM      8  C   UNL     1      12.173   9.058  20.424  0.00  0.00    +0.004 C 
ATOM      9  C   UNL     1      13.392   8.133  20.197  0.00  0.00    +0.012 C 
ATOM     10  C   UNL     1      10.901   8.200  20.518  0.00  0.00    +0.019 C 
ATOM     11  C   UNL     1      13.439   6.993  21.227  0.00  0.00    +0.085 C 
ATOM     13  C   UNL     1      11.036   7.065  21.531  0.00  0.00    +0.081 C 
ATOM     32  H   UNL     1      12.260   5.484  21.937  0.00  0.00    +0.122 HD
ENDROOT
BRANCH   9  12
ATOM     12  C   UNL     1      14.721   8.888  20.170  0.00  0.00    +0.064 C 
BRANCH  12  15
ATOM      2  O   UNL     1      17.140   6.331  19.406  0.00  0.00    -0.354 OA
ATOM      5  N   UNL     1      15.961   7.024  19.156  0.00  0.00    -0.083 NA
ATOM     15  C   UNL     1      15.886   7.942  20.123  0.00  0.00    +0.085 A 
ATOM     17  C   UNL     1      16.979   7.877  21.005  0.00  0.00    +0.076 A 
ATOM     18  C   UNL     1      17.737   6.850  20.510  0.00  0.00    +0.167 A 
BRANCH  18  20
ATOM     20  C   UNL     1      18.973   6.232  20.894  0.00  0.00    +0.020 A 
ATOM     21  C   UNL     1      21.379   5.033  21.641  0.00  0.00    -0.042 A 
ATOM     22  C   UNL     1      19.544   5.250  20.085  0.00  0.00    +0.012 A 
ATOM     23  C   UNL     1      19.605   6.615  22.078  0.00  0.00    +0.012 A 
ATOM     28  C   UNL     1      20.747   4.651  20.458  0.00  0.00    +0.005 A 
ATOM     29  C   UNL     1      20.808   6.016  22.451  0.00  0.00    +0.005 A 
BRANCH  21  19
ATOM     19  C   UNL     1      22.665   4.391  22.041  0.00  0.00    -0.013 C 
ATOM     25  C   UNL     1      22.449   3.370  23.201  0.00  0.00    +0.015 C 
ATOM     26  C   UNL     1      23.697   5.452  22.535  0.00  0.00    +0.015 C 
ATOM     27  C   UNL     1      23.396   3.593  20.912  0.00  0.00    +0.015 C 
ENDBRANCH  21  19
ENDBRANCH  18  20
ENDBRANCH  12  15
ENDBRANCH   9  12
BRANCH   8  14
ATOM     14  C   UNL     1      12.305   9.974  21.647  0.00  0.00    +0.100 C 
BRANCH  14  16
ATOM      1  S   UNL     1      13.717  13.526  18.470  0.00  0.00    -0.061 S 
ATOM      3  O   UNL     1      11.000  11.975  21.957  0.00  0.00    -0.275 OA
ATOM      6  N   UNL     1      12.675  11.918  20.311  0.00  0.00    -0.265 N 
ATOM      7  N   UNL     1      11.792  14.190  20.063  0.00  0.00    -0.233 NA
ATOM     16  C   UNL     1      11.897  11.405  21.345  0.00  0.00    +0.219 C 
ATOM     24  C   UNL     1      12.606  13.210  19.738  0.00  0.00    +0.164 A 
ATOM     30  C   UNL     1      13.069  15.108  18.330  0.00  0.00    +0.068 A 
ATOM     31  C   UNL     1      12.059  15.277  19.255  0.00  0.00    +0.120 A 
ATOM     33  H   UNL     1      13.387  11.321  19.895  0.00  0.00    +0.157 HD
ENDBRANCH  14  16
ENDBRANCH   8  14
TORSDOF 6
ENDMDL
MODEL 5
REMARK VINA RESULT:      -7.6      4.072      6.538
REMARK  Name = 26743270
REMARK  9 active torsions:
REMARK  status: ('A' for Active; 'I' for Inactive)
REMARK    1  A    between atoms: C_8  and  C_14
REMARK    2  A    between atoms: C_9  and  C_12
REMARK    3  A    between atoms: C_12  and  C_15
REMARK    4  A    between atoms: C_14  and  C_16
REMARK    5  A    between atoms: C_18  and  C_20
REMARK    6  A    between atoms: C_19  and  C_21
REMARK    7  A    between atoms: C_19  and  C_25
REMARK    8  A    between atoms: C_19  and  C_26
REMARK    9  A    between atoms: C_19  and  C_27
REMARK                            x       y       z     vdW  Elec       q    Type
REMARK                         _______ _______ _______ _____ _____    ______ ____
ROOT
ATOM      4  N   UNL     1      17.669   9.487  21.983  0.00  0.00    -0.316 NA
ATOM      8  C   UNL     1      16.452   7.065  20.819  0.00  0.00    +0.004 C 
ATOM      9  C   UNL     1      17.957   7.160  21.165  0.00  0.00    +0.012 C 
ATOM     10  C   UNL     1      15.672   8.063  21.689  0.00  0.00    +0.019 C 
ATOM     11  C   UNL     1      18.460   8.612  21.116  0.00  0.00    +0.085 C 
ATOM     13  C   UNL     1      16.253   9.474  21.622  0.00  0.00    +0.081 C 
ATOM     32  H   UNL     1      18.026  10.440  21.918  0.00  0.00    +0.122 HD
ENDROOT
BRANCH   9  12
ATOM     12  C   UNL     1      18.832   6.260  20.291  0.00  0.00    +0.064 C 
BRANCH  12  15
ATOM      2  O   UNL     1      21.146   5.134  22.810  0.00  0.00    -0.354 OA
ATOM      5  N   UNL     1      20.120   5.958  22.362  0.00  0.00    -0.083 NA
ATOM     15  C   UNL     1      19.894   5.575  21.102  0.00  0.00    +0.085 A 
ATOM     17  C   UNL     1      20.739   4.525  20.704  0.00  0.00    +0.076 A 
ATOM     18  C   UNL     1      21.505   4.285  21.812  0.00  0.00    +0.167 A 
BRANCH  18  20
ATOM     20  C   UNL     1      22.561   3.367  22.129  0.00  0.00    +0.020 A 
ATOM     21  C   UNL     1      24.613   1.580  22.745  0.00  0.00    -0.042 A 
ATOM     22  C   UNL     1      23.087   3.327  23.420  0.00  0.00    +0.012 A 
ATOM     23  C   UNL     1      23.061   2.513  21.145  0.00  0.00    +0.012 A 
ATOM     28  C   UNL     1      24.114   2.434  23.728  0.00  0.00    +0.005 A 
ATOM     29  C   UNL     1      24.086   1.619  21.453  0.00  0.00    +0.005 A 
BRANCH  21  19
ATOM     19  C   UNL     1      25.711   0.625  23.074  0.00  0.00    -0.013 C 
ATOM     25  C   UNL     1      25.430  -0.117  24.417  0.00  0.00    +0.015 C 
ATOM     26  C   UNL     1      27.077   1.363  23.221  0.00  0.00    +0.015 C 
ATOM     27  C   UNL     1      25.958  -0.503  22.018  0.00  0.00    +0.015 C 
ENDBRANCH  21  19
ENDBRANCH  18  20
ENDBRANCH  12  15
ENDBRANCH   9  12
BRANCH   8  14
ATOM     14  C   UNL     1      16.139   7.276  19.332  0.00  0.00    +0.100 C 
BRANCH  14  16
ATOM      1  S   UNL     1      13.073   9.412  16.055  0.00  0.00    -0.061 S 
ATOM      3  O   UNL     1      13.862   6.587  19.708  0.00  0.00    -0.275 OA
ATOM      6  N   UNL     1      14.356   8.082  17.964  0.00  0.00    -0.265 N 
ATOM      7  N   UNL     1      11.926   7.839  17.757  0.00  0.00    -0.233 NA
ATOM     16  C   UNL     1      14.649   7.256  19.046  0.00  0.00    +0.219 C 
ATOM     24  C   UNL     1      13.088   8.334  17.389  0.00  0.00    +0.164 A 
ATOM     30  C   UNL     1      11.373   9.213  15.945  0.00  0.00    +0.068 A 
ATOM     31  C   UNL     1      10.945   8.344  16.928  0.00  0.00    +0.120 A 
ATOM     33  H   UNL     1      15.120   8.578  17.510  0.00  0.00    +0.157 HD
ENDBRANCH  14  16
ENDBRANCH   8  14
TORSDOF 6
ENDMDL
MODEL 6
REMARK VINA RESULT:      -7.1     28.135     32.531
REMARK  Name = 26743270
REMARK  9 active torsions:
REMARK  status: ('A' for Active; 'I' for Inactive)
REMARK    1  A    between atoms: C_8  and  C_14
REMARK    2  A    between atoms: C_9  and  C_12
REMARK    3  A    between atoms: C_12  and  C_15
REMARK    4  A    between atoms: C_14  and  C_16
REMARK    5  A    between atoms: C_18  and  C_20
REMARK    6  A    between atoms: C_19  and  C_21
REMARK    7  A    between atoms: C_19  and  C_25
REMARK    8  A    between atoms: C_19  and  C_26
REMARK    9  A    between atoms: C_19  and  C_27
REMARK                            x       y       z     vdW  Elec       q    Type
REMARK                         _______ _______ _______ _____ _____    ______ ____
ROOT
ATOM      4  N   UNL     1      -3.686 -12.043  18.192  0.00  0.00    -0.316 NA
ATOM      8  C   UNL     1      -6.180 -10.860  17.152  0.00  0.00    +0.004 C 
ATOM      9  C   UNL     1      -6.163 -11.904  18.294  0.00  0.00    +0.012 C 
ATOM     10  C   UNL     1      -4.825 -10.135  17.113  0.00  0.00    +0.019 C 
ATOM     11  C   UNL     1      -4.929 -12.816  18.210  0.00  0.00    +0.085 C 
ATOM     13  C   UNL     1      -3.646 -11.105  17.071  0.00  0.00    +0.081 C 
ATOM     32  H   UNL     1      -2.893 -12.680  18.128  0.00  0.00    +0.122 HD
ENDROOT
BRANCH   9  12
ATOM     12  C   UNL     1      -7.443 -12.737  18.364  0.00  0.00    +0.064 C 
BRANCH  12  15
ATOM      2  O   UNL     1      -9.645 -10.581  20.227  0.00  0.00    -0.354 OA
ATOM      5  N   UNL     1      -8.409 -11.171  19.994  0.00  0.00    -0.083 NA
ATOM     15  C   UNL     1      -8.588 -11.936  18.913  0.00  0.00    +0.085 A 
ATOM     17  C   UNL     1      -9.905 -11.871  18.427  0.00  0.00    +0.076 A 
ATOM     18  C   UNL     1     -10.528 -11.006  19.287  0.00  0.00    +0.167 A 
BRANCH  18  20
ATOM     20  C   UNL     1     -11.857 -10.478  19.399  0.00  0.00    +0.020 A 
ATOM     21  C   UNL     1     -14.440  -9.448  19.618  0.00  0.00    -0.042 A 
ATOM     22  C   UNL     1     -12.432 -10.298  20.657  0.00  0.00    +0.012 A 
ATOM     23  C   UNL     1     -12.573 -10.143  18.249  0.00  0.00    +0.012 A 
ATOM     28  C   UNL     1     -13.724  -9.783  20.766  0.00  0.00    +0.005 A 
ATOM     29  C   UNL     1     -13.865  -9.628  18.359  0.00  0.00    +0.005 A 
BRANCH  21  19
ATOM     19  C   UNL     1     -15.822  -8.899  19.734  0.00  0.00    -0.013 C 
ATOM     25  C   UNL     1     -16.881 -10.043  19.806  0.00  0.00    +0.015 C 
ATOM     26  C   UNL     1     -16.180  -8.004  18.508  0.00  0.00    +0.015 C 
ATOM     27  C   UNL     1     -16.086  -8.007  20.992  0.00  0.00    +0.015 C 
ENDBRANCH  21  19
ENDBRANCH  18  20
ENDBRANCH  12  15
ENDBRANCH   9  12
BRANCH   8  14
ATOM     14  C   UNL     1      -6.526 -11.445  15.777  0.00  0.00    +0.100 C 
BRANCH  14  16
ATOM      1  S   UNL     1      -9.795  -7.946  17.109  0.00  0.00    -0.061 S 
ATOM      3  O   UNL     1      -8.131 -11.054  14.023  0.00  0.00    -0.275 OA
ATOM      6  N   UNL     1      -8.269  -9.833  16.026  0.00  0.00    -0.265 N 
ATOM      7  N   UNL     1     -10.160  -8.937  14.749  0.00  0.00    -0.233 NA
ATOM     16  C   UNL     1      -7.733 -10.772  15.149  0.00  0.00    +0.219 C 
ATOM     24  C   UNL     1      -9.392  -8.998  15.815  0.00  0.00    +0.164 A 
ATOM     30  C   UNL     1     -11.106  -7.346  16.180  0.00  0.00    +0.068 A 
ATOM     31  C   UNL     1     -11.141  -7.989  14.960  0.00  0.00    +0.120 A 
ATOM     33  H   UNL     1      -7.827  -9.706  16.933  0.00  0.00    +0.157 HD
ENDBRANCH  14  16
ENDBRANCH   8  14
TORSDOF 6
ENDMDL
MODEL 7
REMARK VINA RESULT:      -7.1     19.246     22.846
REMARK  Name = 26743270
REMARK  9 active torsions:
REMARK  status: ('A' for Active; 'I' for Inactive)
REMARK    1  A    between atoms: C_8  and  C_14
REMARK    2  A    between atoms: C_9  and  C_12
REMARK    3  A    between atoms: C_12  and  C_15
REMARK    4  A    between atoms: C_14  and  C_16
REMARK    5  A    between atoms: C_18  and  C_20
REMARK    6  A    between atoms: C_19  and  C_21
REMARK    7  A    between atoms: C_19  and  C_25
REMARK    8  A    between atoms: C_19  and  C_26
REMARK    9  A    between atoms: C_19  and  C_27
REMARK                            x       y       z     vdW  Elec       q    Type
REMARK                         _______ _______ _______ _____ _____    ______ ____
ROOT
ATOM      4  N   UNL     1      15.800   3.952   1.094  0.00  0.00    -0.316 NA
ATOM      8  C   UNL     1      13.175   4.242  -0.221  0.00  0.00    +0.004 C 
ATOM      9  C   UNL     1      13.330   4.095   1.312  0.00  0.00    +0.012 C 
ATOM     10  C   UNL     1      14.477   4.814  -0.806  0.00  0.00    +0.019 C 
ATOM     11  C   UNL     1      14.612   3.330   1.681  0.00  0.00    +0.085 C 
ATOM     13  C   UNL     1      15.710   4.028  -0.363  0.00  0.00    +0.081 C 
ATOM     32  H   UNL     1      16.626   3.413   1.354  0.00  0.00    +0.122 HD
ENDROOT
BRANCH   9  12
ATOM     12  C   UNL     1      12.112   3.455   1.979  0.00  0.00    +0.064 C 
BRANCH  12  15
ATOM      2  O   UNL     1      10.036   5.531   4.064  0.00  0.00    -0.354 OA
ATOM      5  N   UNL     1      10.874   4.442   3.859  0.00  0.00    -0.083 NA
ATOM     15  C   UNL     1      11.201   4.495   2.565  0.00  0.00    +0.085 A 
ATOM     17  C   UNL     1      10.604   5.585   1.909  0.00  0.00    +0.076 A 
ATOM     18  C   UNL     1       9.882   6.203   2.895  0.00  0.00    +0.167 A 
BRANCH  18  20
ATOM     20  C   UNL     1       9.037   7.361   2.950  0.00  0.00    +0.020 A 
ATOM     21  C   UNL     1       7.391   9.611   3.058  0.00  0.00    -0.042 A 
ATOM     22  C   UNL     1       8.888   8.171   1.825  0.00  0.00    +0.012 A 
ATOM     23  C   UNL     1       8.362   7.675   4.131  0.00  0.00    +0.012 A 
ATOM     28  C   UNL     1       8.066   9.297   1.879  0.00  0.00    +0.005 A 
ATOM     29  C   UNL     1       7.539   8.800   4.184  0.00  0.00    +0.005 A 
BRANCH  21  19
ATOM     19  C   UNL     1       6.512  10.814   3.116  0.00  0.00    -0.013 C 
ATOM     25  C   UNL     1       6.652  11.551   4.485  0.00  0.00    +0.015 C 
ATOM     26  C   UNL     1       5.011  10.427   2.943  0.00  0.00    +0.015 C 
ATOM     27  C   UNL     1       6.789  11.902   2.027  0.00  0.00    +0.015 C 
ENDBRANCH  21  19
ENDBRANCH  18  20
ENDBRANCH  12  15
ENDBRANCH   9  12
BRANCH   8  14
ATOM     14  C   UNL     1      12.780   2.944  -0.935  0.00  0.00    +0.100 C 
BRANCH  14  16
ATOM      1  S   UNL     1       9.247   6.334  -1.788  0.00  0.00    -0.061 S 
ATOM      3  O   UNL     1      11.512   2.388  -2.907  0.00  0.00    -0.275 OA
ATOM      6  N   UNL     1      10.986   4.327  -1.688  0.00  0.00    -0.265 N 
ATOM      7  N   UNL     1       9.339   4.400  -3.502  0.00  0.00    -0.233 NA
ATOM     16  C   UNL     1      11.693   3.162  -1.972  0.00  0.00    +0.219 C 
ATOM     24  C   UNL     1       9.901   4.876  -2.412  0.00  0.00    +0.164 A 
ATOM     30  C   UNL     1       8.113   6.347  -3.075  0.00  0.00    +0.068 A 
ATOM     31  C   UNL     1       8.315   5.245  -3.880  0.00  0.00    +0.120 A 
ATOM     33  H   UNL     1      11.253   4.871  -0.871  0.00  0.00    +0.157 HD
ENDBRANCH  14  16
ENDBRANCH   8  14
TORSDOF 6
ENDMDL
MODEL 8
REMARK VINA RESULT:      -7.1      4.573      8.115
REMARK  Name = 26743270
REMARK  9 active torsions:
REMARK  status: ('A' for Active; 'I' for Inactive)
REMARK    1  A    between atoms: C_8  and  C_14
REMARK    2  A    between atoms: C_9  and  C_12
REMARK    3  A    between atoms: C_12  and  C_15
REMARK    4  A    between atoms: C_14  and  C_16
REMARK    5  A    between atoms: C_18  and  C_20
REMARK    6  A    between atoms: C_19  and  C_21
REMARK    7  A    between atoms: C_19  and  C_25
REMARK    8  A    between atoms: C_19  and  C_26
REMARK    9  A    between atoms: C_19  and  C_27
REMARK                            x       y       z     vdW  Elec       q    Type
REMARK                         _______ _______ _______ _____ _____    ______ ____
ROOT
ATOM      4  N   UNL     1      21.259   8.719  21.417  0.00  0.00    -0.316 NA
ATOM      8  C   UNL     1      19.063   6.749  21.475  0.00  0.00    +0.004 C 
ATOM      9  C   UNL     1      20.541   6.347  21.252  0.00  0.00    +0.012 C 
ATOM     10  C   UNL     1      19.015   8.086  22.233  0.00  0.00    +0.019 C 
ATOM     11  C   UNL     1      21.351   7.493  20.623  0.00  0.00    +0.085 C 
ATOM     13  C   UNL     1      19.875   9.162  21.573  0.00  0.00    +0.081 C 
ATOM     32  H   UNL     1      21.801   9.455  20.965  0.00  0.00    +0.122 HD
ENDROOT
BRANCH   9  12
ATOM     12  C   UNL     1      20.696   5.066  20.432  0.00  0.00    +0.064 C 
BRANCH  12  15
ATOM      2  O   UNL     1      24.011   3.781  21.001  0.00  0.00    -0.354 OA
ATOM      5  N   UNL     1      23.126   4.701  20.451  0.00  0.00    -0.083 NA
ATOM     15  C   UNL     1      21.916   4.296  20.846  0.00  0.00    +0.085 A 
ATOM     17  C   UNL     1      21.974   3.136  21.639  0.00  0.00    +0.076 A 
ATOM     18  C   UNL     1      23.313   2.855  21.706  0.00  0.00    +0.167 A 
BRANCH  18  20
ATOM     20  C   UNL     1      24.097   1.832  22.336  0.00  0.00    +0.020 A 
ATOM     21  C   UNL     1      25.625  -0.155  23.561  0.00  0.00    -0.042 A 
ATOM     22  C   UNL     1      24.860   0.960  21.560  0.00  0.00    +0.012 A 
ATOM     23  C   UNL     1      24.098   1.712  23.727  0.00  0.00    +0.012 A 
ATOM     28  C   UNL     1      25.623  -0.034  22.172  0.00  0.00    +0.005 A 
ATOM     29  C   UNL     1      24.863   0.718  24.339  0.00  0.00    +0.005 A 
BRANCH  21  19
ATOM     19  C   UNL     1      26.441  -1.217  24.217  0.00  0.00    -0.013 C 
ATOM     25  C   UNL     1      27.387  -0.615  25.302  0.00  0.00    +0.015 C 
ATOM     26  C   UNL     1      27.333  -1.967  23.179  0.00  0.00    +0.015 C 
ATOM     27  C   UNL     1      25.626  -2.334  24.948  0.00  0.00    +0.015 C 
ENDBRANCH  21  19
ENDBRANCH  18  20
ENDBRANCH  12  15
ENDBRANCH   9  12
BRANCH   8  14
ATOM     14  C   UNL     1      18.235   6.822  20.186  0.00  0.00    +0.100 C 
BRANCH  14  16
ATOM      1  S   UNL     1      14.042   7.810  17.707  0.00  0.00    -0.061 S 
ATOM      3  O   UNL     1      16.301   6.238  21.499  0.00  0.00    -0.275 OA
ATOM      6  N   UNL     1      16.023   7.144  19.349  0.00  0.00    -0.265 N 
ATOM      7  N   UNL     1      13.704   6.806  20.066  0.00  0.00    -0.233 NA
ATOM     16  C   UNL     1      16.746   6.690  20.448  0.00  0.00    +0.219 C 
ATOM     24  C   UNL     1      14.616   7.187  19.199  0.00  0.00    +0.164 A 
ATOM     30  C   UNL     1      12.434   7.556  18.249  0.00  0.00    +0.068 A 
ATOM     31  C   UNL     1      12.454   7.019  19.519  0.00  0.00    +0.120 A 
ATOM     33  H   UNL     1      16.533   7.493  18.541  0.00  0.00    +0.157 HD
ENDBRANCH  14  16
ENDBRANCH   8  14
TORSDOF 6
ENDMDL
MODEL 9
REMARK VINA RESULT:      -7.1     32.235     34.783
REMARK  Name = 26743270
REMARK  9 active torsions:
REMARK  status: ('A' for Active; 'I' for Inactive)
REMARK    1  A    between atoms: C_8  and  C_14
REMARK    2  A    between atoms: C_9  and  C_12
REMARK    3  A    between atoms: C_12  and  C_15
REMARK    4  A    between atoms: C_14  and  C_16
REMARK    5  A    between atoms: C_18  and  C_20
REMARK    6  A    between atoms: C_19  and  C_21
REMARK    7  A    between atoms: C_19  and  C_25
REMARK    8  A    between atoms: C_19  and  C_26
REMARK    9  A    between atoms: C_19  and  C_27
REMARK                            x       y       z     vdW  Elec       q    Type
REMARK                         _______ _______ _______ _____ _____    ______ ____
ROOT
ATOM      4  N   UNL     1       4.738 -15.507   1.168  0.00  0.00    -0.316 NA
ATOM      8  C   UNL     1       2.747 -14.104  -0.497  0.00  0.00    +0.004 C 
ATOM      9  C   UNL     1       2.356 -14.954   0.735  0.00  0.00    +0.012 C 
ATOM     10  C   UNL     1       4.198 -13.622  -0.336  0.00  0.00    +0.019 C 
ATOM     11  C   UNL     1       3.390 -16.057   1.015  0.00  0.00    +0.085 C 
ATOM     13  C   UNL     1       5.160 -14.766  -0.019  0.00  0.00    +0.081 C 
ATOM     32  H   UNL     1       5.394 -16.266   1.344  0.00  0.00    +0.122 HD
ENDROOT
BRANCH   9  12
ATOM     12  C   UNL     1       0.951 -15.549   0.631  0.00  0.00    +0.064 C 
BRANCH  12  15
ATOM      2  O   UNL     1      -1.443 -13.137   1.821  0.00  0.00    -0.354 OA
ATOM      5  N   UNL     1      -0.579 -13.639   0.856  0.00  0.00    -0.083 NA
ATOM     15  C   UNL     1      -0.046 -14.735   1.403  0.00  0.00    +0.085 A 
ATOM     17  C   UNL     1      -0.531 -14.972   2.701  0.00  0.00    +0.076 A 
ATOM     18  C   UNL     1      -1.406 -13.940   2.916  0.00  0.00    +0.167 A 
BRANCH  18  20
ATOM     20  C   UNL     1      -2.253 -13.546   4.004  0.00  0.00    +0.020 A 
ATOM     21  C   UNL     1      -3.902 -12.780   6.120  0.00  0.00    -0.042 A 
ATOM     22  C   UNL     1      -3.133 -12.474   3.851  0.00  0.00    +0.012 A 
ATOM     23  C   UNL     1      -2.196 -14.235   5.216  0.00  0.00    +0.012 A 
ATOM     28  C   UNL     1      -3.957 -12.091   4.909  0.00  0.00    +0.005 A 
ATOM     29  C   UNL     1      -3.021 -13.853   6.274  0.00  0.00    +0.005 A 
BRANCH  21  19
ATOM     19  C   UNL     1      -4.782 -12.371   7.252  0.00  0.00    -0.013 C 
ATOM     25  C   UNL     1      -5.032 -10.830   7.245  0.00  0.00    +0.015 C 
ATOM     26  C   UNL     1      -4.142 -12.736   8.627  0.00  0.00    +0.015 C 
ATOM     27  C   UNL     1      -6.204 -13.024   7.268  0.00  0.00    +0.015 C 
ENDBRANCH  21  19
ENDBRANCH  18  20
ENDBRANCH  12  15
ENDBRANCH   9  12
BRANCH   8  14
ATOM     14  C   UNL     1       2.557 -14.825  -1.838  0.00  0.00    +0.100 C 
BRANCH  14  16
ATOM      1  S   UNL     1       3.197 -13.324  -6.533  0.00  0.00    -0.061 S 
ATOM      3  O   UNL     1       0.699 -13.479  -2.573  0.00  0.00    -0.275 OA
ATOM      6  N   UNL     1       2.482 -13.908  -4.041  0.00  0.00    -0.265 N 
ATOM      7  N   UNL     1       1.004 -12.523  -5.421  0.00  0.00    -0.233 NA
ATOM     16  C   UNL     1       1.783 -13.988  -2.840  0.00  0.00    +0.219 C 
ATOM     24  C   UNL     1       2.099 -13.224  -5.219  0.00  0.00    +0.164 A 
ATOM     30  C   UNL     1       2.133 -12.353  -7.464  0.00  0.00    +0.068 A 
ATOM     31  C   UNL     1       1.026 -12.025  -6.709  0.00  0.00    +0.120 A 
ATOM     33  H   UNL     1       3.377 -14.387  -4.116  0.00  0.00    +0.157 HD
ENDBRANCH  14  16
ENDBRANCH   8  14
TORSDOF 6
ENDMDL
MODEL 10
REMARK VINA RESULT:      -7.0     19.386     22.693
REMARK  Name = 26743270
REMARK  9 active torsions:
REMARK  status: ('A' for Active; 'I' for Inactive)
REMARK    1  A    between atoms: C_8  and  C_14
REMARK    2  A    between atoms: C_9  and  C_12
REMARK    3  A    between atoms: C_12  and  C_15
REMARK    4  A    between atoms: C_14  and  C_16
REMARK    5  A    between atoms: C_18  and  C_20
REMARK    6  A    between atoms: C_19  and  C_21
REMARK    7  A    between atoms: C_19  and  C_25
REMARK    8  A    between atoms: C_19  and  C_26
REMARK    9  A    between atoms: C_19  and  C_27
REMARK                            x       y       z     vdW  Elec       q    Type
REMARK                         _______ _______ _______ _____ _____    ______ ____
ROOT
ATOM      4  N   UNL     1       8.629   3.913  -5.192  0.00  0.00    -0.316 NA
ATOM      8  C   UNL     1      10.925   3.869  -3.340  0.00  0.00    +0.004 C 
ATOM      9  C   UNL     1       9.674   4.746  -3.098  0.00  0.00    +0.012 C 
ATOM     10  C   UNL     1      10.540   2.676  -4.231  0.00  0.00    +0.019 C 
ATOM     11  C   UNL     1       8.971   5.107  -4.417  0.00  0.00    +0.085 C 
ATOM     13  C   UNL     1       9.811   3.109  -5.501  0.00  0.00    +0.081 C 
ATOM     32  H   UNL     1       8.174   4.192  -6.060  0.00  0.00    +0.122 HD
ENDROOT
BRANCH   9  12
ATOM     12  C   UNL     1       9.972   6.007  -2.286  0.00  0.00    +0.064 C 
BRANCH  12  15
ATOM      2  O   UNL     1       9.861   4.565   1.012  0.00  0.00    -0.354 OA
ATOM      5  N   UNL     1       9.853   4.467  -0.375  0.00  0.00    -0.083 NA
ATOM     15  C   UNL     1       9.951   5.725  -0.812  0.00  0.00    +0.085 A 
ATOM     17  C   UNL     1      10.024   6.652   0.243  0.00  0.00    +0.076 A 
ATOM     18  C   UNL     1       9.964   5.872   1.367  0.00  0.00    +0.167 A 
BRANCH  18  20
ATOM     20  C   UNL     1       9.985   6.132   2.777  0.00  0.00    +0.020 A 
ATOM     21  C   UNL     1      10.029   6.638   5.520  0.00  0.00    -0.042 A 
ATOM     22  C   UNL     1      10.478   5.168   3.657  0.00  0.00    +0.012 A 
ATOM     23  C   UNL     1       9.514   7.350   3.269  0.00  0.00    +0.012 A 
ATOM     28  C   UNL     1      10.500   5.421   5.029  0.00  0.00    +0.005 A 
ATOM     29  C   UNL     1       9.536   7.603   4.640  0.00  0.00    +0.005 A 
BRANCH  21  19
ATOM     19  C   UNL     1      10.051   6.909   6.987  0.00  0.00    -0.013 C 
ATOM     25  C   UNL     1      11.010   8.092   7.329  0.00  0.00    +0.015 C 
ATOM     26  C   UNL     1      10.541   5.662   7.785  0.00  0.00    +0.015 C 
ATOM     27  C   UNL     1       8.673   7.293   7.620  0.00  0.00    +0.015 C 
ENDBRANCH  21  19
ENDBRANCH  18  20
ENDBRANCH  12  15
ENDBRANCH   9  12
BRANCH   8  14
ATOM     14  C   UNL     1      12.116   4.632  -3.934  0.00  0.00    +0.100 C 
BRANCH  14  16
ATOM      1  S   UNL     1      13.150   3.602   0.817  0.00  0.00    -0.061 S 
ATOM      3  O   UNL     1      14.493   4.667  -3.543  0.00  0.00    -0.275 OA
ATOM      6  N   UNL     1      13.026   4.186  -1.773  0.00  0.00    -0.265 N 
ATOM      7  N   UNL     1      15.213   4.051  -0.676  0.00  0.00    -0.233 NA
ATOM     16  C   UNL     1      13.367   4.504  -3.084  0.00  0.00    +0.219 C 
ATOM     24  C   UNL     1      13.900   3.982  -0.679  0.00  0.00    +0.164 A 
ATOM     30  C   UNL     1      14.701   3.517   1.544  0.00  0.00    +0.068 A 
ATOM     31  C   UNL     1      15.670   3.783   0.599  0.00  0.00    +0.120 A 
ATOM     33  H   UNL     1      12.041   4.080  -1.538  0.00  0.00    +0.157 HD
ENDBRANCH  14  16
ENDBRANCH   8  14
TORSDOF 6
ENDMDL
