MODEL 1
REMARK VINA RESULT:      -6.7      0.000      0.000
REMARK  Name = 11882077
REMARK  9 active torsions:
REMARK  status: ('A' for Active; 'I' for Inactive)
REMARK    1  A    between atoms: N_6  and  C_12
REMARK    2  A    between atoms: N_7  and  C_18
REMARK    3  A    between atoms: N_8  and  C_25
REMARK    4  A    between atoms: C_13  and  C_16
REMARK    5  A    between atoms: C_17  and  C_20
REMARK    6  A    between atoms: C_18  and  C_21
REMARK    7  A    between atoms: C_18  and  C_22
REMARK    8  A    between atoms: C_21  and  C_23
REMARK    9  A    between atoms: C_25  and  C_30
REMARK                            x       y       z     vdW  Elec       q    Type
REMARK                         _______ _______ _______ _____ _____    ______ ____
ROOT
ATOM      2  O   UNL     1      -4.846  -8.436  11.007  0.00  0.00    -0.268 OA
ATOM      5  N   UNL     1      -6.589  -9.794  11.744  0.00  0.00    -0.283 N 
ATOM     12  C   UNL     1      -7.532 -10.232  13.875  0.00  0.00    +0.105 C 
ATOM     13  C   UNL     1      -6.278  -9.718  13.168  0.00  0.00    +0.182 C 
ATOM     14  C   UNL     1      -8.151 -11.187  12.853  0.00  0.00    +0.043 C 
ATOM     15  C   UNL     1      -7.820 -10.547  11.510  0.00  0.00    +0.111 C 
ATOM     17  C   UNL     1      -5.880  -9.065  10.798  0.00  0.00    +0.267 C 
ENDROOT
BRANCH  12   6
ATOM      3  O   UNL     1      -8.660  -9.594  16.454  0.00  0.00    -0.253 OA
ATOM      6  N   UNL     1      -8.436  -9.150  14.185  0.00  0.00    -0.294 N 
ATOM      8  N   UNL     1      -9.782  -7.811  15.482  0.00  0.00    -0.296 N 
ATOM     19  C   UNL     1      -8.934  -8.915  15.466  0.00  0.00    +0.300 C 
ATOM     35  H   UNL     1      -8.673  -8.490  13.451  0.00  0.00    +0.151 HD
ATOM     37  H   UNL     1      -9.935  -7.299  14.619  0.00  0.00    +0.151 HD
BRANCH   8  25
ATOM     25  C   UNL     1     -10.436  -7.346  16.682  0.00  0.00    +0.132 C 
BRANCH  25  30
ATOM     30  C   UNL     1     -11.235  -6.127  16.362  0.00  0.00    -0.016 C 
ATOM     34  C   UNL     1     -12.330  -6.133  15.593  0.00  0.00    +0.005 C 
ENDBRANCH  25  30
ENDBRANCH   8  25
ENDBRANCH  12   6
BRANCH  17  20
ATOM      9  N   UNL     1      -5.957  -9.973   8.581  0.00  0.00    -0.247 NA
ATOM     11  N   UNL     1      -7.853  -8.062   7.796  0.00  0.00    -0.259 NA
ATOM     20  C   UNL     1      -6.420  -9.037   9.432  0.00  0.00    +0.144 A 
ATOM     24  C   UNL     1      -7.351  -8.098   9.047  0.00  0.00    +0.143 A 
ATOM     28  C   UNL     1      -6.459  -9.938   7.331  0.00  0.00    +0.131 A 
ATOM     29  C   UNL     1      -7.390  -8.999   6.945  0.00  0.00    +0.130 A 
ENDBRANCH  17  20
BRANCH  13  16
ATOM      1  O   UNL     1      -4.892 -11.601  12.681  0.00  0.00    -0.274 OA
ATOM      7  N   UNL     1      -4.342 -10.231  14.482  0.00  0.00    -0.302 N 
ATOM     16  C   UNL     1      -5.104 -10.623  13.394  0.00  0.00    +0.236 C 
ATOM     36  H   UNL     1      -4.583  -9.372  14.967  0.00  0.00    +0.150 HD
BRANCH   7  18
ATOM     18  C   UNL     1      -3.169 -10.949  14.925  0.00  0.00    +0.163 C 
BRANCH  18  22
ATOM      4  O   UNL     1      -1.699 -10.357  13.082  0.00  0.00    -0.274 OA
ATOM     10  N   UNL     1      -1.226  -9.531  15.174  0.00  0.00    -0.328 N 
ATOM     22  C   UNL     1      -1.964 -10.279  14.279  0.00  0.00    +0.231 C 
ATOM     38  H   UNL     1      -0.404  -9.020  14.870  0.00  0.00    +0.145 HD
ATOM     39  H   UNL     1      -1.472  -9.457  16.156  0.00  0.00    +0.145 HD
ENDBRANCH  18  22
BRANCH  18  21
ATOM     21  C   UNL     1      -3.028 -10.945  16.451  0.00  0.00    +0.067 C 
BRANCH  21  23
ATOM     23  C   UNL     1      -4.277 -11.419  17.153  0.00  0.00    -0.045 A 
ATOM     26  C   UNL     1      -4.777 -12.696  16.902  0.00  0.00    +0.004 A 
ATOM     27  C   UNL     1      -4.931 -10.579  18.055  0.00  0.00    +0.004 A 
ATOM     31  C   UNL     1      -5.931 -13.133  17.550  0.00  0.00    +0.000 A 
ATOM     32  C   UNL     1      -6.085 -11.016  18.705  0.00  0.00    +0.000 A 
ATOM     33  C   UNL     1      -6.586 -12.295  18.452  0.00  0.00    +0.000 A 
ENDBRANCH  21  23
ENDBRANCH  18  21
ENDBRANCH   7  18
ENDBRANCH  13  16
TORSDOF 9
ENDMDL
MODEL 2
REMARK VINA RESULT:      -6.6     26.551     30.106
REMARK  Name = 11882077
REMARK  9 active torsions:
REMARK  status: ('A' for Active; 'I' for Inactive)
REMARK    1  A    between atoms: N_6  and  C_12
REMARK    2  A    between atoms: N_7  and  C_18
REMARK    3  A    between atoms: N_8  and  C_25
REMARK    4  A    between atoms: C_13  and  C_16
REMARK    5  A    between atoms: C_17  and  C_20
REMARK    6  A    between atoms: C_18  and  C_21
REMARK    7  A    between atoms: C_18  and  C_22
REMARK    8  A    between atoms: C_21  and  C_23
REMARK    9  A    between atoms: C_25  and  C_30
REMARK                            x       y       z     vdW  Elec       q    Type
REMARK                         _______ _______ _______ _____ _____    ______ ____
ROOT
ATOM      2  O   UNL     1      14.204  12.663  21.486  0.00  0.00    -0.268 OA
ATOM      5  N   UNL     1      14.439  10.349  21.609  0.00  0.00    -0.283 N 
ATOM     12  C   UNL     1      16.120   8.836  20.895  0.00  0.00    +0.105 C 
ATOM     13  C   UNL     1      15.552  10.238  20.672  0.00  0.00    +0.182 C 
ATOM     14  C   UNL     1      14.913   8.038  21.392  0.00  0.00    +0.043 C 
ATOM     15  C   UNL     1      14.115   9.052  22.203  0.00  0.00    +0.111 C 
ATOM     17  C   UNL     1      13.923  11.579  21.994  0.00  0.00    +0.267 C 
ENDROOT
BRANCH  12   6
ATOM      3  O   UNL     1      18.602   7.367  20.813  0.00  0.00    -0.253 OA
ATOM      6  N   UNL     1      17.172   8.851  21.882  0.00  0.00    -0.294 N 
ATOM      8  N   UNL     1      19.184   8.305  22.853  0.00  0.00    -0.296 N 
ATOM     19  C   UNL     1      18.344   8.105  21.761  0.00  0.00    +0.300 C 
ATOM     35  H   UNL     1      17.086   9.481  22.674  0.00  0.00    +0.151 HD
ATOM     37  H   UNL     1      18.894   8.950  23.581  0.00  0.00    +0.151 HD
BRANCH   8  25
ATOM     25  C   UNL     1      20.466   7.653  22.982  0.00  0.00    +0.132 C 
BRANCH  25  30
ATOM     30  C   UNL     1      20.608   7.127  24.371  0.00  0.00    -0.016 C 
ATOM     34  C   UNL     1      20.501   7.884  25.470  0.00  0.00    +0.005 C 
ENDBRANCH  25  30
ENDBRANCH   8  25
ENDBRANCH  12   6
BRANCH  17  20
ATOM      9  N   UNL     1      11.669  11.414  22.791  0.00  0.00    -0.247 NA
ATOM     11  N   UNL     1      12.514  11.769  25.441  0.00  0.00    -0.259 NA
ATOM     20  C   UNL     1      12.967  11.586  23.108  0.00  0.00    +0.144 A 
ATOM     24  C   UNL     1      13.382  11.761  24.409  0.00  0.00    +0.143 A 
ATOM     28  C   UNL     1      10.801  11.422  23.821  0.00  0.00    +0.131 A 
ATOM     29  C   UNL     1      11.215  11.597  25.123  0.00  0.00    +0.130 A 
ENDBRANCH  17  20
BRANCH  13  16
ATOM      1  O   UNL     1      15.412  11.194  18.488  0.00  0.00    -0.274 OA
ATOM      7  N   UNL     1      13.888   9.542  19.096  0.00  0.00    -0.302 N 
ATOM     16  C   UNL     1      14.966  10.387  19.300  0.00  0.00    +0.236 C 
ATOM     36  H   UNL     1      13.640   8.877  19.823  0.00  0.00    +0.150 HD
BRANCH   7  18
ATOM     18  C   UNL     1      13.133   9.507  17.864  0.00  0.00    +0.163 C 
BRANCH  18  22
ATOM      4  O   UNL     1      14.066   7.486  16.892  0.00  0.00    -0.274 OA
ATOM     10  N   UNL     1      14.509   9.498  15.877  0.00  0.00    -0.328 N 
ATOM     22  C   UNL     1      13.950   8.708  16.860  0.00  0.00    +0.231 C 
ATOM     38  H   UNL     1      15.068   9.088  15.135  0.00  0.00    +0.145 HD
ATOM     39  H   UNL     1      14.385  10.505  15.850  0.00  0.00    +0.145 HD
ENDBRANCH  18  22
BRANCH  18  21
ATOM     21  C   UNL     1      11.749   8.875  18.050  0.00  0.00    +0.067 C 
BRANCH  21  23
ATOM     23  C   UNL     1      11.603   8.171  19.377  0.00  0.00    -0.045 A 
ATOM     26  C   UNL     1      12.148   6.900  19.556  0.00  0.00    +0.004 A 
ATOM     27  C   UNL     1      10.921   8.791  20.425  0.00  0.00    +0.004 A 
ATOM     31  C   UNL     1      12.011   6.249  20.782  0.00  0.00    +0.000 A 
ATOM     32  C   UNL     1      10.785   8.141  21.651  0.00  0.00    +0.000 A 
ATOM     33  C   UNL     1      11.331   6.869  21.830  0.00  0.00    +0.000 A 
ENDBRANCH  21  23
ENDBRANCH  18  21
ENDBRANCH   7  18
ENDBRANCH  13  16
TORSDOF 9
ENDMDL
MODEL 3
REMARK VINA RESULT:      -6.6     23.874     26.683
REMARK  Name = 11882077
REMARK  9 active torsions:
REMARK  status: ('A' for Active; 'I' for Inactive)
REMARK    1  A    between atoms: N_6  and  C_12
REMARK    2  A    between atoms: N_7  and  C_18
REMARK    3  A    between atoms: N_8  and  C_25
REMARK    4  A    between atoms: C_13  and  C_16
REMARK    5  A    between atoms: C_17  and  C_20
REMARK    6  A    between atoms: C_18  and  C_21
REMARK    7  A    between atoms: C_18  and  C_22
REMARK    8  A    between atoms: C_21  and  C_23
REMARK    9  A    between atoms: C_25  and  C_30
REMARK                            x       y       z     vdW  Elec       q    Type
REMARK                         _______ _______ _______ _____ _____    ______ ____
ROOT
ATOM      2  O   UNL     1      10.935   3.433   3.194  0.00  0.00    -0.268 OA
ATOM      5  N   UNL     1      11.329   5.728   3.204  0.00  0.00    -0.283 N 
ATOM     12  C   UNL     1      12.262   7.221   4.793  0.00  0.00    +0.105 C 
ATOM     13  C   UNL     1      11.601   5.851   4.632  0.00  0.00    +0.182 C 
ATOM     14  C   UNL     1      11.691   8.031   3.628  0.00  0.00    +0.043 C 
ATOM     15  C   UNL     1      11.530   7.003   2.515  0.00  0.00    +0.111 C 
ATOM     17  C   UNL     1      11.102   4.497   2.603  0.00  0.00    +0.267 C 
ENDROOT
BRANCH  12   6
ATOM      3  O   UNL     1      14.203   9.165   5.676  0.00  0.00    -0.253 OA
ATOM      6  N   UNL     1      13.698   7.120   4.699  0.00  0.00    -0.294 N 
ATOM      8  N   UNL     1      15.895   7.760   4.938  0.00  0.00    -0.296 N 
ATOM     19  C   UNL     1      14.565   8.113   5.153  0.00  0.00    +0.300 C 
ATOM     35  H   UNL     1      14.103   6.260   4.342  0.00  0.00    +0.151 HD
ATOM     37  H   UNL     1      16.099   6.860   4.515  0.00  0.00    +0.151 HD
BRANCH   8  25
ATOM     25  C   UNL     1      16.999   8.609   5.315  0.00  0.00    +0.132 C 
BRANCH  25  30
ATOM     30  C   UNL     1      18.074   8.497   4.286  0.00  0.00    -0.016 C 
ATOM     34  C   UNL     1      19.297   8.011   4.534  0.00  0.00    +0.005 C 
ENDBRANCH  25  30
ENDBRANCH   8  25
ENDBRANCH  12   6
BRANCH  17  20
ATOM      9  N   UNL     1      12.203   4.088   0.513  0.00  0.00    -0.247 NA
ATOM     11  N   UNL     1       9.887   4.775  -0.912  0.00  0.00    -0.259 NA
ATOM     20  C   UNL     1      11.068   4.464   1.135  0.00  0.00    +0.144 A 
ATOM     24  C   UNL     1       9.931   4.801   0.436  0.00  0.00    +0.143 A 
ATOM     28  C   UNL     1      12.160   4.062  -0.833  0.00  0.00    +0.131 A 
ATOM     29  C   UNL     1      11.023   4.399  -1.533  0.00  0.00    +0.130 A 
ENDBRANCH  17  20
BRANCH  13  16
ATOM      1  O   UNL     1       9.219   5.695   4.697  0.00  0.00    -0.274 OA
ATOM      7  N   UNL     1      10.391   5.885   6.700  0.00  0.00    -0.302 N 
ATOM     16  C   UNL     1      10.272   5.793   5.323  0.00  0.00    +0.236 C 
ATOM     36  H   UNL     1      11.320   5.909   7.112  0.00  0.00    +0.150 HD
BRANCH   7  18
ATOM     18  C   UNL     1       9.257   5.876   7.594  0.00  0.00    +0.163 C 
BRANCH  18  22
ATOM      4  O   UNL     1       8.990   4.829   9.771  0.00  0.00    -0.274 OA
ATOM     10  N   UNL     1      10.474   3.902   8.281  0.00  0.00    -0.328 N 
ATOM     22  C   UNL     1       9.549   4.847   8.677  0.00  0.00    +0.231 C 
ATOM     38  H   UNL     1      10.748   3.150   8.904  0.00  0.00    +0.145 HD
ATOM     39  H   UNL     1      10.909   3.916   7.364  0.00  0.00    +0.145 HD
ENDBRANCH  18  22
BRANCH  18  21
ATOM     21  C   UNL     1       9.000   7.251   8.220  0.00  0.00    +0.067 C 
BRANCH  21  23
ATOM     23  C   UNL     1       9.104   8.376   7.218  0.00  0.00    -0.045 A 
ATOM     26  C   UNL     1       8.126   8.529   6.236  0.00  0.00    +0.004 A 
ATOM     27  C   UNL     1      10.180   9.263   7.276  0.00  0.00    +0.004 A 
ATOM     31  C   UNL     1       8.224   9.567   5.311  0.00  0.00    +0.000 A 
ATOM     32  C   UNL     1      10.277  10.303   6.351  0.00  0.00    +0.000 A 
ATOM     33  C   UNL     1       9.298  10.455   5.368  0.00  0.00    +0.000 A 
ENDBRANCH  21  23
ENDBRANCH  18  21
ENDBRANCH   7  18
ENDBRANCH  13  16
TORSDOF 9
ENDMDL
MODEL 4
REMARK VINA RESULT:      -6.3     24.905     27.928
REMARK  Name = 11882077
REMARK  9 active torsions:
REMARK  status: ('A' for Active; 'I' for Inactive)
REMARK    1  A    between atoms: N_6  and  C_12
REMARK    2  A    between atoms: N_7  and  C_18
REMARK    3  A    between atoms: N_8  and  C_25
REMARK    4  A    between atoms: C_13  and  C_16
REMARK    5  A    between atoms: C_17  and  C_20
REMARK    6  A    between atoms: C_18  and  C_21
REMARK    7  A    between atoms: C_18  and  C_22
REMARK    8  A    between atoms: C_21  and  C_23
REMARK    9  A    between atoms: C_25  and  C_30
REMARK                            x       y       z     vdW  Elec       q    Type
REMARK                         _______ _______ _______ _____ _____    ______ ____
ROOT
ATOM      2  O   UNL     1      15.697   6.941   3.645  0.00  0.00    -0.268 OA
ATOM      5  N   UNL     1      13.492   7.620   3.968  0.00  0.00    -0.283 N 
ATOM     12  C   UNL     1      11.444   6.455   4.235  0.00  0.00    +0.105 C 
ATOM     13  C   UNL     1      12.871   6.326   3.702  0.00  0.00    +0.182 C 
ATOM     14  C   UNL     1      11.151   7.950   4.111  0.00  0.00    +0.043 C 
ATOM     15  C   UNL     1      12.498   8.610   4.382  0.00  0.00    +0.111 C 
ATOM     17  C   UNL     1      14.871   7.781   3.996  0.00  0.00    +0.267 C 
ENDROOT
BRANCH  12   6
ATOM      3  O   UNL     1       9.445   4.729   5.399  0.00  0.00    -0.253 OA
ATOM      6  N   UNL     1      11.361   6.024   5.610  0.00  0.00    -0.294 N 
ATOM      8  N   UNL     1      10.515   4.931   7.448  0.00  0.00    -0.296 N 
ATOM     19  C   UNL     1      10.355   5.186   6.089  0.00  0.00    +0.300 C 
ATOM     35  H   UNL     1      12.104   6.292   6.249  0.00  0.00    +0.151 HD
ATOM     37  H   UNL     1      11.309   5.337   7.931  0.00  0.00    +0.151 HD
BRANCH   8  25
ATOM     25  C   UNL     1       9.610   4.091   8.197  0.00  0.00    +0.132 C 
BRANCH  25  30
ATOM     30  C   UNL     1       9.076   4.862   9.357  0.00  0.00    -0.016 C 
ATOM     34  C   UNL     1       9.347   4.571  10.635  0.00  0.00    +0.005 C 
ENDBRANCH  25  30
ENDBRANCH   8  25
ENDBRANCH  12   6
BRANCH  17  20
ATOM      9  N   UNL     1      15.580   9.157   5.826  0.00  0.00    -0.247 NA
ATOM     11  N   UNL     1      16.127  11.291   4.091  0.00  0.00    -0.259 NA
ATOM     20  C   UNL     1      15.386   9.062   4.497  0.00  0.00    +0.144 A 
ATOM     24  C   UNL     1      15.654  10.110   3.644  0.00  0.00    +0.143 A 
ATOM     28  C   UNL     1      16.053  10.336   6.274  0.00  0.00    +0.131 A 
ATOM     29  C   UNL     1      16.322  11.385   5.422  0.00  0.00    +0.130 A 
ENDBRANCH  17  20
BRANCH  13  16
ATOM      1  O   UNL     1      12.185   6.817   1.468  0.00  0.00    -0.274 OA
ATOM      7  N   UNL     1      13.764   5.143   1.821  0.00  0.00    -0.302 N 
ATOM     16  C   UNL     1      12.893   6.144   2.214  0.00  0.00    +0.236 C 
ATOM     36  H   UNL     1      14.340   4.687   2.523  0.00  0.00    +0.150 HD
BRANCH   7  18
ATOM     18  C   UNL     1      13.953   4.755   0.441  0.00  0.00    +0.163 C 
BRANCH  18  22
ATOM      4  O   UNL     1      16.011   3.936  -0.555  0.00  0.00    -0.274 OA
ATOM     10  N   UNL     1      16.112   5.776   0.817  0.00  0.00    -0.328 N 
ATOM     22  C   UNL     1      15.452   4.745   0.180  0.00  0.00    +0.231 C 
ATOM     38  H   UNL     1      17.114   5.893   0.715  0.00  0.00    +0.145 HD
ATOM     39  H   UNL     1      15.631   6.452   1.402  0.00  0.00    +0.145 HD
ENDBRANCH  18  22
BRANCH  18  21
ATOM     21  C   UNL     1      13.348   3.380   0.138  0.00  0.00    +0.067 C 
BRANCH  21  23
ATOM     23  C   UNL     1      12.308   3.428  -0.955  0.00  0.00    -0.045 A 
ATOM     26  C   UNL     1      12.349   2.502  -1.998  0.00  0.00    +0.004 A 
ATOM     27  C   UNL     1      11.307   4.398  -0.923  0.00  0.00    +0.004 A 
ATOM     31  C   UNL     1      11.389   2.548  -3.008  0.00  0.00    +0.000 A 
ATOM     32  C   UNL     1      10.345   4.443  -1.932  0.00  0.00    +0.000 A 
ATOM     33  C   UNL     1      10.386   3.517  -2.976  0.00  0.00    +0.000 A 
ENDBRANCH  21  23
ENDBRANCH  18  21
ENDBRANCH   7  18
ENDBRANCH  13  16
TORSDOF 9
ENDMDL
MODEL 5
REMARK VINA RESULT:      -6.2     25.052     27.830
REMARK  Name = 11882077
REMARK  9 active torsions:
REMARK  status: ('A' for Active; 'I' for Inactive)
REMARK    1  A    between atoms: N_6  and  C_12
REMARK    2  A    between atoms: N_7  and  C_18
REMARK    3  A    between atoms: N_8  and  C_25
REMARK    4  A    between atoms: C_13  and  C_16
REMARK    5  A    between atoms: C_17  and  C_20
REMARK    6  A    between atoms: C_18  and  C_21
REMARK    7  A    between atoms: C_18  and  C_22
REMARK    8  A    between atoms: C_21  and  C_23
REMARK    9  A    between atoms: C_25  and  C_30
REMARK                            x       y       z     vdW  Elec       q    Type
REMARK                         _______ _______ _______ _____ _____    ______ ____
ROOT
ATOM      2  O   UNL     1      15.021   6.780   6.826  0.00  0.00    -0.268 OA
ATOM      5  N   UNL     1      13.818   8.670   6.189  0.00  0.00    -0.283 N 
ATOM     12  C   UNL     1      11.999   9.851   7.149  0.00  0.00    +0.105 C 
ATOM     13  C   UNL     1      12.718   8.502   7.134  0.00  0.00    +0.182 C 
ATOM     14  C   UNL     1      12.281  10.420   5.758  0.00  0.00    +0.043 C 
ATOM     15  C   UNL     1      13.682   9.916   5.435  0.00  0.00    +0.111 C 
ATOM     17  C   UNL     1      14.920   7.825   6.187  0.00  0.00    +0.267 C 
ENDROOT
BRANCH  12   6
ATOM      3  O   UNL     1      10.606  10.848   9.471  0.00  0.00    -0.253 OA
ATOM      6  N   UNL     1      12.530  10.712   8.178  0.00  0.00    -0.294 N 
ATOM      8  N   UNL     1      12.537  11.967  10.105  0.00  0.00    -0.296 N 
ATOM     19  C   UNL     1      11.781  11.149   9.270  0.00  0.00    +0.300 C 
ATOM     35  H   UNL     1      13.513  10.965   8.141  0.00  0.00    +0.151 HD
ATOM     37  H   UNL     1      13.507  12.145   9.868  0.00  0.00    +0.151 HD
BRANCH   8  25
ATOM     25  C   UNL     1      12.004  12.556  11.311  0.00  0.00    +0.132 C 
BRANCH  25  30
ATOM     30  C   UNL     1      12.137  14.040  11.228  0.00  0.00    -0.016 C 
ATOM     34  C   UNL     1      13.064  14.668  10.495  0.00  0.00    +0.005 C 
ENDBRANCH  25  30
ENDBRANCH   8  25
ENDBRANCH  12   6
BRANCH  17  20
ATOM      9  N   UNL     1      16.026   7.854   4.061  0.00  0.00    -0.247 NA
ATOM     11  N   UNL     1      18.180   9.295   5.132  0.00  0.00    -0.259 NA
ATOM     20  C   UNL     1      16.065   8.219   5.357  0.00  0.00    +0.144 A 
ATOM     24  C   UNL     1      17.123   8.927   5.883  0.00  0.00    +0.143 A 
ATOM     28  C   UNL     1      17.083   8.221   3.310  0.00  0.00    +0.131 A 
ATOM     29  C   UNL     1      18.141   8.929   3.836  0.00  0.00    +0.130 A 
ENDBRANCH  17  20
BRANCH  13  16
ATOM      1  O   UNL     1      12.062   6.907   5.481  0.00  0.00    -0.274 OA
ATOM      7  N   UNL     1      10.800   7.097   7.429  0.00  0.00    -0.302 N 
ATOM     16  C   UNL     1      11.846   7.415   6.579  0.00  0.00    +0.236 C 
ATOM     36  H   UNL     1      10.752   7.547   8.339  0.00  0.00    +0.150 HD
BRANCH   7  18
ATOM     18  C   UNL     1       9.804   6.097   7.118  0.00  0.00    +0.163 C 
BRANCH  18  22
ATOM      4  O   UNL     1       9.135   5.412   9.350  0.00  0.00    -0.274 OA
ATOM     10  N   UNL     1      10.363   3.948   8.074  0.00  0.00    -0.328 N 
ATOM     22  C   UNL     1       9.731   5.152   8.308  0.00  0.00    +0.231 C 
ATOM     38  H   UNL     1      10.375   3.222   8.782  0.00  0.00    +0.145 HD
ATOM     39  H   UNL     1      10.830   3.739   7.198  0.00  0.00    +0.145 HD
ENDBRANCH  18  22
BRANCH  18  21
ATOM     21  C   UNL     1       8.430   6.715   6.840  0.00  0.00    +0.067 C 
BRANCH  21  23
ATOM     23  C   UNL     1       8.404   7.539   5.575  0.00  0.00    -0.045 A 
ATOM     26  C   UNL     1       8.105   8.900   5.635  0.00  0.00    +0.004 A 
ATOM     27  C   UNL     1       8.680   6.939   4.347  0.00  0.00    +0.004 A 
ATOM     31  C   UNL     1       8.081   9.660   4.466  0.00  0.00    +0.000 A 
ATOM     32  C   UNL     1       8.657   7.699   3.178  0.00  0.00    +0.000 A 
ATOM     33  C   UNL     1       8.358   9.061   3.237  0.00  0.00    +0.000 A 
ENDBRANCH  21  23
ENDBRANCH  18  21
ENDBRANCH   7  18
ENDBRANCH  13  16
TORSDOF 9
ENDMDL
MODEL 6
REMARK VINA RESULT:      -6.0      2.389      6.854
REMARK  Name = 11882077
REMARK  9 active torsions:
REMARK  status: ('A' for Active; 'I' for Inactive)
REMARK    1  A    between atoms: N_6  and  C_12
REMARK    2  A    between atoms: N_7  and  C_18
REMARK    3  A    between atoms: N_8  and  C_25
REMARK    4  A    between atoms: C_13  and  C_16
REMARK    5  A    between atoms: C_17  and  C_20
REMARK    6  A    between atoms: C_18  and  C_21
REMARK    7  A    between atoms: C_18  and  C_22
REMARK    8  A    between atoms: C_21  and  C_23
REMARK    9  A    between atoms: C_25  and  C_30
REMARK                            x       y       z     vdW  Elec       q    Type
REMARK                         _______ _______ _______ _____ _____    ______ ____
ROOT
ATOM      2  O   UNL     1      -5.486  -9.618  15.388  0.00  0.00    -0.268 OA
ATOM      5  N   UNL     1      -6.535 -10.689  13.605  0.00  0.00    -0.283 N 
ATOM     12  C   UNL     1      -8.286 -10.073  12.129  0.00  0.00    +0.105 C 
ATOM     13  C   UNL     1      -7.666  -9.773  13.494  0.00  0.00    +0.182 C 
ATOM     14  C   UNL     1      -7.930 -11.542  11.891  0.00  0.00    +0.043 C 
ATOM     15  C   UNL     1      -6.562 -11.695  12.544  0.00  0.00    +0.111 C 
ATOM     17  C   UNL     1      -5.497 -10.468  14.500  0.00  0.00    +0.267 C 
ENDROOT
BRANCH  12   6
ATOM      3  O   UNL     1      -9.568  -9.193   9.698  0.00  0.00    -0.253 OA
ATOM      6  N   UNL     1      -7.719  -9.232  11.103  0.00  0.00    -0.294 N 
ATOM      8  N   UNL     1      -7.633  -8.044   9.135  0.00  0.00    -0.296 N 
ATOM     19  C   UNL     1      -8.414  -8.855   9.954  0.00  0.00    +0.300 C 
ATOM     35  H   UNL     1      -6.793  -8.843  11.250  0.00  0.00    +0.151 HD
ATOM     37  H   UNL     1      -6.696  -7.801   9.439  0.00  0.00    +0.151 HD
BRANCH   8  25
ATOM     25  C   UNL     1      -8.109  -7.512   7.880  0.00  0.00    +0.132 C 
BRANCH  25  30
ATOM     30  C   UNL     1      -8.425  -6.064   8.053  0.00  0.00    -0.016 C 
ATOM     34  C   UNL     1      -9.606  -5.603   8.480  0.00  0.00    +0.005 C 
ENDBRANCH  25  30
ENDBRANCH   8  25
ENDBRANCH  12   6
BRANCH  17  20
ATOM      9  N   UNL     1      -4.382 -12.550  14.907  0.00  0.00    -0.247 NA
ATOM     11  N   UNL     1      -2.073 -11.641  13.600  0.00  0.00    -0.259 NA
ATOM     20  C   UNL     1      -4.306 -11.318  14.369  0.00  0.00    +0.144 A 
ATOM     24  C   UNL     1      -3.172 -10.871  13.727  0.00  0.00    +0.143 A 
ATOM     28  C   UNL     1      -3.284 -13.321  14.781  0.00  0.00    +0.131 A 
ATOM     29  C   UNL     1      -2.149 -12.875  14.139  0.00  0.00    +0.130 A 
ENDBRANCH  17  20
BRANCH  13  16
ATOM      1  O   UNL     1      -9.303 -11.125  14.588  0.00  0.00    -0.274 OA
ATOM      7  N   UNL     1      -8.577  -9.171  15.625  0.00  0.00    -0.302 N 
ATOM     16  C   UNL     1      -8.600 -10.117  14.615  0.00  0.00    +0.236 C 
ATOM     36  H   UNL     1      -7.915  -8.402  15.565  0.00  0.00    +0.150 HD
BRANCH   7  18
ATOM     18  C   UNL     1      -9.402  -9.257  16.808  0.00  0.00    +0.163 C 
BRANCH  18  22
ATOM      4  O   UNL     1      -9.006 -10.834  18.614  0.00  0.00    -0.274 OA
ATOM     10  N   UNL     1      -7.268  -9.503  17.916  0.00  0.00    -0.328 N 
ATOM     22  C   UNL     1      -8.574  -9.946  17.883  0.00  0.00    +0.231 C 
ATOM     38  H   UNL     1      -6.604  -9.892  18.578  0.00  0.00    +0.145 HD
ATOM     39  H   UNL     1      -6.919  -8.786  17.289  0.00  0.00    +0.145 HD
ENDBRANCH  18  22
BRANCH  18  21
ATOM     21  C   UNL     1      -9.867  -7.879  17.293  0.00  0.00    +0.067 C 
BRANCH  21  23
ATOM     23  C   UNL     1     -11.050  -7.355  16.516  0.00  0.00    -0.045 A 
ATOM     26  C   UNL     1     -10.921  -6.203  15.741  0.00  0.00    +0.004 A 
ATOM     27  C   UNL     1     -12.273  -8.023  16.574  0.00  0.00    +0.004 A 
ATOM     31  C   UNL     1     -12.014  -5.719  15.024  0.00  0.00    +0.000 A 
ATOM     32  C   UNL     1     -13.367  -7.540  15.856  0.00  0.00    +0.000 A 
ATOM     33  C   UNL     1     -13.237  -6.387  15.080  0.00  0.00    +0.000 A 
ENDBRANCH  21  23
ENDBRANCH  18  21
ENDBRANCH   7  18
ENDBRANCH  13  16
TORSDOF 9
ENDMDL
MODEL 7
REMARK VINA RESULT:      -6.0      3.700      6.984
REMARK  Name = 11882077
REMARK  9 active torsions:
REMARK  status: ('A' for Active; 'I' for Inactive)
REMARK    1  A    between atoms: N_6  and  C_12
REMARK    2  A    between atoms: N_7  and  C_18
REMARK    3  A    between atoms: N_8  and  C_25
REMARK    4  A    between atoms: C_13  and  C_16
REMARK    5  A    between atoms: C_17  and  C_20
REMARK    6  A    between atoms: C_18  and  C_21
REMARK    7  A    between atoms: C_18  and  C_22
REMARK    8  A    between atoms: C_21  and  C_23
REMARK    9  A    between atoms: C_25  and  C_30
REMARK                            x       y       z     vdW  Elec       q    Type
REMARK                         _______ _______ _______ _____ _____    ______ ____
ROOT
ATOM      2  O   UNL     1      -6.306 -13.521  14.827  0.00  0.00    -0.268 OA
ATOM      5  N   UNL     1      -5.507 -12.745  16.873  0.00  0.00    -0.283 N 
ATOM     12  C   UNL     1      -6.147 -10.973  18.312  0.00  0.00    +0.105 C 
ATOM     13  C   UNL     1      -6.230 -11.478  16.872  0.00  0.00    +0.182 C 
ATOM     14  C   UNL     1      -4.845 -11.587  18.831  0.00  0.00    +0.043 C 
ATOM     15  C   UNL     1      -4.772 -12.934  18.123  0.00  0.00    +0.111 C 
ATOM     17  C   UNL     1      -5.686 -13.693  15.874  0.00  0.00    +0.267 C 
ENDROOT
BRANCH  12   6
ATOM      3  O   UNL     1      -8.842  -9.945  18.221  0.00  0.00    -0.253 OA
ATOM      6  N   UNL     1      -7.277 -11.424  19.089  0.00  0.00    -0.294 N 
ATOM      8  N   UNL     1      -9.449 -11.489  19.842  0.00  0.00    -0.296 N 
ATOM     19  C   UNL     1      -8.550 -10.867  18.980  0.00  0.00    +0.300 C 
ATOM     35  H   UNL     1      -7.157 -12.227  19.699  0.00  0.00    +0.151 HD
ATOM     37  H   UNL     1      -9.120 -12.257  20.419  0.00  0.00    +0.151 HD
BRANCH   8  25
ATOM     25  C   UNL     1     -10.838 -11.107  19.931  0.00  0.00    +0.132 C 
BRANCH  25  30
ATOM     30  C   UNL     1     -11.610 -12.217  20.561  0.00  0.00    -0.016 C 
ATOM     34  C   UNL     1     -11.807 -13.409  19.985  0.00  0.00    +0.005 C 
ENDBRANCH  25  30
ENDBRANCH   8  25
ENDBRANCH  12   6
BRANCH  17  20
ATOM      9  N   UNL     1      -3.855 -15.214  15.591  0.00  0.00    -0.247 NA
ATOM     11  N   UNL     1      -5.228 -17.224  16.984  0.00  0.00    -0.259 NA
ATOM     20  C   UNL     1      -5.090 -15.018  16.093  0.00  0.00    +0.144 A 
ATOM     24  C   UNL     1      -5.764 -16.004  16.777  0.00  0.00    +0.143 A 
ATOM     28  C   UNL     1      -3.318 -16.433  15.798  0.00  0.00    +0.131 A 
ATOM     29  C   UNL     1      -3.992 -17.420  16.482  0.00  0.00    +0.130 A 
ENDBRANCH  17  20
BRANCH  13  16
ATOM      1  O   UNL     1      -5.967  -9.496  15.564  0.00  0.00    -0.274 OA
ATOM      7  N   UNL     1      -4.290 -11.112  15.515  0.00  0.00    -0.302 N 
ATOM     16  C   UNL     1      -5.499 -10.574  15.925  0.00  0.00    +0.236 C 
ATOM     36  H   UNL     1      -3.979 -11.990  15.921  0.00  0.00    +0.150 HD
BRANCH   7  18
ATOM     18  C   UNL     1      -3.405 -10.449  14.585  0.00  0.00    +0.163 C 
BRANCH  18  22
ATOM      4  O   UNL     1      -1.075  -9.785  14.774  0.00  0.00    -0.274 OA
ATOM     10  N   UNL     1      -1.962 -11.152  16.394  0.00  0.00    -0.328 N 
ATOM     22  C   UNL     1      -2.023 -10.422  15.224  0.00  0.00    +0.231 C 
ATOM     38  H   UNL     1      -1.101 -11.206  16.928  0.00  0.00    +0.145 HD
ATOM     39  H   UNL     1      -2.762 -11.654  16.766  0.00  0.00    +0.145 HD
ENDBRANCH  18  22
BRANCH  18  21
ATOM     21  C   UNL     1      -3.352 -11.159  13.228  0.00  0.00    +0.067 C 
BRANCH  21  23
ATOM     23  C   UNL     1      -3.781 -10.269  12.087  0.00  0.00    -0.045 A 
ATOM     26  C   UNL     1      -5.059  -9.712  12.079  0.00  0.00    +0.004 A 
ATOM     27  C   UNL     1      -2.898 -10.005  11.039  0.00  0.00    +0.004 A 
ATOM     31  C   UNL     1      -5.455  -8.891  11.024  0.00  0.00    +0.000 A 
ATOM     32  C   UNL     1      -3.294  -9.183   9.985  0.00  0.00    +0.000 A 
ATOM     33  C   UNL     1      -4.573  -8.625   9.977  0.00  0.00    +0.000 A 
ENDBRANCH  21  23
ENDBRANCH  18  21
ENDBRANCH   7  18
ENDBRANCH  13  16
TORSDOF 9
ENDMDL
MODEL 8
REMARK VINA RESULT:      -5.9     25.422     28.358
REMARK  Name = 11882077
REMARK  9 active torsions:
REMARK  status: ('A' for Active; 'I' for Inactive)
REMARK    1  A    between atoms: N_6  and  C_12
REMARK    2  A    between atoms: N_7  and  C_18
REMARK    3  A    between atoms: N_8  and  C_25
REMARK    4  A    between atoms: C_13  and  C_16
REMARK    5  A    between atoms: C_17  and  C_20
REMARK    6  A    between atoms: C_18  and  C_21
REMARK    7  A    between atoms: C_18  and  C_22
REMARK    8  A    between atoms: C_21  and  C_23
REMARK    9  A    between atoms: C_25  and  C_30
REMARK                            x       y       z     vdW  Elec       q    Type
REMARK                         _______ _______ _______ _____ _____    ______ ____
ROOT
ATOM      2  O   UNL     1      16.504   8.291   4.964  0.00  0.00    -0.268 OA
ATOM      5  N   UNL     1      14.207   8.544   4.672  0.00  0.00    -0.283 N 
ATOM     12  C   UNL     1      12.404   7.015   4.489  0.00  0.00    +0.105 C 
ATOM     13  C   UNL     1      13.919   7.151   4.345  0.00  0.00    +0.182 C 
ATOM     14  C   UNL     1      11.889   8.425   4.196  0.00  0.00    +0.043 C 
ATOM     15  C   UNL     1      12.978   9.333   4.754  0.00  0.00    +0.111 C 
ATOM     17  C   UNL     1      15.479   8.965   5.038  0.00  0.00    +0.267 C 
ENDROOT
BRANCH  12   6
ATOM      3  O   UNL     1      10.209   5.299   5.244  0.00  0.00    -0.253 OA
ATOM      6  N   UNL     1      12.043   6.600   5.824  0.00  0.00    -0.294 N 
ATOM      8  N   UNL     1      10.840   5.528   7.464  0.00  0.00    -0.296 N 
ATOM     19  C   UNL     1      10.961   5.766   6.098  0.00  0.00    +0.300 C 
ATOM     35  H   UNL     1      12.641   6.877   6.597  0.00  0.00    +0.151 HD
ATOM     37  H   UNL     1      11.520   5.941   8.094  0.00  0.00    +0.151 HD
BRANCH   8  25
ATOM     25  C   UNL     1       9.802   4.695   8.024  0.00  0.00    +0.132 C 
BRANCH  25  30
ATOM     30  C   UNL     1       9.809   4.837   9.509  0.00  0.00    -0.016 C 
ATOM     34  C   UNL     1       8.725   4.685  10.279  0.00  0.00    +0.005 C 
ENDBRANCH  25  30
ENDBRANCH   8  25
ENDBRANCH  12   6
BRANCH  17  20
ATOM      9  N   UNL     1      15.193  10.527   6.833  0.00  0.00    -0.247 NA
ATOM     11  N   UNL     1      16.248  12.606   5.274  0.00  0.00    -0.259 NA
ATOM     20  C   UNL     1      15.607  10.329   5.566  0.00  0.00    +0.144 A 
ATOM     24  C   UNL     1      16.125  11.350   4.800  0.00  0.00    +0.143 A 
ATOM     28  C   UNL     1      15.315  11.783   7.307  0.00  0.00    +0.131 A 
ATOM     29  C   UNL     1      15.833  12.804   6.541  0.00  0.00    +0.130 A 
ENDBRANCH  17  20
BRANCH  13  16
ATOM      1  O   UNL     1      14.944   7.831   2.297  0.00  0.00    -0.274 OA
ATOM      7  N   UNL     1      14.015   5.701   2.441  0.00  0.00    -0.302 N 
ATOM     16  C   UNL     1      14.361   6.950   2.926  0.00  0.00    +0.236 C 
ATOM     36  H   UNL     1      13.580   5.032   3.070  0.00  0.00    +0.150 HD
BRANCH   7  18
ATOM     18  C   UNL     1      14.306   5.267   1.094  0.00  0.00    +0.163 C 
BRANCH  18  22
ATOM      4  O   UNL     1      14.865   3.057   1.935  0.00  0.00    -0.274 OA
ATOM     10  N   UNL     1      16.230   4.006   0.350  0.00  0.00    -0.328 N 
ATOM     22  C   UNL     1      15.145   4.001   1.202  0.00  0.00    +0.231 C 
ATOM     38  H   UNL     1      16.865   3.215   0.311  0.00  0.00    +0.145 HD
ATOM     39  H   UNL     1      16.435   4.785  -0.269  0.00  0.00    +0.145 HD
ENDBRANCH  18  22
BRANCH  18  21
ATOM     21  C   UNL     1      13.034   4.996   0.284  0.00  0.00    +0.067 C 
BRANCH  21  23
ATOM     23  C   UNL     1      11.929   5.978   0.586  0.00  0.00    -0.045 A 
ATOM     26  C   UNL     1      10.859   5.598   1.396  0.00  0.00    +0.004 A 
ATOM     27  C   UNL     1      11.977   7.268   0.056  0.00  0.00    +0.004 A 
ATOM     31  C   UNL     1       9.838   6.506   1.674  0.00  0.00    +0.000 A 
ATOM     32  C   UNL     1      10.957   8.176   0.336  0.00  0.00    +0.000 A 
ATOM     33  C   UNL     1       9.886   7.795   1.145  0.00  0.00    +0.000 A 
ENDBRANCH  21  23
ENDBRANCH  18  21
ENDBRANCH   7  18
ENDBRANCH  13  16
TORSDOF 9
ENDMDL
MODEL 9
REMARK VINA RESULT:      -5.9      2.881      6.752
REMARK  Name = 11882077
REMARK  9 active torsions:
REMARK  status: ('A' for Active; 'I' for Inactive)
REMARK    1  A    between atoms: N_6  and  C_12
REMARK    2  A    between atoms: N_7  and  C_18
REMARK    3  A    between atoms: N_8  and  C_25
REMARK    4  A    between atoms: C_13  and  C_16
REMARK    5  A    between atoms: C_17  and  C_20
REMARK    6  A    between atoms: C_18  and  C_21
REMARK    7  A    between atoms: C_18  and  C_22
REMARK    8  A    between atoms: C_21  and  C_23
REMARK    9  A    between atoms: C_25  and  C_30
REMARK                            x       y       z     vdW  Elec       q    Type
REMARK                         _______ _______ _______ _____ _____    ______ ____
ROOT
ATOM      2  O   UNL     1      -6.151 -13.496  13.864  0.00  0.00    -0.268 OA
ATOM      5  N   UNL     1      -5.179 -12.076  15.434  0.00  0.00    -0.283 N 
ATOM     12  C   UNL     1      -5.775  -9.954  16.310  0.00  0.00    +0.105 C 
ATOM     13  C   UNL     1      -5.987 -10.900  15.127  0.00  0.00    +0.182 C 
ATOM     14  C   UNL     1      -4.381 -10.327  16.819  0.00  0.00    +0.043 C 
ATOM     15  C   UNL     1      -4.293 -11.828  16.571  0.00  0.00    +0.111 C 
ATOM     17  C   UNL     1      -5.403 -13.301  14.820  0.00  0.00    +0.267 C 
ENDROOT
BRANCH  12   6
ATOM      3  O   UNL     1      -8.492  -8.982  16.315  0.00  0.00    -0.253 OA
ATOM      6  N   UNL     1      -6.772 -10.166  17.331  0.00  0.00    -0.294 N 
ATOM      8  N   UNL     1      -8.818 -10.009  18.370  0.00  0.00    -0.296 N 
ATOM     19  C   UNL     1      -8.067  -9.656  17.252  0.00  0.00    +0.300 C 
ATOM     35  H   UNL     1      -6.542 -10.766  18.118  0.00  0.00    +0.151 HD
ATOM     37  H   UNL     1      -8.387 -10.585  19.086  0.00  0.00    +0.151 HD
BRANCH   8  25
ATOM     25  C   UNL     1     -10.195  -9.610  18.544  0.00  0.00    +0.132 C 
BRANCH  25  30
ATOM     30  C   UNL     1     -10.760 -10.314  19.732  0.00  0.00    -0.016 C 
ATOM     34  C   UNL     1     -11.915  -9.979  20.319  0.00  0.00    +0.005 C 
ENDBRANCH  25  30
ENDBRANCH   8  25
ENDBRANCH  12   6
BRANCH  17  20
ATOM      9  N   UNL     1      -3.597 -14.872  14.694  0.00  0.00    -0.247 NA
ATOM     11  N   UNL     1      -4.484 -16.171  17.016  0.00  0.00    -0.259 NA
ATOM     20  C   UNL     1      -4.692 -14.464  15.365  0.00  0.00    +0.144 A 
ATOM     24  C   UNL     1      -5.127 -15.102  16.505  0.00  0.00    +0.143 A 
ATOM     28  C   UNL     1      -2.953 -15.940  15.204  0.00  0.00    +0.131 A 
ATOM     29  C   UNL     1      -3.388 -16.578  16.344  0.00  0.00    +0.130 A 
ENDBRANCH  17  20
BRANCH  13  16
ATOM      1  O   UNL     1      -6.066  -9.512  13.185  0.00  0.00    -0.274 OA
ATOM      7  N   UNL     1      -4.190 -10.844  13.545  0.00  0.00    -0.302 N 
ATOM     16  C   UNL     1      -5.437 -10.328  13.855  0.00  0.00    +0.236 C 
ATOM     36  H   UNL     1      -3.741 -11.476  14.202  0.00  0.00    +0.150 HD
BRANCH   7  18
ATOM     18  C   UNL     1      -3.453 -10.472  12.359  0.00  0.00    +0.163 C 
BRANCH  18  22
ATOM      4  O   UNL     1      -1.098  -9.986  12.012  0.00  0.00    -0.274 OA
ATOM     10  N   UNL     1      -1.899 -10.058  14.164  0.00  0.00    -0.328 N 
ATOM     22  C   UNL     1      -2.028 -10.165  12.794  0.00  0.00    +0.231 C 
ATOM     38  H   UNL     1      -1.003  -9.842  14.587  0.00  0.00    +0.145 HD
ATOM     39  H   UNL     1      -2.683 -10.185  14.797  0.00  0.00    +0.145 HD
ENDBRANCH  18  22
BRANCH  18  21
ATOM     21  C   UNL     1      -3.461 -11.581  11.300  0.00  0.00    +0.067 C 
BRANCH  21  23
ATOM     23  C   UNL     1      -4.024 -11.121   9.977  0.00  0.00    -0.045 A 
ATOM     26  C   UNL     1      -4.252  -9.764   9.750  0.00  0.00    +0.004 A 
ATOM     27  C   UNL     1      -4.316 -12.054   8.982  0.00  0.00    +0.004 A 
ATOM     31  C   UNL     1      -4.773  -9.341   8.528  0.00  0.00    +0.000 A 
ATOM     32  C   UNL     1      -4.835 -11.630   7.759  0.00  0.00    +0.000 A 
ATOM     33  C   UNL     1      -5.064 -10.272   7.532  0.00  0.00    +0.000 A 
ENDBRANCH  21  23
ENDBRANCH  18  21
ENDBRANCH   7  18
ENDBRANCH  13  16
TORSDOF 9
ENDMDL
MODEL 10
REMARK VINA RESULT:      -5.8     25.937     29.463
REMARK  Name = 11882077
REMARK  9 active torsions:
REMARK  status: ('A' for Active; 'I' for Inactive)
REMARK    1  A    between atoms: N_6  and  C_12
REMARK    2  A    between atoms: N_7  and  C_18
REMARK    3  A    between atoms: N_8  and  C_25
REMARK    4  A    between atoms: C_13  and  C_16
REMARK    5  A    between atoms: C_17  and  C_20
REMARK    6  A    between atoms: C_18  and  C_21
REMARK    7  A    between atoms: C_18  and  C_22
REMARK    8  A    between atoms: C_21  and  C_23
REMARK    9  A    between atoms: C_25  and  C_30
REMARK                            x       y       z     vdW  Elec       q    Type
REMARK                         _______ _______ _______ _____ _____    ______ ____
ROOT
ATOM      2  O   UNL     1      15.911  -5.915  -3.208  0.00  0.00    -0.268 OA
ATOM      5  N   UNL     1      17.037  -7.910  -3.632  0.00  0.00    -0.283 N 
ATOM     12  C   UNL     1      18.162  -9.478  -2.253  0.00  0.00    +0.105 C 
ATOM     13  C   UNL     1      17.674  -8.031  -2.324  0.00  0.00    +0.182 C 
ATOM     14  C   UNL     1      18.399  -9.846  -3.718  0.00  0.00    +0.043 C 
ATOM     15  C   UNL     1      17.317  -9.077  -4.467  0.00  0.00    +0.111 C 
ATOM     17  C   UNL     1      16.138  -6.892  -3.919  0.00  0.00    +0.267 C 
ENDROOT
BRANCH  12   6
ATOM      3  O   UNL     1      18.530 -11.315  -0.058  0.00  0.00    -0.253 OA
ATOM      6  N   UNL     1      17.164 -10.335  -1.660  0.00  0.00    -0.294 N 
ATOM      8  N   UNL     1      16.293 -11.905  -0.222  0.00  0.00    -0.296 N 
ATOM     19  C   UNL     1      17.431 -11.196  -0.597  0.00  0.00    +0.300 C 
ATOM     35  H   UNL     1      16.205 -10.265  -1.988  0.00  0.00    +0.151 HD
ATOM     37  H   UNL     1      15.423 -11.727  -0.714  0.00  0.00    +0.151 HD
BRANCH   8  25
ATOM     25  C   UNL     1      16.290 -12.867   0.854  0.00  0.00    +0.132 C 
BRANCH  25  30
ATOM     30  C   UNL     1      15.456 -12.343   1.975  0.00  0.00    -0.016 C 
ATOM     34  C   UNL     1      15.137 -13.053   3.063  0.00  0.00    +0.005 C 
ENDBRANCH  25  30
ENDBRANCH   8  25
ENDBRANCH  12   6
BRANCH  17  20
ATOM      9  N   UNL     1      15.944  -6.428  -6.263  0.00  0.00    -0.247 NA
ATOM     11  N   UNL     1      13.473  -7.748  -6.383  0.00  0.00    -0.259 NA
ATOM     20  C   UNL     1      15.386  -6.997  -5.176  0.00  0.00    +0.144 A 
ATOM     24  C   UNL     1      14.172  -7.645  -5.235  0.00  0.00    +0.143 A 
ATOM     28  C   UNL     1      15.245  -6.531  -7.410  0.00  0.00    +0.131 A 
ATOM     29  C   UNL     1      14.031  -7.179  -7.470  0.00  0.00    +0.130 A 
ENDBRANCH  17  20
BRANCH  13  16
ATOM      1  O   UNL     1      19.755  -7.158  -3.107  0.00  0.00    -0.274 OA
ATOM      7  N   UNL     1      18.684  -6.098  -1.332  0.00  0.00    -0.302 N 
ATOM     16  C   UNL     1      18.817  -7.060  -2.319  0.00  0.00    +0.236 C 
ATOM     36  H   UNL     1      17.837  -6.083  -0.771  0.00  0.00    +0.150 HD
BRANCH   7  18
ATOM     18  C   UNL     1      19.662  -5.060  -1.102  0.00  0.00    +0.163 C 
BRANCH  18  22
ATOM      4  O   UNL     1      19.854  -3.260  -2.723  0.00  0.00    -0.274 OA
ATOM     10  N   UNL     1      17.915  -3.438  -1.504  0.00  0.00    -0.328 N 
ATOM     22  C   UNL     1      19.191  -3.825  -1.858  0.00  0.00    +0.231 C 
ATOM     38  H   UNL     1      17.474  -2.637  -1.944  0.00  0.00    +0.145 HD
ATOM     39  H   UNL     1      17.369  -3.931  -0.805  0.00  0.00    +0.145 HD
ENDBRANCH  18  22
BRANCH  18  21
ATOM     21  C   UNL     1      19.831  -4.742   0.387  0.00  0.00    +0.067 C 
BRANCH  21  23
ATOM     23  C   UNL     1      21.217  -5.055   0.897  0.00  0.00    -0.045 A 
ATOM     26  C   UNL     1      21.551  -4.781   2.223  0.00  0.00    +0.004 A 
ATOM     27  C   UNL     1      22.164  -5.618   0.041  0.00  0.00    +0.004 A 
ATOM     31  C   UNL     1      22.832  -5.070   2.693  0.00  0.00    +0.000 A 
ATOM     32  C   UNL     1      23.445  -5.908   0.512  0.00  0.00    +0.000 A 
ATOM     33  C   UNL     1      23.779  -5.634   1.839  0.00  0.00    +0.000 A 
ENDBRANCH  21  23
ENDBRANCH  18  21
ENDBRANCH   7  18
ENDBRANCH  13  16
TORSDOF 9
ENDMDL
