MODEL 1
REMARK VINA RESULT:      -6.9      0.000      0.000
REMARK  Name = 38029110
REMARK  15 active torsions:
REMARK  status: ('A' for Active; 'I' for Inactive)
REMARK    1  A    between atoms: S_1  and  N_6
REMARK    2  A    between atoms: S_1  and  C_22
REMARK    3  A    between atoms: O_5  and  C_32
REMARK    4  A    between atoms: O_5  and  C_35
REMARK    5  A    between atoms: N_6  and  C_16
REMARK    6  A    between atoms: N_7  and  C_23
REMARK    7  A    between atoms: N_7  and  C_24
REMARK    8  A    between atoms: C_9  and  C_13
REMARK    9  A    between atoms: C_10  and  C_16
REMARK   10  A    between atoms: C_12  and  C_17
REMARK   11  A    between atoms: C_13  and  C_18
REMARK   12  A    between atoms: C_13  and  C_19
REMARK   13  A    between atoms: C_14  and  C_20
REMARK   14  A    between atoms: C_17  and  C_21
REMARK   15  A    between atoms: C_23  and  C_25
REMARK                            x       y       z     vdW  Elec       q    Type
REMARK                         _______ _______ _______ _____ _____    ______ ____
ROOT
ATOM      9  C   UNL     1      16.781   7.564  20.621  0.00  0.00    +0.000 C 
ATOM     10  C   UNL     1      15.525   7.247  21.472  0.00  0.00    +0.030 C 
ATOM     11  C   UNL     1      17.675   8.582  21.343  0.00  0.00    +0.012 C 
ATOM     12  C   UNL     1      16.937   9.903  21.635  0.00  0.00    +0.023 C 
ATOM     14  C   UNL     1      15.566   9.661  22.233  0.00  0.00    -0.073 C 
ATOM     15  C   UNL     1      14.957   8.464  22.163  0.00  0.00    -0.023 C 
ATOM     20  C   UNL     1      14.929  10.816  22.956  0.00  0.00    +0.039 C 
ENDROOT
BRANCH   9  13
ATOM     13  C   UNL     1      17.586   6.300  20.303  0.00  0.00    -0.013 C 
ATOM     18  C   UNL     1      17.393   5.900  18.844  0.00  0.00    +0.007 C 
ATOM     19  C   UNL     1      19.064   6.519  20.613  0.00  0.00    +0.007 C 
ENDBRANCH   9  13
BRANCH  10  16
ATOM     16  C   UNL     1      14.434   6.584  20.622  0.00  0.00    +0.113 C 
BRANCH  16   6
ATOM      6  N   UNL     1      13.212   6.449  21.431  0.00  0.00    -0.189 NA
ATOM     36  H   UNL     1      13.223   5.741  22.174  0.00  0.00    +0.148 HD
BRANCH   6   1
ATOM      1  S   UNL     1      11.701   6.887  20.777  0.00  0.00    +0.058 S 
ATOM      3  O   UNL     1      10.657   6.119  21.429  0.00  0.00    -0.153 OA
ATOM      4  O   UNL     1      11.796   6.905  19.329  0.00  0.00    -0.153 OA
BRANCH   1  22
ATOM     22  C   UNL     1      11.553   8.567  21.306  0.00  0.00    +0.105 A 
ATOM     26  C   UNL     1      11.980   9.600  20.473  0.00  0.00    +0.032 A 
ATOM     27  C   UNL     1      11.008   8.858  22.557  0.00  0.00    +0.032 A 
ATOM     28  C   UNL     1      11.863  10.926  20.891  0.00  0.00    +0.047 A 
ATOM     29  C   UNL     1      10.892  10.184  22.974  0.00  0.00    +0.047 A 
ATOM     32  C   UNL     1      11.319  11.219  22.141  0.00  0.00    +0.120 A 
BRANCH  32   5
ATOM      5  O   UNL     1      11.206  12.512  22.549  0.00  0.00    -0.495 OA
ATOM     35  C   UNL     1      11.536  12.795  23.907  0.00  0.00    +0.277 C 
ENDBRANCH  32   5
ENDBRANCH   1  22
ENDBRANCH   6   1
ENDBRANCH  16   6
ENDBRANCH  10  16
BRANCH  12  17
ATOM     17  C   UNL     1      16.840  10.770  20.375  0.00  0.00    +0.103 C 
BRANCH  17  21
ATOM      2  O   UNL     1      19.090  11.441  20.861  0.00  0.00    -0.276 OA
ATOM      7  N   UNL     1      18.055  12.474  19.061  0.00  0.00    -0.300 N 
ATOM     21  C   UNL     1      18.101  11.582  20.136  0.00  0.00    +0.216 C 
ATOM     24  C   UNL     1      16.874  12.624  18.218  0.00  0.00    +0.132 C 
BRANCH   7  23
ATOM     23  C   UNL     1      19.186  13.326  18.701  0.00  0.00    +0.144 C 
BRANCH  23  25
ATOM      8  N   UNL     1      22.262  11.456  17.543  0.00  0.00    -0.263 NA
ATOM     25  C   UNL     1      20.158  12.619  17.802  0.00  0.00    -0.012 A 
ATOM     30  C   UNL     1      19.899  12.466  16.445  0.00  0.00    +0.008 A 
ATOM     31  C   UNL     1      21.344  12.100  18.297  0.00  0.00    +0.115 A 
ATOM     33  C   UNL     1      20.819  11.808  15.636  0.00  0.00    +0.020 A 
ATOM     34  C   UNL     1      21.974  11.326  16.229  0.00  0.00    +0.111 A 
ENDBRANCH  23  25
ENDBRANCH   7  23
ENDBRANCH  17  21
ENDBRANCH  12  17
TORSDOF 10
ENDMDL
MODEL 2
REMARK VINA RESULT:      -6.8      3.371      5.791
REMARK  Name = 38029110
REMARK  15 active torsions:
REMARK  status: ('A' for Active; 'I' for Inactive)
REMARK    1  A    between atoms: S_1  and  N_6
REMARK    2  A    between atoms: S_1  and  C_22
REMARK    3  A    between atoms: O_5  and  C_32
REMARK    4  A    between atoms: O_5  and  C_35
REMARK    5  A    between atoms: N_6  and  C_16
REMARK    6  A    between atoms: N_7  and  C_23
REMARK    7  A    between atoms: N_7  and  C_24
REMARK    8  A    between atoms: C_9  and  C_13
REMARK    9  A    between atoms: C_10  and  C_16
REMARK   10  A    between atoms: C_12  and  C_17
REMARK   11  A    between atoms: C_13  and  C_18
REMARK   12  A    between atoms: C_13  and  C_19
REMARK   13  A    between atoms: C_14  and  C_20
REMARK   14  A    between atoms: C_17  and  C_21
REMARK   15  A    between atoms: C_23  and  C_25
REMARK                            x       y       z     vdW  Elec       q    Type
REMARK                         _______ _______ _______ _____ _____    ______ ____
ROOT
ATOM      9  C   UNL     1      16.211   9.273  21.663  0.00  0.00    +0.000 C 
ATOM     10  C   UNL     1      15.494   8.074  20.992  0.00  0.00    +0.030 C 
ATOM     11  C   UNL     1      17.552   9.551  20.968  0.00  0.00    +0.012 C 
ATOM     12  C   UNL     1      18.495   8.333  21.010  0.00  0.00    +0.023 C 
ATOM     14  C   UNL     1      17.781   7.056  20.617  0.00  0.00    -0.073 C 
ATOM     15  C   UNL     1      16.440   6.963  20.601  0.00  0.00    -0.023 C 
ATOM     20  C   UNL     1      18.646   5.899  20.196  0.00  0.00    +0.039 C 
ENDROOT
BRANCH   9  13
ATOM     13  C   UNL     1      15.345  10.536  21.644  0.00  0.00    -0.013 C 
ATOM     18  C   UNL     1      14.979  10.950  23.066  0.00  0.00    +0.007 C 
ATOM     19  C   UNL     1      16.070  11.667  20.921  0.00  0.00    +0.007 C 
ENDBRANCH   9  13
BRANCH  10  16
ATOM     16  C   UNL     1      14.391   7.512  21.898  0.00  0.00    +0.113 C 
BRANCH  16   6
ATOM      6  N   UNL     1      13.664   6.457  21.173  0.00  0.00    -0.189 NA
ATOM     36  H   UNL     1      14.231   5.730  20.722  0.00  0.00    +0.148 HD
BRANCH   6   1
ATOM      1  S   UNL     1      12.119   6.772  20.529  0.00  0.00    +0.058 S 
ATOM      3  O   UNL     1      11.159   5.859  21.123  0.00  0.00    -0.153 OA
ATOM      4  O   UNL     1      12.219   6.887  19.087  0.00  0.00    -0.153 OA
BRANCH   1  22
ATOM     22  C   UNL     1      11.790   8.391  21.156  0.00  0.00    +0.105 A 
ATOM     26  C   UNL     1      11.211   8.548  22.414  0.00  0.00    +0.032 A 
ATOM     27  C   UNL     1      12.110   9.513  20.390  0.00  0.00    +0.032 A 
ATOM     28  C   UNL     1      10.951   9.826  22.908  0.00  0.00    +0.047 A 
ATOM     29  C   UNL     1      11.850  10.791  20.885  0.00  0.00    +0.047 A 
ATOM     32  C   UNL     1      11.271  10.948  22.144  0.00  0.00    +0.120 A 
BRANCH  32   5
ATOM      5  O   UNL     1      11.017  12.195  22.626  0.00  0.00    -0.495 OA
ATOM     35  C   UNL     1      11.417  12.465  23.968  0.00  0.00    +0.277 C 
ENDBRANCH  32   5
ENDBRANCH   1  22
ENDBRANCH   6   1
ENDBRANCH  16   6
ENDBRANCH  10  16
BRANCH  12  17
ATOM     17  C   UNL     1      19.153   8.192  22.387  0.00  0.00    +0.103 C 
BRANCH  17  21
ATOM      2  O   UNL     1      21.209   7.798  21.219  0.00  0.00    -0.276 OA
ATOM      7  N   UNL     1      21.168   7.267  23.477  0.00  0.00    -0.300 N 
ATOM     21  C   UNL     1      20.599   7.740  22.291  0.00  0.00    +0.216 C 
ATOM     24  C   UNL     1      20.427   7.208  24.731  0.00  0.00    +0.132 C 
BRANCH   7  23
ATOM     23  C   UNL     1      22.549   6.796  23.549  0.00  0.00    +0.144 C 
BRANCH  23  25
ATOM      8  N   UNL     1      23.203   3.308  24.854  0.00  0.00    -0.263 NA
ATOM     25  C   UNL     1      22.630   5.298  23.607  0.00  0.00    -0.012 A 
ATOM     30  C   UNL     1      22.235   4.516  22.528  0.00  0.00    +0.008 A 
ATOM     31  C   UNL     1      23.103   4.651  24.737  0.00  0.00    +0.115 A 
ATOM     33  C   UNL     1      22.323   3.131  22.610  0.00  0.00    +0.020 A 
ATOM     34  C   UNL     1      22.809   2.581  23.785  0.00  0.00    +0.111 A 
ENDBRANCH  23  25
ENDBRANCH   7  23
ENDBRANCH  17  21
ENDBRANCH  12  17
TORSDOF 10
ENDMDL
MODEL 3
REMARK VINA RESULT:      -6.6     16.951     18.818
REMARK  Name = 38029110
REMARK  15 active torsions:
REMARK  status: ('A' for Active; 'I' for Inactive)
REMARK    1  A    between atoms: S_1  and  N_6
REMARK    2  A    between atoms: S_1  and  C_22
REMARK    3  A    between atoms: O_5  and  C_32
REMARK    4  A    between atoms: O_5  and  C_35
REMARK    5  A    between atoms: N_6  and  C_16
REMARK    6  A    between atoms: N_7  and  C_23
REMARK    7  A    between atoms: N_7  and  C_24
REMARK    8  A    between atoms: C_9  and  C_13
REMARK    9  A    between atoms: C_10  and  C_16
REMARK   10  A    between atoms: C_12  and  C_17
REMARK   11  A    between atoms: C_13  and  C_18
REMARK   12  A    between atoms: C_13  and  C_19
REMARK   13  A    between atoms: C_14  and  C_20
REMARK   14  A    between atoms: C_17  and  C_21
REMARK   15  A    between atoms: C_23  and  C_25
REMARK                            x       y       z     vdW  Elec       q    Type
REMARK                         _______ _______ _______ _____ _____    ______ ____
ROOT
ATOM      9  C   UNL     1       9.600   8.277   2.239  0.00  0.00    +0.000 C 
ATOM     10  C   UNL     1       8.630   8.356   3.446  0.00  0.00    +0.030 C 
ATOM     11  C   UNL     1       9.654   6.845   1.687  0.00  0.00    +0.012 C 
ATOM     12  C   UNL     1      10.114   5.828   2.749  0.00  0.00    +0.023 C 
ATOM     14  C   UNL     1       9.387   6.021   4.065  0.00  0.00    -0.073 C 
ATOM     15  C   UNL     1       8.718   7.151   4.353  0.00  0.00    -0.023 C 
ATOM     20  C   UNL     1       9.407   4.863   5.025  0.00  0.00    +0.039 C 
ENDROOT
BRANCH   9  13
ATOM     13  C   UNL     1       9.198   9.248   1.123  0.00  0.00    -0.013 C 
ATOM     18  C   UNL     1      10.287  10.295   0.913  0.00  0.00    +0.007 C 
ATOM     19  C   UNL     1       8.922   8.487  -0.170  0.00  0.00    +0.007 C 
ENDBRANCH   9  13
BRANCH  10  16
ATOM     16  C   UNL     1       8.869   9.630   4.264  0.00  0.00    +0.113 C 
BRANCH  16   6
ATOM      6  N   UNL     1      10.228   9.591   4.829  0.00  0.00    -0.189 NA
ATOM     36  H   UNL     1      10.906   8.978   4.363  0.00  0.00    +0.148 HD
BRANCH   6   1
ATOM      1  S   UNL     1      10.480   9.946   6.476  0.00  0.00    +0.058 S 
ATOM      3  O   UNL     1       9.380  10.756   6.964  0.00  0.00    -0.153 OA
ATOM      4  O   UNL     1      11.850  10.387   6.663  0.00  0.00    -0.153 OA
BRANCH   1  22
ATOM     22  C   UNL     1      10.347   8.345   7.214  0.00  0.00    +0.105 A 
ATOM     26  C   UNL     1       9.172   7.974   7.866  0.00  0.00    +0.032 A 
ATOM     27  C   UNL     1      11.418   7.454   7.143  0.00  0.00    +0.032 A 
ATOM     28  C   UNL     1       9.068   6.710   8.448  0.00  0.00    +0.047 A 
ATOM     29  C   UNL     1      11.313   6.191   7.725  0.00  0.00    +0.047 A 
ATOM     32  C   UNL     1      10.138   5.819   8.378  0.00  0.00    +0.120 A 
BRANCH  32   5
ATOM      5  O   UNL     1      10.036   4.586   8.947  0.00  0.00    -0.495 OA
ATOM     35  C   UNL     1       9.175   4.464  10.078  0.00  0.00    +0.277 C 
ENDBRANCH  32   5
ENDBRANCH   1  22
ENDBRANCH   6   1
ENDBRANCH  16   6
ENDBRANCH  10  16
BRANCH  12  17
ATOM     17  C   UNL     1      11.633   5.888   2.949  0.00  0.00    +0.103 C 
BRANCH  17  21
ATOM      2  O   UNL     1      11.919   3.567   2.424  0.00  0.00    -0.276 OA
ATOM      7  N   UNL     1      13.489   5.038   1.557  0.00  0.00    -0.300 N 
ATOM     21  C   UNL     1      12.345   4.718   2.295  0.00  0.00    +0.216 C 
ATOM     24  C   UNL     1      13.973   6.407   1.420  0.00  0.00    +0.132 C 
BRANCH   7  23
ATOM     23  C   UNL     1      14.285   4.026   0.868  0.00  0.00    +0.144 C 
BRANCH  23  25
ATOM      8  N   UNL     1      14.228   4.332  -2.900  0.00  0.00    -0.263 NA
ATOM     25  C   UNL     1      13.858   3.850  -0.560  0.00  0.00    -0.012 A 
ATOM     30  C   UNL     1      12.744   3.086  -0.887  0.00  0.00    +0.008 A 
ATOM     31  C   UNL     1      14.560   4.448  -1.595  0.00  0.00    +0.115 A 
ATOM     33  C   UNL     1      12.371   2.943  -2.219  0.00  0.00    +0.020 A 
ATOM     34  C   UNL     1      13.139   3.581  -3.179  0.00  0.00    +0.111 A 
ENDBRANCH  23  25
ENDBRANCH   7  23
ENDBRANCH  17  21
ENDBRANCH  12  17
TORSDOF 10
ENDMDL
MODEL 4
REMARK VINA RESULT:      -6.5     29.187     31.893
REMARK  Name = 38029110
REMARK  15 active torsions:
REMARK  status: ('A' for Active; 'I' for Inactive)
REMARK    1  A    between atoms: S_1  and  N_6
REMARK    2  A    between atoms: S_1  and  C_22
REMARK    3  A    between atoms: O_5  and  C_32
REMARK    4  A    between atoms: O_5  and  C_35
REMARK    5  A    between atoms: N_6  and  C_16
REMARK    6  A    between atoms: N_7  and  C_23
REMARK    7  A    between atoms: N_7  and  C_24
REMARK    8  A    between atoms: C_9  and  C_13
REMARK    9  A    between atoms: C_10  and  C_16
REMARK   10  A    between atoms: C_12  and  C_17
REMARK   11  A    between atoms: C_13  and  C_18
REMARK   12  A    between atoms: C_13  and  C_19
REMARK   13  A    between atoms: C_14  and  C_20
REMARK   14  A    between atoms: C_17  and  C_21
REMARK   15  A    between atoms: C_23  and  C_25
REMARK                            x       y       z     vdW  Elec       q    Type
REMARK                         _______ _______ _______ _____ _____    ______ ____
ROOT
ATOM      9  C   UNL     1      -6.048 -11.299  14.999  0.00  0.00    +0.000 C 
ATOM     10  C   UNL     1      -4.694 -11.484  15.730  0.00  0.00    +0.030 C 
ATOM     11  C   UNL     1      -6.828 -10.123  15.605  0.00  0.00    +0.012 C 
ATOM     12  C   UNL     1      -7.109 -10.321  17.107  0.00  0.00    +0.023 C 
ATOM     14  C   UNL     1      -5.870 -10.770  17.855  0.00  0.00    -0.073 C 
ATOM     15  C   UNL     1      -4.796 -11.274  17.222  0.00  0.00    -0.023 C 
ATOM     20  C   UNL     1      -5.876 -10.582  19.348  0.00  0.00    +0.039 C 
ENDROOT
BRANCH   9  13
ATOM     13  C   UNL     1      -5.856 -11.075  13.495  0.00  0.00    -0.013 C 
ATOM     18  C   UNL     1      -6.856 -11.909  12.701  0.00  0.00    +0.007 C 
ATOM     19  C   UNL     1      -5.997  -9.594  13.156  0.00  0.00    +0.007 C 
ENDBRANCH   9  13
BRANCH  10  16
ATOM     16  C   UNL     1      -4.099 -12.869  15.448  0.00  0.00    +0.113 C 
BRANCH  16   6
ATOM      6  N   UNL     1      -2.709 -12.710  14.989  0.00  0.00    -0.189 NA
ATOM     36  H   UNL     1      -2.226 -11.847  15.263  0.00  0.00    +0.148 HD
BRANCH   6   1
ATOM      1  S   UNL     1      -2.179 -13.500  13.576  0.00  0.00    +0.058 S 
ATOM      3  O   UNL     1      -2.954 -14.712  13.387  0.00  0.00    -0.153 OA
ATOM      4  O   UNL     1      -0.730 -13.553  13.576  0.00  0.00    -0.153 OA
BRANCH   1  22
ATOM     22  C   UNL     1      -2.654 -12.350  12.320  0.00  0.00    +0.105 A 
ATOM     26  C   UNL     1      -3.445 -12.771  11.252  0.00  0.00    +0.032 A 
ATOM     27  C   UNL     1      -2.237 -11.021  12.399  0.00  0.00    +0.032 A 
ATOM     28  C   UNL     1      -3.820 -11.862  10.261  0.00  0.00    +0.047 A 
ATOM     29  C   UNL     1      -2.611 -10.114  11.408  0.00  0.00    +0.047 A 
ATOM     32  C   UNL     1      -3.403 -10.534  10.339  0.00  0.00    +0.120 A 
BRANCH  32   5
ATOM      5  O   UNL     1      -3.768  -9.648   9.372  0.00  0.00    -0.495 OA
ATOM     35  C   UNL     1      -4.665  -8.607   9.752  0.00  0.00    +0.277 C 
ENDBRANCH  32   5
ENDBRANCH   1  22
ENDBRANCH   6   1
ENDBRANCH  16   6
ENDBRANCH  10  16
BRANCH  12  17
ATOM     17  C   UNL     1      -8.267 -11.300  17.327  0.00  0.00    +0.103 C 
BRANCH  17  21
ATOM      2  O   UNL     1      -9.538 -10.270  19.080  0.00  0.00    -0.276 OA
ATOM      7  N   UNL     1     -10.550 -10.414  16.998  0.00  0.00    -0.300 N 
ATOM     21  C   UNL     1      -9.497 -10.616  17.896  0.00  0.00    +0.216 C 
ATOM     24  C   UNL     1     -10.479 -10.831  15.603  0.00  0.00    +0.132 C 
BRANCH   7  23
ATOM     23  C   UNL     1     -11.801  -9.769  17.391  0.00  0.00    +0.144 C 
BRANCH  23  25
ATOM      8  N   UNL     1     -13.316  -6.953  15.373  0.00  0.00    -0.263 NA
ATOM     25  C   UNL     1     -11.972  -8.428  16.737  0.00  0.00    -0.012 A 
ATOM     30  C   UNL     1     -11.002  -7.441  16.861  0.00  0.00    +0.008 A 
ATOM     31  C   UNL     1     -13.101  -8.137  15.988  0.00  0.00    +0.115 A 
ATOM     33  C   UNL     1     -11.187  -6.209  16.243  0.00  0.00    +0.020 A 
ATOM     34  C   UNL     1     -12.351  -6.018  15.517  0.00  0.00    +0.111 A 
ENDBRANCH  23  25
ENDBRANCH   7  23
ENDBRANCH  17  21
ENDBRANCH  12  17
TORSDOF 10
ENDMDL
MODEL 5
REMARK VINA RESULT:      -6.5      3.955      6.661
REMARK  Name = 38029110
REMARK  15 active torsions:
REMARK  status: ('A' for Active; 'I' for Inactive)
REMARK    1  A    between atoms: S_1  and  N_6
REMARK    2  A    between atoms: S_1  and  C_22
REMARK    3  A    between atoms: O_5  and  C_32
REMARK    4  A    between atoms: O_5  and  C_35
REMARK    5  A    between atoms: N_6  and  C_16
REMARK    6  A    between atoms: N_7  and  C_23
REMARK    7  A    between atoms: N_7  and  C_24
REMARK    8  A    between atoms: C_9  and  C_13
REMARK    9  A    between atoms: C_10  and  C_16
REMARK   10  A    between atoms: C_12  and  C_17
REMARK   11  A    between atoms: C_13  and  C_18
REMARK   12  A    between atoms: C_13  and  C_19
REMARK   13  A    between atoms: C_14  and  C_20
REMARK   14  A    between atoms: C_17  and  C_21
REMARK   15  A    between atoms: C_23  and  C_25
REMARK                            x       y       z     vdW  Elec       q    Type
REMARK                         _______ _______ _______ _____ _____    ______ ____
ROOT
ATOM      9  C   UNL     1      16.677   9.204  21.629  0.00  0.00    +0.000 C 
ATOM     10  C   UNL     1      16.143   7.871  21.045  0.00  0.00    +0.030 C 
ATOM     11  C   UNL     1      18.039   9.553  21.011  0.00  0.00    +0.012 C 
ATOM     12  C   UNL     1      19.091   8.455  21.260  0.00  0.00    +0.023 C 
ATOM     14  C   UNL     1      18.544   7.074  20.959  0.00  0.00    -0.073 C 
ATOM     15  C   UNL     1      17.225   6.835  20.853  0.00  0.00    -0.023 C 
ATOM     20  C   UNL     1      19.553   5.980  20.736  0.00  0.00    +0.039 C 
ENDROOT
BRANCH   9  13
ATOM     13  C   UNL     1      15.694  10.357  21.405  0.00  0.00    -0.013 C 
ATOM     18  C   UNL     1      16.255  11.654  21.980  0.00  0.00    +0.007 C 
ATOM     19  C   UNL     1      15.388  10.513  19.918  0.00  0.00    +0.007 C 
ENDBRANCH   9  13
BRANCH  10  16
ATOM     16  C   UNL     1      15.028   7.290  21.922  0.00  0.00    +0.113 C 
BRANCH  16   6
ATOM      6  N   UNL     1      14.080   6.554  21.070  0.00  0.00    -0.189 NA
ATOM     36  H   UNL     1      14.475   5.850  20.437  0.00  0.00    +0.148 HD
BRANCH   6   1
ATOM      1  S   UNL     1      12.591   7.262  20.638  0.00  0.00    +0.058 S 
ATOM      3  O   UNL     1      12.323   8.384  21.517  0.00  0.00    -0.153 OA
ATOM      4  O   UNL     1      11.600   6.216  20.467  0.00  0.00    -0.153 OA
BRANCH   1  22
ATOM     22  C   UNL     1      12.950   7.902  19.030  0.00  0.00    +0.105 A 
ATOM     26  C   UNL     1      12.233   8.992  18.538  0.00  0.00    +0.032 A 
ATOM     27  C   UNL     1      13.951   7.316  18.254  0.00  0.00    +0.032 A 
ATOM     28  C   UNL     1      12.517   9.497  17.268  0.00  0.00    +0.047 A 
ATOM     29  C   UNL     1      14.234   7.822  16.985  0.00  0.00    +0.047 A 
ATOM     32  C   UNL     1      13.517   8.912  16.492  0.00  0.00    +0.120 A 
BRANCH  32   5
ATOM      5  O   UNL     1      13.793   9.405  15.253  0.00  0.00    -0.495 OA
ATOM     35  C   UNL     1      14.845  10.364  15.157  0.00  0.00    +0.277 C 
ENDBRANCH  32   5
ENDBRANCH   1  22
ENDBRANCH   6   1
ENDBRANCH  16   6
ENDBRANCH  10  16
BRANCH  12  17
ATOM     17  C   UNL     1      19.637   8.528  22.690  0.00  0.00    +0.103 C 
BRANCH  17  21
ATOM      2  O   UNL     1      21.868   8.225  21.866  0.00  0.00    -0.276 OA
ATOM      7  N   UNL     1      21.398   7.350  23.962  0.00  0.00    -0.300 N 
ATOM     21  C   UNL     1      21.068   8.029  22.785  0.00  0.00    +0.216 C 
ATOM     24  C   UNL     1      20.434   7.129  25.034  0.00  0.00    +0.132 C 
BRANCH   7  23
ATOM     23  C   UNL     1      22.733   6.808  24.206  0.00  0.00    +0.144 C 
BRANCH  23  25
ATOM      8  N   UNL     1      22.198   3.263  23.004  0.00  0.00    -0.263 NA
ATOM     25  C   UNL     1      22.745   5.307  24.173  0.00  0.00    -0.012 A 
ATOM     30  C   UNL     1      23.281   4.571  25.223  0.00  0.00    +0.008 A 
ATOM     31  C   UNL     1      22.220   4.611  23.095  0.00  0.00    +0.115 A 
ATOM     33  C   UNL     1      23.276   3.182  25.165  0.00  0.00    +0.020 A 
ATOM     34  C   UNL     1      22.728   2.582  24.044  0.00  0.00    +0.111 A 
ENDBRANCH  23  25
ENDBRANCH   7  23
ENDBRANCH  17  21
ENDBRANCH  12  17
TORSDOF 10
ENDMDL
MODEL 6
REMARK VINA RESULT:      -6.3     14.894     17.230
REMARK  Name = 38029110
REMARK  15 active torsions:
REMARK  status: ('A' for Active; 'I' for Inactive)
REMARK    1  A    between atoms: S_1  and  N_6
REMARK    2  A    between atoms: S_1  and  C_22
REMARK    3  A    between atoms: O_5  and  C_32
REMARK    4  A    between atoms: O_5  and  C_35
REMARK    5  A    between atoms: N_6  and  C_16
REMARK    6  A    between atoms: N_7  and  C_23
REMARK    7  A    between atoms: N_7  and  C_24
REMARK    8  A    between atoms: C_9  and  C_13
REMARK    9  A    between atoms: C_10  and  C_16
REMARK   10  A    between atoms: C_12  and  C_17
REMARK   11  A    between atoms: C_13  and  C_18
REMARK   12  A    between atoms: C_13  and  C_19
REMARK   13  A    between atoms: C_14  and  C_20
REMARK   14  A    between atoms: C_17  and  C_21
REMARK   15  A    between atoms: C_23  and  C_25
REMARK                            x       y       z     vdW  Elec       q    Type
REMARK                         _______ _______ _______ _____ _____    ______ ____
ROOT
ATOM      9  C   UNL     1       8.969   8.402   5.779  0.00  0.00    +0.000 C 
ATOM     10  C   UNL     1       8.663   8.416   7.298  0.00  0.00    +0.030 C 
ATOM     11  C   UNL     1       8.653   7.024   5.181  0.00  0.00    +0.012 C 
ATOM     12  C   UNL     1       9.463   5.898   5.852  0.00  0.00    +0.023 C 
ATOM     14  C   UNL     1       9.429   6.004   7.363  0.00  0.00    -0.073 C 
ATOM     15  C   UNL     1       9.056   7.133   7.992  0.00  0.00    -0.023 C 
ATOM     20  C   UNL     1       9.790   4.766   8.137  0.00  0.00    +0.039 C 
ENDROOT
BRANCH   9  13
ATOM     13  C   UNL     1       8.185   9.485   5.031  0.00  0.00    -0.013 C 
ATOM     18  C   UNL     1       9.135  10.540   4.472  0.00  0.00    +0.007 C 
ATOM     19  C   UNL     1       7.350   8.863   3.916  0.00  0.00    +0.007 C 
ENDBRANCH   9  13
BRANCH  10  16
ATOM     16  C   UNL     1       9.348   9.601   7.990  0.00  0.00    +0.113 C 
BRANCH  16   6
ATOM      6  N   UNL     1      10.806   9.401   7.955  0.00  0.00    -0.189 NA
ATOM     36  H   UNL     1      11.171   8.567   8.431  0.00  0.00    +0.148 HD
BRANCH   6   1
ATOM      1  S   UNL     1      11.849  10.736   7.784  0.00  0.00    +0.058 S 
ATOM      3  O   UNL     1      12.189  11.248   9.099  0.00  0.00    -0.153 OA
ATOM      4  O   UNL     1      11.319  11.628   6.770  0.00  0.00    -0.153 OA
BRANCH   1  22
ATOM     22  C   UNL     1      13.294   9.980   7.103  0.00  0.00    +0.105 A 
ATOM     26  C   UNL     1      13.312   8.608   6.856  0.00  0.00    +0.032 A 
ATOM     27  C   UNL     1      14.417  10.756   6.814  0.00  0.00    +0.032 A 
ATOM     28  C   UNL     1      14.453   8.012   6.318  0.00  0.00    +0.047 A 
ATOM     29  C   UNL     1      15.557  10.159   6.277  0.00  0.00    +0.047 A 
ATOM     32  C   UNL     1      15.575   8.787   6.028  0.00  0.00    +0.120 A 
BRANCH  32   5
ATOM      5  O   UNL     1      16.689   8.204   5.505  0.00  0.00    -0.495 OA
ATOM     35  C   UNL     1      17.875   8.996   5.462  0.00  0.00    +0.277 C 
ENDBRANCH  32   5
ENDBRANCH   1  22
ENDBRANCH   6   1
ENDBRANCH  16   6
ENDBRANCH  10  16
BRANCH  12  17
ATOM     17  C   UNL     1      10.906   5.873   5.336  0.00  0.00    +0.103 C 
BRANCH  17  21
ATOM      2  O   UNL     1      10.621   4.128   3.717  0.00  0.00    -0.276 OA
ATOM      7  N   UNL     1      11.560   6.111   2.965  0.00  0.00    -0.300 N 
ATOM     21  C   UNL     1      11.008   5.277   3.943  0.00  0.00    +0.216 C 
ATOM     24  C   UNL     1      12.010   7.467   3.257  0.00  0.00    +0.132 C 
BRANCH   7  23
ATOM     23  C   UNL     1      11.726   5.686   1.577  0.00  0.00    +0.144 C 
BRANCH  23  25
ATOM      8  N   UNL     1      14.507   3.126   1.507  0.00  0.00    -0.263 NA
ATOM     25  C   UNL     1      13.071   5.063   1.338  0.00  0.00    -0.012 A 
ATOM     30  C   UNL     1      14.105   5.788   0.758  0.00  0.00    +0.008 A 
ATOM     31  C   UNL     1      13.321   3.746   1.692  0.00  0.00    +0.115 A 
ATOM     33  C   UNL     1      15.340   5.183   0.550  0.00  0.00    +0.020 A 
ATOM     34  C   UNL     1      15.488   3.862   0.939  0.00  0.00    +0.111 A 
ENDBRANCH  23  25
ENDBRANCH   7  23
ENDBRANCH  17  21
ENDBRANCH  12  17
TORSDOF 10
ENDMDL
MODEL 7
REMARK VINA RESULT:      -6.3     29.051     32.285
REMARK  Name = 38029110
REMARK  15 active torsions:
REMARK  status: ('A' for Active; 'I' for Inactive)
REMARK    1  A    between atoms: S_1  and  N_6
REMARK    2  A    between atoms: S_1  and  C_22
REMARK    3  A    between atoms: O_5  and  C_32
REMARK    4  A    between atoms: O_5  and  C_35
REMARK    5  A    between atoms: N_6  and  C_16
REMARK    6  A    between atoms: N_7  and  C_23
REMARK    7  A    between atoms: N_7  and  C_24
REMARK    8  A    between atoms: C_9  and  C_13
REMARK    9  A    between atoms: C_10  and  C_16
REMARK   10  A    between atoms: C_12  and  C_17
REMARK   11  A    between atoms: C_13  and  C_18
REMARK   12  A    between atoms: C_13  and  C_19
REMARK   13  A    between atoms: C_14  and  C_20
REMARK   14  A    between atoms: C_17  and  C_21
REMARK   15  A    between atoms: C_23  and  C_25
REMARK                            x       y       z     vdW  Elec       q    Type
REMARK                         _______ _______ _______ _____ _____    ______ ____
ROOT
ATOM      9  C   UNL     1      -7.486 -10.274  16.194  0.00  0.00    +0.000 C 
ATOM     10  C   UNL     1      -6.576  -9.933  14.987  0.00  0.00    +0.030 C 
ATOM     11  C   UNL     1      -6.808  -9.864  17.509  0.00  0.00    +0.012 C 
ATOM     12  C   UNL     1      -5.451 -10.566  17.709  0.00  0.00    +0.023 C 
ATOM     14  C   UNL     1      -4.597 -10.505  16.459  0.00  0.00    -0.073 C 
ATOM     15  C   UNL     1      -5.114 -10.207  15.254  0.00  0.00    -0.023 C 
ATOM     20  C   UNL     1      -3.123 -10.749  16.634  0.00  0.00    +0.039 C 
ENDROOT
BRANCH   9  13
ATOM     13  C   UNL     1      -8.855  -9.595  16.082  0.00  0.00    -0.013 C 
ATOM     18  C   UNL     1      -9.972 -10.619  16.254  0.00  0.00    +0.007 C 
ATOM     19  C   UNL     1      -8.981  -8.479  17.116  0.00  0.00    +0.007 C 
ENDBRANCH   9  13
BRANCH  10  16
ATOM     16  C   UNL     1      -7.017 -10.693  13.730  0.00  0.00    +0.113 C 
BRANCH  16   6
ATOM      6  N   UNL     1      -6.810  -9.835  12.552  0.00  0.00    -0.189 NA
ATOM     36  H   UNL     1      -7.458  -9.048  12.433  0.00  0.00    +0.148 HD
BRANCH   6   1
ATOM      1  S   UNL     1      -6.059 -10.462  11.158  0.00  0.00    +0.058 S 
ATOM      3  O   UNL     1      -5.631  -9.364  10.311  0.00  0.00    -0.153 OA
ATOM      4  O   UNL     1      -6.880 -11.526  10.613  0.00  0.00    -0.153 OA
BRANCH   1  22
ATOM     22  C   UNL     1      -4.614 -11.220  11.837  0.00  0.00    +0.105 A 
ATOM     26  C   UNL     1      -4.620 -12.580  12.146  0.00  0.00    +0.032 A 
ATOM     27  C   UNL     1      -3.468 -10.458  12.065  0.00  0.00    +0.032 A 
ATOM     28  C   UNL     1      -3.479 -13.178  12.682  0.00  0.00    +0.047 A 
ATOM     29  C   UNL     1      -2.328 -11.057  12.602  0.00  0.00    +0.047 A 
ATOM     32  C   UNL     1      -2.334 -12.417  12.910  0.00  0.00    +0.120 A 
BRANCH  32   5
ATOM      5  O   UNL     1      -1.221 -13.001  13.434  0.00  0.00    -0.495 OA
ATOM     35  C   UNL     1      -1.237 -14.421  13.569  0.00  0.00    +0.277 C 
ENDBRANCH  32   5
ENDBRANCH   1  22
ENDBRANCH   6   1
ENDBRANCH  16   6
ENDBRANCH  10  16
BRANCH  12  17
ATOM     17  C   UNL     1      -5.642 -12.014  18.172  0.00  0.00    +0.103 C 
BRANCH  17  21
ATOM      2  O   UNL     1      -6.412 -11.543  20.393  0.00  0.00    -0.276 OA
ATOM      7  N   UNL     1      -7.753 -12.914  19.089  0.00  0.00    -0.300 N 
ATOM     21  C   UNL     1      -6.623 -12.125  19.326  0.00  0.00    +0.216 C 
ATOM     24  C   UNL     1      -7.981 -13.592  17.818  0.00  0.00    +0.132 C 
BRANCH   7  23
ATOM     23  C   UNL     1      -8.790 -13.120  20.097  0.00  0.00    +0.144 C 
BRANCH  23  25
ATOM      8  N   UNL     1     -12.315 -12.066  19.228  0.00  0.00    -0.263 NA
ATOM     25  C   UNL     1      -9.988 -12.248  19.857  0.00  0.00    -0.012 A 
ATOM     30  C   UNL     1      -9.917 -10.870  20.020  0.00  0.00    +0.008 A 
ATOM     31  C   UNL     1     -11.200 -12.792  19.462  0.00  0.00    +0.115 A 
ATOM     33  C   UNL     1     -11.044 -10.088  19.789  0.00  0.00    +0.020 A 
ATOM     34  C   UNL     1     -12.208 -10.729  19.397  0.00  0.00    +0.111 A 
ENDBRANCH  23  25
ENDBRANCH   7  23
ENDBRANCH  17  21
ENDBRANCH  12  17
TORSDOF 10
ENDMDL
MODEL 8
REMARK VINA RESULT:      -6.1      2.966      5.422
REMARK  Name = 38029110
REMARK  15 active torsions:
REMARK  status: ('A' for Active; 'I' for Inactive)
REMARK    1  A    between atoms: S_1  and  N_6
REMARK    2  A    between atoms: S_1  and  C_22
REMARK    3  A    between atoms: O_5  and  C_32
REMARK    4  A    between atoms: O_5  and  C_35
REMARK    5  A    between atoms: N_6  and  C_16
REMARK    6  A    between atoms: N_7  and  C_23
REMARK    7  A    between atoms: N_7  and  C_24
REMARK    8  A    between atoms: C_9  and  C_13
REMARK    9  A    between atoms: C_10  and  C_16
REMARK   10  A    between atoms: C_12  and  C_17
REMARK   11  A    between atoms: C_13  and  C_18
REMARK   12  A    between atoms: C_13  and  C_19
REMARK   13  A    between atoms: C_14  and  C_20
REMARK   14  A    between atoms: C_17  and  C_21
REMARK   15  A    between atoms: C_23  and  C_25
REMARK                            x       y       z     vdW  Elec       q    Type
REMARK                         _______ _______ _______ _____ _____    ______ ____
ROOT
ATOM      9  C   UNL     1      13.392  11.568  21.787  0.00  0.00    +0.000 C 
ATOM     10  C   UNL     1      12.082  11.298  22.571  0.00  0.00    +0.030 C 
ATOM     11  C   UNL     1      13.712  13.069  21.779  0.00  0.00    +0.012 C 
ATOM     12  C   UNL     1      12.584  13.904  21.144  0.00  0.00    +0.023 C 
ATOM     14  C   UNL     1      11.222  13.504  21.676  0.00  0.00    -0.073 C 
ATOM     15  C   UNL     1      11.020  12.343  22.323  0.00  0.00    -0.023 C 
ATOM     20  C   UNL     1      10.105  14.495  21.488  0.00  0.00    +0.039 C 
ENDROOT
BRANCH   9  13
ATOM     13  C   UNL     1      14.574  10.787  22.370  0.00  0.00    -0.013 C 
ATOM     18  C   UNL     1      15.436  10.213  21.251  0.00  0.00    +0.007 C 
ATOM     19  C   UNL     1      15.403  11.684  23.286  0.00  0.00    +0.007 C 
ENDBRANCH   9  13
BRANCH  10  16
ATOM     16  C   UNL     1      11.519   9.909  22.246  0.00  0.00    +0.113 C 
BRANCH  16   6
ATOM      6  N   UNL     1      11.415   9.763  20.785  0.00  0.00    -0.189 NA
ATOM     36  H   UNL     1      11.100  10.585  20.258  0.00  0.00    +0.148 HD
BRANCH   6   1
ATOM      1  S   UNL     1      11.145   8.228  20.097  0.00  0.00    +0.058 S 
ATOM      3  O   UNL     1      10.492   8.390  18.811  0.00  0.00    -0.153 OA
ATOM      4  O   UNL     1      10.573   7.351  21.100  0.00  0.00    -0.153 OA
BRANCH   1  22
ATOM     22  C   UNL     1      12.796   7.669  19.803  0.00  0.00    +0.105 A 
ATOM     26  C   UNL     1      13.398   7.893  18.565  0.00  0.00    +0.032 A 
ATOM     27  C   UNL     1      13.497   7.005  20.810  0.00  0.00    +0.032 A 
ATOM     28  C   UNL     1      14.701   7.452  18.334  0.00  0.00    +0.047 A 
ATOM     29  C   UNL     1      14.799   6.564  20.577  0.00  0.00    +0.047 A 
ATOM     32  C   UNL     1      15.402   6.787  19.339  0.00  0.00    +0.120 A 
BRANCH  32   5
ATOM      5  O   UNL     1      16.673   6.356  19.113  0.00  0.00    -0.495 OA
ATOM     35  C   UNL     1      17.615   6.533  20.170  0.00  0.00    +0.277 C 
ENDBRANCH  32   5
ENDBRANCH   1  22
ENDBRANCH   6   1
ENDBRANCH  16   6
ENDBRANCH  10  16
BRANCH  12  17
ATOM     17  C   UNL     1      12.623  13.812  19.615  0.00  0.00    +0.103 C 
BRANCH  17  21
ATOM      2  O   UNL     1      14.687  14.967  19.226  0.00  0.00    -0.276 OA
ATOM      7  N   UNL     1      14.521  12.809  18.390  0.00  0.00    -0.300 N 
ATOM     21  C   UNL     1      14.034  13.932  19.068  0.00  0.00    +0.216 C 
ATOM     24  C   UNL     1      13.729  11.597  18.216  0.00  0.00    +0.132 C 
BRANCH   7  23
ATOM     23  C   UNL     1      15.859  12.767  17.806  0.00  0.00    +0.144 C 
BRANCH  23  25
ATOM      8  N   UNL     1      16.785  12.323  14.167  0.00  0.00    -0.263 NA
ATOM     25  C   UNL     1      15.823  12.893  16.310  0.00  0.00    -0.012 A 
ATOM     30  C   UNL     1      14.852  13.661  15.678  0.00  0.00    +0.008 A 
ATOM     31  C   UNL     1      16.759  12.250  15.516  0.00  0.00    +0.115 A 
ATOM     33  C   UNL     1      14.846  13.761  14.291  0.00  0.00    +0.020 A 
ATOM     34  C   UNL     1      15.825  13.078  13.588  0.00  0.00    +0.111 A 
ENDBRANCH  23  25
ENDBRANCH   7  23
ENDBRANCH  17  21
ENDBRANCH  12  17
TORSDOF 10
ENDMDL
MODEL 9
REMARK VINA RESULT:      -6.1     28.594     32.206
REMARK  Name = 38029110
REMARK  15 active torsions:
REMARK  status: ('A' for Active; 'I' for Inactive)
REMARK    1  A    between atoms: S_1  and  N_6
REMARK    2  A    between atoms: S_1  and  C_22
REMARK    3  A    between atoms: O_5  and  C_32
REMARK    4  A    between atoms: O_5  and  C_35
REMARK    5  A    between atoms: N_6  and  C_16
REMARK    6  A    between atoms: N_7  and  C_23
REMARK    7  A    between atoms: N_7  and  C_24
REMARK    8  A    between atoms: C_9  and  C_13
REMARK    9  A    between atoms: C_10  and  C_16
REMARK   10  A    between atoms: C_12  and  C_17
REMARK   11  A    between atoms: C_13  and  C_18
REMARK   12  A    between atoms: C_13  and  C_19
REMARK   13  A    between atoms: C_14  and  C_20
REMARK   14  A    between atoms: C_17  and  C_21
REMARK   15  A    between atoms: C_23  and  C_25
REMARK                            x       y       z     vdW  Elec       q    Type
REMARK                         _______ _______ _______ _____ _____    ______ ____
ROOT
ATOM      9  C   UNL     1      -6.912 -12.274  17.666  0.00  0.00    +0.000 C 
ATOM     10  C   UNL     1      -5.944 -13.351  17.114  0.00  0.00    +0.030 C 
ATOM     11  C   UNL     1      -8.288 -12.395  16.994  0.00  0.00    +0.012 C 
ATOM     12  C   UNL     1      -8.205 -12.238  15.464  0.00  0.00    +0.023 C 
ATOM     14  C   UNL     1      -7.087 -13.073  14.873  0.00  0.00    -0.073 C 
ATOM     15  C   UNL     1      -6.093 -13.573  15.627  0.00  0.00    -0.023 C 
ATOM     20  C   UNL     1      -7.163 -13.358  13.398  0.00  0.00    +0.039 C 
ENDROOT
BRANCH   9  13
ATOM     13  C   UNL     1      -7.066 -12.374  19.187  0.00  0.00    -0.013 C 
ATOM     18  C   UNL     1      -6.449 -11.155  19.865  0.00  0.00    +0.007 C 
ATOM     19  C   UNL     1      -8.538 -12.516  19.564  0.00  0.00    +0.007 C 
ENDBRANCH   9  13
BRANCH  10  16
ATOM     16  C   UNL     1      -4.486 -13.001  17.435  0.00  0.00    +0.113 C 
BRANCH  16   6
ATOM      6  N   UNL     1      -3.818 -12.548  16.205  0.00  0.00    -0.189 NA
ATOM     36  H   UNL     1      -3.292 -13.253  15.676  0.00  0.00    +0.148 HD
BRANCH   6   1
ATOM      1  S   UNL     1      -3.352 -10.918  16.035  0.00  0.00    +0.058 S 
ATOM      3  O   UNL     1      -1.987 -10.761  16.502  0.00  0.00    -0.153 OA
ATOM      4  O   UNL     1      -4.403 -10.066  16.557  0.00  0.00    -0.153 OA
BRANCH   1  22
ATOM     22  C   UNL     1      -3.353 -10.723  14.278  0.00  0.00    +0.105 A 
ATOM     26  C   UNL     1      -2.147 -10.687  13.580  0.00  0.00    +0.032 A 
ATOM     27  C   UNL     1      -4.562 -10.607  13.591  0.00  0.00    +0.032 A 
ATOM     28  C   UNL     1      -2.149 -10.533  12.193  0.00  0.00    +0.047 A 
ATOM     29  C   UNL     1      -4.562 -10.453  12.205  0.00  0.00    +0.047 A 
ATOM     32  C   UNL     1      -3.356 -10.416  11.506  0.00  0.00    +0.120 A 
BRANCH  32   5
ATOM      5  O   UNL     1      -3.357 -10.266  10.153  0.00  0.00    -0.495 OA
ATOM     35  C   UNL     1      -3.777  -9.002   9.642  0.00  0.00    +0.277 C 
ENDBRANCH  32   5
ENDBRANCH   1  22
ENDBRANCH   6   1
ENDBRANCH  16   6
ENDBRANCH  10  16
BRANCH  12  17
ATOM     17  C   UNL     1      -8.058 -10.765  15.067  0.00  0.00    +0.103 C 
BRANCH  17  21
ATOM      2  O   UNL     1     -10.346 -10.122  14.748  0.00  0.00    -0.276 OA
ATOM      7  N   UNL     1      -9.178  -9.036  16.433  0.00  0.00    -0.300 N 
ATOM     21  C   UNL     1      -9.303  -9.956  15.387  0.00  0.00    +0.216 C 
ATOM     24  C   UNL     1      -7.934  -8.858  17.173  0.00  0.00    +0.132 C 
BRANCH   7  23
ATOM     23  C   UNL     1     -10.283  -8.183  16.862  0.00  0.00    +0.144 C 
BRANCH  23  25
ATOM      8  N   UNL     1     -13.576  -9.604  18.062  0.00  0.00    -0.263 NA
ATOM     25  C   UNL     1     -11.282  -8.934  17.694  0.00  0.00    -0.012 A 
ATOM     30  C   UNL     1     -10.889  -9.632  18.830  0.00  0.00    +0.008 A 
ATOM     31  C   UNL     1     -12.626  -8.951  17.356  0.00  0.00    +0.115 A 
ATOM     33  C   UNL     1     -11.837 -10.317  19.582  0.00  0.00    +0.020 A 
ATOM     34  C   UNL     1     -13.156 -10.272  19.159  0.00  0.00    +0.111 A 
ENDBRANCH  23  25
ENDBRANCH   7  23
ENDBRANCH  17  21
ENDBRANCH  12  17
TORSDOF 10
ENDMDL
MODEL 10
REMARK VINA RESULT:      -6.1     16.809     18.748
REMARK  Name = 38029110
REMARK  15 active torsions:
REMARK  status: ('A' for Active; 'I' for Inactive)
REMARK    1  A    between atoms: S_1  and  N_6
REMARK    2  A    between atoms: S_1  and  C_22
REMARK    3  A    between atoms: O_5  and  C_32
REMARK    4  A    between atoms: O_5  and  C_35
REMARK    5  A    between atoms: N_6  and  C_16
REMARK    6  A    between atoms: N_7  and  C_23
REMARK    7  A    between atoms: N_7  and  C_24
REMARK    8  A    between atoms: C_9  and  C_13
REMARK    9  A    between atoms: C_10  and  C_16
REMARK   10  A    between atoms: C_12  and  C_17
REMARK   11  A    between atoms: C_13  and  C_18
REMARK   12  A    between atoms: C_13  and  C_19
REMARK   13  A    between atoms: C_14  and  C_20
REMARK   14  A    between atoms: C_17  and  C_21
REMARK   15  A    between atoms: C_23  and  C_25
REMARK                            x       y       z     vdW  Elec       q    Type
REMARK                         _______ _______ _______ _____ _____    ______ ____
ROOT
ATOM      9  C   UNL     1      12.629   8.028   5.138  0.00  0.00    +0.000 C 
ATOM     10  C   UNL     1      12.063   9.374   4.618  0.00  0.00    +0.030 C 
ATOM     11  C   UNL     1      13.762   7.535   4.226  0.00  0.00    +0.012 C 
ATOM     12  C   UNL     1      13.295   7.338   2.771  0.00  0.00    +0.023 C 
ATOM     14  C   UNL     1      12.491   8.522   2.273  0.00  0.00    -0.073 C 
ATOM     15  C   UNL     1      11.960   9.429   3.112  0.00  0.00    -0.023 C 
ATOM     20  C   UNL     1      12.351   8.666   0.782  0.00  0.00    +0.039 C 
ENDROOT
BRANCH   9  13
ATOM     13  C   UNL     1      13.136   8.143   6.579  0.00  0.00    -0.013 C 
ATOM     18  C   UNL     1      13.465   6.763   7.139  0.00  0.00    +0.007 C 
ATOM     19  C   UNL     1      14.357   9.057   6.642  0.00  0.00    +0.007 C 
ENDBRANCH   9  13
BRANCH  10  16
ATOM     16  C   UNL     1      10.691   9.671   5.236  0.00  0.00    +0.113 C 
BRANCH  16   6
ATOM      6  N   UNL     1       9.671   9.647   4.175  0.00  0.00    -0.189 NA
ATOM     36  H   UNL     1       9.516  10.522   3.661  0.00  0.00    +0.148 HD
BRANCH   6   1
ATOM      1  S   UNL     1       8.384   8.534   4.251  0.00  0.00    +0.058 S 
ATOM      3  O   UNL     1       8.303   7.810   2.996  0.00  0.00    -0.153 OA
ATOM      4  O   UNL     1       7.211   9.199   4.786  0.00  0.00    -0.153 OA
BRANCH   1  22
ATOM     22  C   UNL     1       8.952   7.411   5.492  0.00  0.00    +0.105 A 
ATOM     26  C   UNL     1       8.703   7.675   6.839  0.00  0.00    +0.032 A 
ATOM     27  C   UNL     1       9.649   6.260   5.124  0.00  0.00    +0.032 A 
ATOM     28  C   UNL     1       9.151   6.788   7.818  0.00  0.00    +0.047 A 
ATOM     29  C   UNL     1      10.097   5.374   6.104  0.00  0.00    +0.047 A 
ATOM     32  C   UNL     1       9.848   5.638   7.451  0.00  0.00    +0.120 A 
BRANCH  32   5
ATOM      5  O   UNL     1      10.286   4.773   8.406  0.00  0.00    -0.495 OA
ATOM     35  C   UNL     1       9.391   4.485   9.479  0.00  0.00    +0.277 C 
ENDBRANCH  32   5
ENDBRANCH   1  22
ENDBRANCH   6   1
ENDBRANCH  16   6
ENDBRANCH  10  16
BRANCH  12  17
ATOM     17  C   UNL     1      12.503   6.035   2.617  0.00  0.00    +0.103 C 
BRANCH  17  21
ATOM      2  O   UNL     1      14.454   5.035   1.646  0.00  0.00    -0.276 OA
ATOM      7  N   UNL     1      12.406   4.107   1.074  0.00  0.00    -0.300 N 
ATOM     21  C   UNL     1      13.223   5.024   1.742  0.00  0.00    +0.216 C 
ATOM     24  C   UNL     1      10.954   4.115   1.203  0.00  0.00    +0.132 C 
BRANCH   7  23
ATOM     23  C   UNL     1      12.946   3.072   0.195  0.00  0.00    +0.144 C 
BRANCH  23  25
ATOM      8  N   UNL     1      12.845   5.001  -3.055  0.00  0.00    -0.263 NA
ATOM     25  C   UNL     1      12.723   3.393  -1.254  0.00  0.00    -0.012 A 
ATOM     30  C   UNL     1      12.207   2.443  -2.128  0.00  0.00    +0.008 A 
ATOM     31  C   UNL     1      13.023   4.647  -1.763  0.00  0.00    +0.115 A 
ATOM     33  C   UNL     1      12.010   2.771  -3.465  0.00  0.00    +0.020 A 
ATOM     34  C   UNL     1      12.342   4.052  -3.875  0.00  0.00    +0.111 A 
ENDBRANCH  23  25
ENDBRANCH   7  23
ENDBRANCH  17  21
ENDBRANCH  12  17
TORSDOF 10
ENDMDL
