REMARK  Name = 7161541
REMARK  5 active torsions:
REMARK  status: ('A' for Active; 'I' for Inactive)
REMARK    1  A    between atoms: O_3  and  C_19
REMARK    2  A    between atoms: O_3  and  C_24
REMARK    3  A    between atoms: C_8  and  C_14
REMARK    4  A    between atoms: C_15  and  C_19
REMARK    5  A    between atoms: C_20  and  C_21
REMARK                            x       y       z     vdW  Elec       q    Type
REMARK                         _______ _______ _______ _____ _____    ______ ____
ROOT
ATOM      2  O   UNL     1      -2.585  -2.134  -1.433  0.00  0.00    -0.275 OA
ATOM      5  O   UNL     1       2.582   1.767   1.648  0.00  0.00    -0.270 OA
ATOM      6  N   UNL     1      -1.267  -0.620  -0.255  0.00  0.00    -0.285 N 
ATOM      7  N   UNL     1       1.202  -0.010   1.015  0.00  0.00    -0.294 N 
ATOM     14  C   UNL     1      -2.485  -1.154  -0.689  0.00  0.00    +0.219 C 
ATOM     15  C   UNL     1      -1.130   0.642   0.495  0.00  0.00    +0.202 C 
ATOM     16  C   UNL     1      -0.018  -1.254  -0.702  0.00  0.00    +0.127 C 
ATOM     17  C   UNL     1      -0.018   0.595   1.546  0.00  0.00    +0.142 C 
ATOM     18  C   UNL     1       1.005  -1.335   0.421  0.00  0.00    +0.127 C 
ATOM     20  C   UNL     1       2.423   0.654   1.149  0.00  0.00    +0.247 C 
ENDROOT
BRANCH  20  21
ATOM      1  F   UNL     1       5.574  -0.232  -2.422  0.00  0.00    -0.205 F 
ATOM     21  C   UNL     1       3.631  -0.010   0.641  0.00  0.00    +0.040 A 
ATOM     22  C   UNL     1       4.035   0.200  -0.675  0.00  0.00    +0.051 A 
ATOM     23  C   UNL     1       4.366  -0.845   1.479  0.00  0.00    +0.013 A 
ATOM     25  C   UNL     1       5.183  -0.430  -1.157  0.00  0.00    +0.124 A 
ATOM     26  C   UNL     1       5.514  -1.474   0.997  0.00  0.00    +0.004 A 
ATOM     27  C   UNL     1       5.922  -1.267  -0.321  0.00  0.00    +0.038 A 
ENDBRANCH  20  21
BRANCH  14   8
ATOM      8  C   UNL     1      -3.731  -0.480  -0.197  0.00  0.00    +0.075 C 
ATOM      9  C   UNL     1      -4.838  -0.599  -1.247  0.00  0.00    +0.013 C 
ATOM     10  C   UNL     1      -4.160  -1.089   1.140  0.00  0.00    +0.013 C 
ATOM     11  C   UNL     1      -6.154  -0.007  -0.749  0.00  0.00    +0.001 C 
ATOM     12  C   UNL     1      -5.477  -0.496   1.633  0.00  0.00    +0.001 C 
ATOM     13  C   UNL     1      -6.578  -0.620   0.583  0.00  0.00    +0.000 C 
ENDBRANCH  14   8
BRANCH  15  19
ATOM      4  O   UNL     1      -0.770   1.510  -1.724  0.00  0.00    -0.249 OA
ATOM     19  C   UNL     1      -0.878   1.716  -0.523  0.00  0.00    +0.329 C 
BRANCH  19   3
ATOM      3  O   UNL     1      -0.794   2.925   0.102  0.00  0.00    -0.467 OA
ATOM     24  C   UNL     1      -0.554   4.045  -0.756  0.00  0.00    +0.280 C 
ENDBRANCH  19   3
ENDBRANCH  15  19
TORSDOF 4
