MODEL 1
REMARK VINA RESULT:      -6.9      0.000      0.000
REMARK  Name = 45783372
REMARK  10 active torsions:
REMARK  status: ('A' for Active; 'I' for Inactive)
REMARK    1  A    between atoms: O_2  and  C_26
REMARK    2  A    between atoms: O_4  and  C_30
REMARK    3  A    between atoms: O_4  and  C_31
REMARK    4  A    between atoms: N_5  and  C_14
REMARK    5  A    between atoms: N_8  and  C_28
REMARK    6  A    between atoms: C_10  and  C_15
REMARK    7  A    between atoms: C_14  and  C_16
REMARK    8  A    between atoms: C_19  and  C_22
REMARK    9  A    between atoms: C_23  and  C_26
REMARK   10  A    between atoms: C_28  and  C_30
REMARK                            x       y       z     vdW  Elec       q    Type
REMARK                         _______ _______ _______ _____ _____    ______ ____
ROOT
ATOM      1  O   UNL     1      15.192   6.569  19.980  0.00  0.00    -0.336 OA
ATOM      6  N   UNL     1      15.570   8.752  19.653  0.00  0.00    -0.190 NA
ATOM      7  N   UNL     1      16.237   6.916  20.846  0.00  0.00    -0.056 NA
ATOM     15  C   UNL     1      14.859   7.706  19.315  0.00  0.00    +0.245 A 
ATOM     19  C   UNL     1      16.402   8.220  20.595  0.00  0.00    +0.205 A 
ENDROOT
BRANCH  19  22
ATOM      8  N   UNL     1      19.098   7.366  20.852  0.00  0.00    -0.326 N 
ATOM      9  N   UNL     1      19.661   9.343  22.024  0.00  0.00    -0.240 NA
ATOM     22  C   UNL     1      17.389   9.016  21.265  0.00  0.00    +0.062 A 
ATOM     24  C   UNL     1      18.709   8.614  21.399  0.00  0.00    +0.130 A 
ATOM     25  C   UNL     1      17.023  10.243  21.808  0.00  0.00    +0.016 A 
ATOM     27  C   UNL     1      17.974  11.020  22.458  0.00  0.00    +0.020 A 
ATOM     29  C   UNL     1      19.268  10.530  22.538  0.00  0.00    +0.113 A 
ATOM     32  H   UNL     1      18.519   7.006  20.101  0.00  0.00    +0.148 HD
BRANCH   8  28
ATOM     28  C   UNL     1      20.433   6.870  20.939  0.00  0.00    +0.131 C 
BRANCH  28  30
ATOM     30  C   UNL     1      20.447   5.370  20.701  0.00  0.00    +0.178 C 
BRANCH  30   4
ATOM      4  O   UNL     1      21.179   4.732  21.739  0.00  0.00    -0.381 OA
ATOM     31  C   UNL     1      21.923   3.626  21.249  0.00  0.00    +0.194 C 
ENDBRANCH  30   4
ENDBRANCH  28  30
ENDBRANCH   8  28
ENDBRANCH  19  22
BRANCH  15  10
ATOM      5  N   UNL     1      12.603   8.488  18.615  0.00  0.00    -0.287 NA
ATOM     10  C   UNL     1      13.737   7.593  18.305  0.00  0.00    +0.146 C 
ATOM     11  C   UNL     1      14.174   7.992  16.884  0.00  0.00    +0.030 C 
ATOM     12  C   UNL     1      13.191   9.073  16.454  0.00  0.00    +0.017 C 
ATOM     13  C   UNL     1      11.982   8.825  17.334  0.00  0.00    +0.085 C 
BRANCH   5  14
ATOM     14  C   UNL     1      11.650   7.905  19.550  0.00  0.00    +0.120 C 
BRANCH  14  16
ATOM     16  C   UNL     1      11.437   8.782  20.755  0.00  0.00    -0.033 A 
ATOM     17  C   UNL     1      10.868   8.251  21.912  0.00  0.00    +0.006 A 
ATOM     18  C   UNL     1      11.809  10.125  20.713  0.00  0.00    +0.006 A 
ATOM     20  C   UNL     1      10.671   9.064  23.028  0.00  0.00    +0.015 A 
ATOM     21  C   UNL     1      11.611  10.939  21.830  0.00  0.00    +0.015 A 
ATOM     23  C   UNL     1      11.042  10.408  22.987  0.00  0.00    +0.059 A 
BRANCH  23  26
ATOM      3  O   UNL     1      11.393  11.114  25.246  0.00  0.00    -0.245 OA
ATOM     26  C   UNL     1      10.838  11.256  24.151  0.00  0.00    +0.337 C 
BRANCH  26   2
ATOM      2  O   UNL     1       9.948  12.258  23.915  0.00  0.00    -0.477 OA
ATOM     33  H   UNL     1      10.159  12.748  23.092  0.00  0.00    +0.295 HD
ENDBRANCH  26   2
ENDBRANCH  23  26
ENDBRANCH  14  16
ENDBRANCH   5  14
ENDBRANCH  15  10
TORSDOF 9
ENDMDL
MODEL 2
REMARK VINA RESULT:      -6.9      1.928      9.476
REMARK  Name = 45783372
REMARK  10 active torsions:
REMARK  status: ('A' for Active; 'I' for Inactive)
REMARK    1  A    between atoms: O_2  and  C_26
REMARK    2  A    between atoms: O_4  and  C_30
REMARK    3  A    between atoms: O_4  and  C_31
REMARK    4  A    between atoms: N_5  and  C_14
REMARK    5  A    between atoms: N_8  and  C_28
REMARK    6  A    between atoms: C_10  and  C_15
REMARK    7  A    between atoms: C_14  and  C_16
REMARK    8  A    between atoms: C_19  and  C_22
REMARK    9  A    between atoms: C_23  and  C_26
REMARK   10  A    between atoms: C_28  and  C_30
REMARK                            x       y       z     vdW  Elec       q    Type
REMARK                         _______ _______ _______ _____ _____    ______ ____
ROOT
ATOM      1  O   UNL     1      16.927   6.687  21.553  0.00  0.00    -0.336 OA
ATOM      6  N   UNL     1      16.314   8.500  20.391  0.00  0.00    -0.190 NA
ATOM      7  N   UNL     1      15.794   6.313  20.819  0.00  0.00    -0.056 NA
ATOM     15  C   UNL     1      17.165   7.988  21.244  0.00  0.00    +0.245 A 
ATOM     19  C   UNL     1      15.492   7.436  20.159  0.00  0.00    +0.205 A 
ENDROOT
BRANCH  19  22
ATOM      8  N   UNL     1      12.905   6.518  20.884  0.00  0.00    -0.326 N 
ATOM      9  N   UNL     1      12.036   7.159  18.778  0.00  0.00    -0.240 NA
ATOM     22  C   UNL     1      14.376   7.528  19.263  0.00  0.00    +0.062 A 
ATOM     24  C   UNL     1      13.107   7.085  19.601  0.00  0.00    +0.130 A 
ATOM     25  C   UNL     1      14.558   8.081  18.000  0.00  0.00    +0.016 A 
ATOM     27  C   UNL     1      13.480   8.174  17.126  0.00  0.00    +0.020 A 
ATOM     29  C   UNL     1      12.251   7.703  17.559  0.00  0.00    +0.113 A 
ATOM     32  H   UNL     1      13.571   6.785  21.601  0.00  0.00    +0.148 HD
BRANCH   8  28
ATOM     28  C   UNL     1      11.635   6.036  21.321  0.00  0.00    +0.131 C 
BRANCH  28  30
ATOM     30  C   UNL     1      10.828   7.172  21.926  0.00  0.00    +0.178 C 
BRANCH  30   4
ATOM      4  O   UNL     1      11.703   8.228  22.301  0.00  0.00    -0.381 OA
ATOM     31  C   UNL     1      11.080   9.496  22.160  0.00  0.00    +0.194 C 
ENDBRANCH  30   4
ENDBRANCH  28  30
ENDBRANCH   8  28
ENDBRANCH  19  22
BRANCH  15  10
ATOM      5  N   UNL     1      19.602   7.864  21.733  0.00  0.00    -0.287 NA
ATOM     10  C   UNL     1      18.356   8.635  21.919  0.00  0.00    +0.146 C 
ATOM     11  C   UNL     1      18.672  10.032  21.354  0.00  0.00    +0.030 C 
ATOM     12  C   UNL     1      20.134   9.969  20.931  0.00  0.00    +0.017 C 
ATOM     13  C   UNL     1      20.697   8.834  21.764  0.00  0.00    +0.085 C 
BRANCH   5  14
ATOM     14  C   UNL     1      19.777   6.808  22.721  0.00  0.00    +0.120 C 
BRANCH  14  16
ATOM     16  C   UNL     1      20.779   5.778  22.271  0.00  0.00    -0.033 A 
ATOM     17  C   UNL     1      20.586   5.098  21.068  0.00  0.00    +0.006 A 
ATOM     18  C   UNL     1      21.898   5.504  23.056  0.00  0.00    +0.006 A 
ATOM     20  C   UNL     1      21.515   4.145  20.651  0.00  0.00    +0.015 A 
ATOM     21  C   UNL     1      22.826   4.549  22.638  0.00  0.00    +0.015 A 
ATOM     23  C   UNL     1      22.634   3.870  21.436  0.00  0.00    +0.059 A 
BRANCH  23  26
ATOM      3  O   UNL     1      24.791   2.839  21.339  0.00  0.00    -0.245 OA
ATOM     26  C   UNL     1      23.603   2.876  21.001  0.00  0.00    +0.337 C 
BRANCH  26   2
ATOM      2  O   UNL     1      23.062   1.956  20.156  0.00  0.00    -0.477 OA
ATOM     33  H   UNL     1      22.085   2.032  20.111  0.00  0.00    +0.295 HD
ENDBRANCH  26   2
ENDBRANCH  23  26
ENDBRANCH  14  16
ENDBRANCH   5  14
ENDBRANCH  15  10
TORSDOF 9
ENDMDL
MODEL 3
REMARK VINA RESULT:      -6.7     27.792     29.899
REMARK  Name = 45783372
REMARK  10 active torsions:
REMARK  status: ('A' for Active; 'I' for Inactive)
REMARK    1  A    between atoms: O_2  and  C_26
REMARK    2  A    between atoms: O_4  and  C_30
REMARK    3  A    between atoms: O_4  and  C_31
REMARK    4  A    between atoms: N_5  and  C_14
REMARK    5  A    between atoms: N_8  and  C_28
REMARK    6  A    between atoms: C_10  and  C_15
REMARK    7  A    between atoms: C_14  and  C_16
REMARK    8  A    between atoms: C_19  and  C_22
REMARK    9  A    between atoms: C_23  and  C_26
REMARK   10  A    between atoms: C_28  and  C_30
REMARK                            x       y       z     vdW  Elec       q    Type
REMARK                         _______ _______ _______ _____ _____    ______ ____
ROOT
ATOM      1  O   UNL     1      -7.663 -10.118  11.544  0.00  0.00    -0.336 OA
ATOM      6  N   UNL     1      -5.792  -9.181  12.343  0.00  0.00    -0.190 NA
ATOM      7  N   UNL     1      -7.574 -10.509  12.886  0.00  0.00    -0.056 NA
ATOM     15  C   UNL     1      -6.575  -9.339  11.306  0.00  0.00    +0.245 A 
ATOM     19  C   UNL     1      -6.445  -9.917  13.288  0.00  0.00    +0.205 A 
ENDROOT
BRANCH  19  22
ATOM      8  N   UNL     1      -7.990  -9.170  15.551  0.00  0.00    -0.326 N 
ATOM      9  N   UNL     1      -6.234  -9.790  17.011  0.00  0.00    -0.240 NA
ATOM     22  C   UNL     1      -5.941 -10.042  14.625  0.00  0.00    +0.062 A 
ATOM     24  C   UNL     1      -6.682  -9.683  15.740  0.00  0.00    +0.130 A 
ATOM     25  C   UNL     1      -4.659 -10.542  14.828  0.00  0.00    +0.016 A 
ATOM     27  C   UNL     1      -4.165 -10.667  16.121  0.00  0.00    +0.020 A 
ATOM     29  C   UNL     1      -4.984 -10.281  17.169  0.00  0.00    +0.113 A 
ATOM     32  H   UNL     1      -8.447  -9.422  14.681  0.00  0.00    +0.148 HD
BRANCH   8  28
ATOM     28  C   UNL     1      -8.826  -8.775  16.637  0.00  0.00    +0.131 C 
BRANCH  28  30
ATOM     30  C   UNL     1     -10.172  -8.305  16.112  0.00  0.00    +0.178 C 
BRANCH  30   4
ATOM      4  O   UNL     1     -10.085  -6.933  15.750  0.00  0.00    -0.381 OA
ATOM     31  C   UNL     1     -11.180  -6.188  16.263  0.00  0.00    +0.194 C 
ENDBRANCH  30   4
ENDBRANCH  28  30
ENDBRANCH   8  28
ENDBRANCH  19  22
BRANCH  15  10
ATOM      5  N   UNL     1      -5.633  -9.651   9.023  0.00  0.00    -0.287 NA
ATOM     10  C   UNL     1      -6.439  -8.782   9.904  0.00  0.00    +0.146 C 
ATOM     11  C   UNL     1      -7.793  -8.644   9.185  0.00  0.00    +0.030 C 
ATOM     12  C   UNL     1      -7.633  -9.416   7.883  0.00  0.00    +0.017 C 
ATOM     13  C   UNL     1      -6.133  -9.440   7.665  0.00  0.00    +0.085 C 
BRANCH   5  14
ATOM     14  C   UNL     1      -4.201  -9.403   9.125  0.00  0.00    +0.120 C 
BRANCH  14  16
ATOM     16  C   UNL     1      -3.558 -10.249  10.192  0.00  0.00    -0.033 A 
ATOM     17  C   UNL     1      -3.943 -11.581  10.351  0.00  0.00    +0.006 A 
ATOM     18  C   UNL     1      -2.579  -9.702  11.020  0.00  0.00    +0.006 A 
ATOM     20  C   UNL     1      -3.348 -12.364  11.338  0.00  0.00    +0.015 A 
ATOM     21  C   UNL     1      -1.984 -10.487  12.009  0.00  0.00    +0.015 A 
ATOM     23  C   UNL     1      -2.369 -11.818  12.168  0.00  0.00    +0.059 A 
BRANCH  23  26
ATOM      3  O   UNL     1      -1.500 -12.268  14.352  0.00  0.00    -0.245 OA
ATOM     26  C   UNL     1      -1.747 -12.636  13.198  0.00  0.00    +0.337 C 
BRANCH  26   2
ATOM      2  O   UNL     1      -1.450 -13.889  12.759  0.00  0.00    -0.477 OA
ATOM     33  H   UNL     1      -1.567 -13.974  11.789  0.00  0.00    +0.295 HD
ENDBRANCH  26   2
ENDBRANCH  23  26
ENDBRANCH  14  16
ENDBRANCH   5  14
ENDBRANCH  15  10
TORSDOF 9
ENDMDL
MODEL 4
REMARK VINA RESULT:      -6.4     14.613     18.489
REMARK  Name = 45783372
REMARK  10 active torsions:
REMARK  status: ('A' for Active; 'I' for Inactive)
REMARK    1  A    between atoms: O_2  and  C_26
REMARK    2  A    between atoms: O_4  and  C_30
REMARK    3  A    between atoms: O_4  and  C_31
REMARK    4  A    between atoms: N_5  and  C_14
REMARK    5  A    between atoms: N_8  and  C_28
REMARK    6  A    between atoms: C_10  and  C_15
REMARK    7  A    between atoms: C_14  and  C_16
REMARK    8  A    between atoms: C_19  and  C_22
REMARK    9  A    between atoms: C_23  and  C_26
REMARK   10  A    between atoms: C_28  and  C_30
REMARK                            x       y       z     vdW  Elec       q    Type
REMARK                         _______ _______ _______ _____ _____    ______ ____
ROOT
ATOM      1  O   UNL     1      13.299   6.538   7.400  0.00  0.00    -0.336 OA
ATOM      6  N   UNL     1      12.979   7.372   5.346  0.00  0.00    -0.190 NA
ATOM      7  N   UNL     1      14.574   6.817   6.891  0.00  0.00    -0.056 NA
ATOM     15  C   UNL     1      12.419   6.893   6.429  0.00  0.00    +0.245 A 
ATOM     19  C   UNL     1      14.301   7.306   5.676  0.00  0.00    +0.205 A 
ENDROOT
BRANCH  19  22
ATOM      8  N   UNL     1      14.388   6.417   2.981  0.00  0.00    -0.326 N 
ATOM      9  N   UNL     1      16.337   7.697   2.573  0.00  0.00    -0.240 NA
ATOM     22  C   UNL     1      15.326   7.734   4.769  0.00  0.00    +0.062 A 
ATOM     24  C   UNL     1      15.383   7.310   3.451  0.00  0.00    +0.130 A 
ATOM     25  C   UNL     1      16.310   8.610   5.215  0.00  0.00    +0.016 A 
ATOM     27  C   UNL     1      17.306   9.030   4.341  0.00  0.00    +0.020 A 
ATOM     29  C   UNL     1      17.275   8.549   3.042  0.00  0.00    +0.113 A 
ATOM     32  H   UNL     1      13.511   6.416   3.490  0.00  0.00    +0.148 HD
BRANCH   8  28
ATOM     28  C   UNL     1      14.365   5.927   1.641  0.00  0.00    +0.131 C 
BRANCH  28  30
ATOM     30  C   UNL     1      14.758   4.460   1.616  0.00  0.00    +0.178 C 
BRANCH  30   4
ATOM      4  O   UNL     1      14.792   4.002   0.271  0.00  0.00    -0.381 OA
ATOM     31  C   UNL     1      16.094   4.109  -0.284  0.00  0.00    +0.194 C 
ENDBRANCH  30   4
ENDBRANCH  28  30
ENDBRANCH   8  28
ENDBRANCH  19  22
BRANCH  15  10
ATOM      5  N   UNL     1      10.257   5.894   5.706  0.00  0.00    -0.287 NA
ATOM     10  C   UNL     1      10.951   6.687   6.740  0.00  0.00    +0.146 C 
ATOM     11  C   UNL     1      10.725   5.908   8.048  0.00  0.00    +0.030 C 
ATOM     12  C   UNL     1       9.843   4.728   7.661  0.00  0.00    +0.017 C 
ATOM     13  C   UNL     1       9.169   5.191   6.385  0.00  0.00    +0.085 C 
BRANCH   5  14
ATOM     14  C   UNL     1       9.777   6.699   4.590  0.00  0.00    +0.120 C 
BRANCH  14  16
ATOM     16  C   UNL     1      10.142   6.091   3.261  0.00  0.00    -0.033 A 
ATOM     17  C   UNL     1      10.729   4.826   3.211  0.00  0.00    +0.006 A 
ATOM     18  C   UNL     1       9.892   6.792   2.082  0.00  0.00    +0.006 A 
ATOM     20  C   UNL     1      11.066   4.264   1.981  0.00  0.00    +0.015 A 
ATOM     21  C   UNL     1      10.230   6.228   0.851  0.00  0.00    +0.015 A 
ATOM     23  C   UNL     1      10.817   4.964   0.801  0.00  0.00    +0.059 A 
BRANCH  23  26
ATOM      3  O   UNL     1      10.517   3.508  -1.074  0.00  0.00    -0.245 OA
ATOM     26  C   UNL     1      11.167   4.377  -0.483  0.00  0.00    +0.337 C 
BRANCH  26   2
ATOM      2  O   UNL     1      12.320   4.890  -0.993  0.00  0.00    -0.477 OA
ATOM     33  H   UNL     1      13.075   4.275  -0.879  0.00  0.00    +0.295 HD
ENDBRANCH  26   2
ENDBRANCH  23  26
ENDBRANCH  14  16
ENDBRANCH   5  14
ENDBRANCH  15  10
TORSDOF 9
ENDMDL
MODEL 5
REMARK VINA RESULT:      -6.1     14.815     17.740
REMARK  Name = 45783372
REMARK  10 active torsions:
REMARK  status: ('A' for Active; 'I' for Inactive)
REMARK    1  A    between atoms: O_2  and  C_26
REMARK    2  A    between atoms: O_4  and  C_30
REMARK    3  A    between atoms: O_4  and  C_31
REMARK    4  A    between atoms: N_5  and  C_14
REMARK    5  A    between atoms: N_8  and  C_28
REMARK    6  A    between atoms: C_10  and  C_15
REMARK    7  A    between atoms: C_14  and  C_16
REMARK    8  A    between atoms: C_19  and  C_22
REMARK    9  A    between atoms: C_23  and  C_26
REMARK   10  A    between atoms: C_28  and  C_30
REMARK                            x       y       z     vdW  Elec       q    Type
REMARK                         _______ _______ _______ _____ _____    ______ ____
ROOT
ATOM      1  O   UNL     1      13.760   6.988   1.002  0.00  0.00    -0.336 OA
ATOM      6  N   UNL     1      14.517   5.895   2.804  0.00  0.00    -0.190 NA
ATOM      7  N   UNL     1      14.494   7.922   1.743  0.00  0.00    -0.056 NA
ATOM     15  C   UNL     1      13.823   5.822   1.696  0.00  0.00    +0.245 A 
ATOM     19  C   UNL     1      14.908   7.202   2.791  0.00  0.00    +0.205 A 
ENDROOT
BRANCH  19  22
ATOM      8  N   UNL     1      14.186   6.954   5.526  0.00  0.00    -0.326 N 
ATOM      9  N   UNL     1      16.111   8.159   6.191  0.00  0.00    -0.240 NA
ATOM     22  C   UNL     1      15.712   7.758   3.841  0.00  0.00    +0.062 A 
ATOM     24  C   UNL     1      15.374   7.646   5.180  0.00  0.00    +0.130 A 
ATOM     25  C   UNL     1      16.880   8.440   3.518  0.00  0.00    +0.016 A 
ATOM     27  C   UNL     1      17.664   8.981   4.530  0.00  0.00    +0.020 A 
ATOM     29  C   UNL     1      17.240   8.815   5.839  0.00  0.00    +0.113 A 
ATOM     32  H   UNL     1      13.845   6.283   4.846  0.00  0.00    +0.148 HD
BRANCH   8  28
ATOM     28  C   UNL     1      13.758   6.787   6.877  0.00  0.00    +0.131 C 
BRANCH  28  30
ATOM     30  C   UNL     1      12.273   7.087   6.992  0.00  0.00    +0.178 C 
BRANCH  30   4
ATOM      4  O   UNL     1      11.982   8.304   6.318  0.00  0.00    -0.381 OA
ATOM     31  C   UNL     1      11.328   9.230   7.173  0.00  0.00    +0.194 C 
ENDBRANCH  30   4
ENDBRANCH  28  30
ENDBRANCH   8  28
ENDBRANCH  19  22
BRANCH  15  10
ATOM      5  N   UNL     1      11.659   4.623   1.427  0.00  0.00    -0.287 NA
ATOM     10  C   UNL     1      13.097   4.638   1.093  0.00  0.00    +0.146 C 
ATOM     11  C   UNL     1      13.141   4.634  -0.446  0.00  0.00    +0.030 C 
ATOM     12  C   UNL     1      11.686   4.555  -0.886  0.00  0.00    +0.017 C 
ATOM     13  C   UNL     1      10.983   3.954   0.315  0.00  0.00    +0.085 C 
BRANCH   5  14
ATOM     14  C   UNL     1      11.372   3.986   2.705  0.00  0.00    +0.120 C 
BRANCH  14  16
ATOM     16  C   UNL     1      10.567   4.880   3.610  0.00  0.00    -0.033 A 
ATOM     17  C   UNL     1      10.238   6.172   3.201  0.00  0.00    +0.006 A 
ATOM     18  C   UNL     1      10.150   4.416   4.857  0.00  0.00    +0.006 A 
ATOM     20  C   UNL     1       9.492   7.000   4.039  0.00  0.00    +0.015 A 
ATOM     21  C   UNL     1       9.404   5.244   5.696  0.00  0.00    +0.015 A 
ATOM     23  C   UNL     1       9.075   6.536   5.287  0.00  0.00    +0.059 A 
BRANCH  23  26
ATOM      3  O   UNL     1       8.292   7.350   7.396  0.00  0.00    -0.245 OA
ATOM     26  C   UNL     1       8.295   7.399   6.161  0.00  0.00    +0.337 C 
BRANCH  26   2
ATOM      2  O   UNL     1       7.543   8.298   5.470  0.00  0.00    -0.477 OA
ATOM     33  H   UNL     1       7.216   9.021   6.047  0.00  0.00    +0.295 HD
ENDBRANCH  26   2
ENDBRANCH  23  26
ENDBRANCH  14  16
ENDBRANCH   5  14
ENDBRANCH  15  10
TORSDOF 9
ENDMDL
MODEL 6
REMARK VINA RESULT:      -6.1     27.701     29.732
REMARK  Name = 45783372
REMARK  10 active torsions:
REMARK  status: ('A' for Active; 'I' for Inactive)
REMARK    1  A    between atoms: O_2  and  C_26
REMARK    2  A    between atoms: O_4  and  C_30
REMARK    3  A    between atoms: O_4  and  C_31
REMARK    4  A    between atoms: N_5  and  C_14
REMARK    5  A    between atoms: N_8  and  C_28
REMARK    6  A    between atoms: C_10  and  C_15
REMARK    7  A    between atoms: C_14  and  C_16
REMARK    8  A    between atoms: C_19  and  C_22
REMARK    9  A    between atoms: C_23  and  C_26
REMARK   10  A    between atoms: C_28  and  C_30
REMARK                            x       y       z     vdW  Elec       q    Type
REMARK                         _______ _______ _______ _____ _____    ______ ____
ROOT
ATOM      1  O   UNL     1      -2.297  -9.927  11.260  0.00  0.00    -0.336 OA
ATOM      6  N   UNL     1      -4.298 -10.911  11.045  0.00  0.00    -0.190 NA
ATOM      7  N   UNL     1      -2.986  -9.197  10.283  0.00  0.00    -0.056 NA
ATOM     15  C   UNL     1      -3.139 -10.917  11.655  0.00  0.00    +0.245 A 
ATOM     19  C   UNL     1      -4.157  -9.839  10.213  0.00  0.00    +0.205 A 
ENDROOT
BRANCH  19  22
ATOM      8  N   UNL     1      -4.509 -11.043   7.666  0.00  0.00    -0.326 N 
ATOM      9  N   UNL     1      -6.369  -9.653   7.213  0.00  0.00    -0.240 NA
ATOM     22  C   UNL     1      -5.206  -9.435   9.321  0.00  0.00    +0.062 A 
ATOM     24  C   UNL     1      -5.391 -10.012   8.075  0.00  0.00    +0.130 A 
ATOM     25  C   UNL     1      -6.079  -8.424   9.707  0.00  0.00    +0.016 A 
ATOM     27  C   UNL     1      -7.098  -8.028   8.849  0.00  0.00    +0.020 A 
ATOM     29  C   UNL     1      -7.200  -8.668   7.624  0.00  0.00    +0.113 A 
ATOM     32  H   UNL     1      -4.035 -11.548   8.407  0.00  0.00    +0.148 HD
BRANCH   8  28
ATOM     28  C   UNL     1      -4.622 -11.697   6.402  0.00  0.00    +0.131 C 
BRANCH  28  30
ATOM     30  C   UNL     1      -4.712 -13.200   6.601  0.00  0.00    +0.178 C 
BRANCH  30   4
ATOM      4  O   UNL     1      -3.403 -13.741   6.725  0.00  0.00    -0.381 OA
ATOM     31  C   UNL     1      -2.689 -13.665   5.499  0.00  0.00    +0.194 C 
ENDBRANCH  30   4
ENDBRANCH  28  30
ENDBRANCH   8  28
ENDBRANCH  19  22
BRANCH  15  10
ATOM      5  N   UNL     1      -3.469 -11.866  13.932  0.00  0.00    -0.287 NA
ATOM     10  C   UNL     1      -2.621 -11.858  12.723  0.00  0.00    +0.146 C 
ATOM     11  C   UNL     1      -2.590 -13.325  12.257  0.00  0.00    +0.030 C 
ATOM     12  C   UNL     1      -3.395 -14.090  13.299  0.00  0.00    +0.017 C 
ATOM     13  C   UNL     1      -3.334 -13.198  14.523  0.00  0.00    +0.085 C 
BRANCH   5  14
ATOM     14  C   UNL     1      -3.130 -10.811  14.878  0.00  0.00    +0.120 C 
BRANCH  14  16
ATOM     16  C   UNL     1      -4.002 -10.855  16.105  0.00  0.00    -0.033 A 
ATOM     17  C   UNL     1      -3.487 -11.337  17.308  0.00  0.00    +0.006 A 
ATOM     18  C   UNL     1      -5.323 -10.414  16.037  0.00  0.00    +0.006 A 
ATOM     20  C   UNL     1      -4.295 -11.378  18.444  0.00  0.00    +0.015 A 
ATOM     21  C   UNL     1      -6.131 -10.455  17.174  0.00  0.00    +0.015 A 
ATOM     23  C   UNL     1      -5.617 -10.938  18.378  0.00  0.00    +0.059 A 
BRANCH  23  26
ATOM      3  O   UNL     1      -6.964 -11.998  20.047  0.00  0.00    -0.245 OA
ATOM     26  C   UNL     1      -6.459 -10.979  19.563  0.00  0.00    +0.337 C 
BRANCH  26   2
ATOM      2  O   UNL     1      -6.648  -9.747  20.110  0.00  0.00    -0.477 OA
ATOM     33  H   UNL     1      -5.825  -9.214  20.103  0.00  0.00    +0.295 HD
ENDBRANCH  26   2
ENDBRANCH  23  26
ENDBRANCH  14  16
ENDBRANCH   5  14
ENDBRANCH  15  10
TORSDOF 9
ENDMDL
MODEL 7
REMARK VINA RESULT:      -6.1     27.482     30.130
REMARK  Name = 45783372
REMARK  10 active torsions:
REMARK  status: ('A' for Active; 'I' for Inactive)
REMARK    1  A    between atoms: O_2  and  C_26
REMARK    2  A    between atoms: O_4  and  C_30
REMARK    3  A    between atoms: O_4  and  C_31
REMARK    4  A    between atoms: N_5  and  C_14
REMARK    5  A    between atoms: N_8  and  C_28
REMARK    6  A    between atoms: C_10  and  C_15
REMARK    7  A    between atoms: C_14  and  C_16
REMARK    8  A    between atoms: C_19  and  C_22
REMARK    9  A    between atoms: C_23  and  C_26
REMARK   10  A    between atoms: C_28  and  C_30
REMARK                            x       y       z     vdW  Elec       q    Type
REMARK                         _______ _______ _______ _____ _____    ______ ____
ROOT
ATOM      1  O   UNL     1      -8.716 -10.923  12.875  0.00  0.00    -0.336 OA
ATOM      6  N   UNL     1      -7.002  -9.602  13.455  0.00  0.00    -0.190 NA
ATOM      7  N   UNL     1      -7.861 -10.885  11.766  0.00  0.00    -0.056 NA
ATOM     15  C   UNL     1      -8.137 -10.142  13.823  0.00  0.00    +0.245 A 
ATOM     19  C   UNL     1      -6.874 -10.087  12.186  0.00  0.00    +0.205 A 
ENDROOT
BRANCH  19  22
ATOM      8  N   UNL     1      -7.159  -8.592   9.789  0.00  0.00    -0.326 N 
ATOM      9  N   UNL     1      -4.828  -8.693   9.394  0.00  0.00    -0.240 NA
ATOM     22  C   UNL     1      -5.749  -9.752  11.362  0.00  0.00    +0.062 A 
ATOM     24  C   UNL     1      -5.870  -9.024  10.190  0.00  0.00    +0.130 A 
ATOM     25  C   UNL     1      -4.477 -10.169  11.742  0.00  0.00    +0.016 A 
ATOM     27  C   UNL     1      -3.381  -9.848  10.949  0.00  0.00    +0.020 A 
ATOM     29  C   UNL     1      -3.607  -9.115   9.795  0.00  0.00    +0.113 A 
ATOM     32  H   UNL     1      -7.854  -8.514  10.523  0.00  0.00    +0.148 HD
BRANCH   8  28
ATOM     28  C   UNL     1      -7.382  -7.837   8.599  0.00  0.00    +0.131 C 
BRANCH  28  30
ATOM     30  C   UNL     1      -8.725  -7.132   8.674  0.00  0.00    +0.178 C 
BRANCH  30   4
ATOM      4  O   UNL     1      -9.005  -6.512   7.425  0.00  0.00    -0.381 OA
ATOM     31  C   UNL     1     -10.403  -6.406   7.198  0.00  0.00    +0.194 C 
ENDBRANCH  30   4
ENDBRANCH  28  30
ENDBRANCH   8  28
ENDBRANCH  19  22
BRANCH  15  10
ATOM      5  N   UNL     1      -7.979  -9.702  16.268  0.00  0.00    -0.287 NA
ATOM     10  C   UNL     1      -8.877 -10.018  15.139  0.00  0.00    +0.146 C 
ATOM     11  C   UNL     1      -9.913  -8.878  15.133  0.00  0.00    +0.030 C 
ATOM     12  C   UNL     1      -9.553  -8.008  16.329  0.00  0.00    +0.017 C 
ATOM     13  C   UNL     1      -8.777  -8.946  17.232  0.00  0.00    +0.085 C 
BRANCH   5  14
ATOM     14  C   UNL     1      -7.372 -10.884  16.867  0.00  0.00    +0.120 C 
BRANCH  14  16
ATOM     16  C   UNL     1      -5.941 -11.062  16.431  0.00  0.00    -0.033 A 
ATOM     17  C   UNL     1      -5.587 -12.144  15.626  0.00  0.00    +0.006 A 
ATOM     18  C   UNL     1      -4.971 -10.144  16.834  0.00  0.00    +0.006 A 
ATOM     20  C   UNL     1      -4.262 -12.308  15.223  0.00  0.00    +0.015 A 
ATOM     21  C   UNL     1      -3.645 -10.309  16.430  0.00  0.00    +0.015 A 
ATOM     23  C   UNL     1      -3.291 -11.391  15.625  0.00  0.00    +0.059 A 
BRANCH  23  26
ATOM      3  O   UNL     1      -1.544 -12.052  14.130  0.00  0.00    -0.245 OA
ATOM     26  C   UNL     1      -1.910 -11.561  15.204  0.00  0.00    +0.337 C 
BRANCH  26   2
ATOM      2  O   UNL     1      -1.023 -11.114  16.135  0.00  0.00    -0.477 OA
ATOM     33  H   UNL     1      -0.097 -11.180  15.818  0.00  0.00    +0.295 HD
ENDBRANCH  26   2
ENDBRANCH  23  26
ENDBRANCH  14  16
ENDBRANCH   5  14
ENDBRANCH  15  10
TORSDOF 9
ENDMDL
MODEL 8
REMARK VINA RESULT:      -6.1     16.715     20.931
REMARK  Name = 45783372
REMARK  10 active torsions:
REMARK  status: ('A' for Active; 'I' for Inactive)
REMARK    1  A    between atoms: O_2  and  C_26
REMARK    2  A    between atoms: O_4  and  C_30
REMARK    3  A    between atoms: O_4  and  C_31
REMARK    4  A    between atoms: N_5  and  C_14
REMARK    5  A    between atoms: N_8  and  C_28
REMARK    6  A    between atoms: C_10  and  C_15
REMARK    7  A    between atoms: C_14  and  C_16
REMARK    8  A    between atoms: C_19  and  C_22
REMARK    9  A    between atoms: C_23  and  C_26
REMARK   10  A    between atoms: C_28  and  C_30
REMARK                            x       y       z     vdW  Elec       q    Type
REMARK                         _______ _______ _______ _____ _____    ______ ____
ROOT
ATOM      1  O   UNL     1      10.820   6.161   1.347  0.00  0.00    -0.336 OA
ATOM      6  N   UNL     1      11.385   5.087   3.229  0.00  0.00    -0.190 NA
ATOM      7  N   UNL     1      10.130   6.803   2.383  0.00  0.00    -0.056 NA
ATOM     15  C   UNL     1      11.534   5.164   1.930  0.00  0.00    +0.245 A 
ATOM     19  C   UNL     1      10.515   6.112   3.461  0.00  0.00    +0.205 A 
ENDROOT
BRANCH  19  22
ATOM      8  N   UNL     1      12.305   6.611   5.609  0.00  0.00    -0.326 N 
ATOM      9  N   UNL     1      10.497   6.957   7.096  0.00  0.00    -0.240 NA
ATOM     22  C   UNL     1      10.048   6.419   4.782  0.00  0.00    +0.062 A 
ATOM     24  C   UNL     1      10.908   6.665   5.841  0.00  0.00    +0.130 A 
ATOM     25  C   UNL     1       8.680   6.476   5.027  0.00  0.00    +0.016 A 
ATOM     27  C   UNL     1       8.220   6.773   6.304  0.00  0.00    +0.020 A 
ATOM     29  C   UNL     1       9.160   7.004   7.295  0.00  0.00    +0.113 A 
ATOM     32  H   UNL     1      12.605   6.755   4.651  0.00  0.00    +0.148 HD
BRANCH   8  28
ATOM     28  C   UNL     1      13.265   6.850   6.636  0.00  0.00    +0.131 C 
BRANCH  28  30
ATOM     30  C   UNL     1      14.574   7.320   6.025  0.00  0.00    +0.178 C 
BRANCH  30   4
ATOM      4  O   UNL     1      14.422   8.650   5.545  0.00  0.00    -0.381 OA
ATOM     31  C   UNL     1      15.273   9.553   6.236  0.00  0.00    +0.194 C 
ENDBRANCH  30   4
ENDBRANCH  28  30
ENDBRANCH   8  28
ENDBRANCH  19  22
BRANCH  15  10
ATOM      5  N   UNL     1      13.393   5.096   0.278  0.00  0.00    -0.287 NA
ATOM     10  C   UNL     1      12.379   4.310   1.008  0.00  0.00    +0.146 C 
ATOM     11  C   UNL     1      13.185   3.238   1.764  0.00  0.00    +0.030 C 
ATOM     12  C   UNL     1      14.632   3.461   1.348  0.00  0.00    +0.017 C 
ATOM     13  C   UNL     1      14.514   4.191   0.025  0.00  0.00    +0.085 C 
BRANCH   5  14
ATOM     14  C   UNL     1      12.883   5.693  -0.950  0.00  0.00    +0.120 C 
BRANCH  14  16
ATOM     16  C   UNL     1      11.993   4.744  -1.707  0.00  0.00    -0.033 A 
ATOM     17  C   UNL     1      12.514   3.554  -2.216  0.00  0.00    +0.006 A 
ATOM     18  C   UNL     1      10.647   5.055  -1.900  0.00  0.00    +0.006 A 
ATOM     20  C   UNL     1      11.689   2.676  -2.917  0.00  0.00    +0.015 A 
ATOM     21  C   UNL     1       9.822   4.175  -2.602  0.00  0.00    +0.015 A 
ATOM     23  C   UNL     1      10.343   2.986  -3.110  0.00  0.00    +0.059 A 
BRANCH  23  26
ATOM      3  O   UNL     1       8.932   1.070  -3.364  0.00  0.00    -0.245 OA
ATOM     26  C   UNL     1       9.482   2.069  -3.841  0.00  0.00    +0.337 C 
BRANCH  26   2
ATOM      2  O   UNL     1       9.331   2.424  -5.146  0.00  0.00    -0.477 OA
ATOM     33  H   UNL     1       9.882   1.872  -5.740  0.00  0.00    +0.295 HD
ENDBRANCH  26   2
ENDBRANCH  23  26
ENDBRANCH  14  16
ENDBRANCH   5  14
ENDBRANCH  15  10
TORSDOF 9
ENDMDL
MODEL 9
REMARK VINA RESULT:      -6.1     13.116     17.039
REMARK  Name = 45783372
REMARK  10 active torsions:
REMARK  status: ('A' for Active; 'I' for Inactive)
REMARK    1  A    between atoms: O_2  and  C_26
REMARK    2  A    between atoms: O_4  and  C_30
REMARK    3  A    between atoms: O_4  and  C_31
REMARK    4  A    between atoms: N_5  and  C_14
REMARK    5  A    between atoms: N_8  and  C_28
REMARK    6  A    between atoms: C_10  and  C_15
REMARK    7  A    between atoms: C_14  and  C_16
REMARK    8  A    between atoms: C_19  and  C_22
REMARK    9  A    between atoms: C_23  and  C_26
REMARK   10  A    between atoms: C_28  and  C_30
REMARK                            x       y       z     vdW  Elec       q    Type
REMARK                         _______ _______ _______ _____ _____    ______ ____
ROOT
ATOM      1  O   UNL     1      12.518   6.797   6.927  0.00  0.00    -0.336 OA
ATOM      6  N   UNL     1      12.787   8.838   6.043  0.00  0.00    -0.190 NA
ATOM      7  N   UNL     1      13.898   7.035   6.910  0.00  0.00    -0.056 NA
ATOM     15  C   UNL     1      11.938   7.906   6.399  0.00  0.00    +0.245 A 
ATOM     19  C   UNL     1      13.976   8.258   6.375  0.00  0.00    +0.205 A 
ENDROOT
BRANCH  19  22
ATOM      8  N   UNL     1      14.431  10.918   7.259  0.00  0.00    -0.326 N 
ATOM      9  N   UNL     1      16.633  10.878   6.393  0.00  0.00    -0.240 NA
ATOM     22  C   UNL     1      15.227   8.926   6.158  0.00  0.00    +0.062 A 
ATOM     24  C   UNL     1      15.465  10.223   6.583  0.00  0.00    +0.130 A 
ATOM     25  C   UNL     1      16.251   8.259   5.495  0.00  0.00    +0.016 A 
ATOM     27  C   UNL     1      17.466   8.899   5.282  0.00  0.00    +0.020 A 
ATOM     29  C   UNL     1      17.606  10.198   5.746  0.00  0.00    +0.113 A 
ATOM     32  H   UNL     1      13.728  10.343   7.711  0.00  0.00    +0.148 HD
BRANCH   8  28
ATOM     28  C   UNL     1      14.584  12.254   7.734  0.00  0.00    +0.131 C 
BRANCH  28  30
ATOM     30  C   UNL     1      13.303  12.718   8.405  0.00  0.00    +0.178 C 
BRANCH  30   4
ATOM      4  O   UNL     1      12.502  11.589   8.727  0.00  0.00    -0.381 OA
ATOM     31  C   UNL     1      11.838  11.759   9.972  0.00  0.00    +0.194 C 
ENDBRANCH  30   4
ENDBRANCH  28  30
ENDBRANCH   8  28
ENDBRANCH  19  22
BRANCH  15  10
ATOM      5  N   UNL     1       9.909   6.739   5.552  0.00  0.00    -0.287 NA
ATOM     10  C   UNL     1      10.426   7.899   6.306  0.00  0.00    +0.146 C 
ATOM     11  C   UNL     1       9.747   7.803   7.685  0.00  0.00    +0.030 C 
ATOM     12  C   UNL     1       8.822   6.598   7.590  0.00  0.00    +0.017 C 
ATOM     13  C   UNL     1       8.585   6.447   6.100  0.00  0.00    +0.085 C 
BRANCH   5  14
ATOM     14  C   UNL     1       9.869   6.962   4.112  0.00  0.00    +0.120 C 
BRANCH  14  16
ATOM     16  C   UNL     1      10.802   6.038   3.375  0.00  0.00    -0.033 A 
ATOM     17  C   UNL     1      12.002   6.526   2.859  0.00  0.00    +0.006 A 
ATOM     18  C   UNL     1      10.466   4.695   3.210  0.00  0.00    +0.006 A 
ATOM     20  C   UNL     1      12.866   5.670   2.177  0.00  0.00    +0.015 A 
ATOM     21  C   UNL     1      11.331   3.838   2.527  0.00  0.00    +0.015 A 
ATOM     23  C   UNL     1      12.531   4.326   2.010  0.00  0.00    +0.059 A 
BRANCH  23  26
ATOM      3  O   UNL     1      13.229   2.955   0.178  0.00  0.00    -0.245 OA
ATOM     26  C   UNL     1      13.432   3.433   1.300  0.00  0.00    +0.337 C 
BRANCH  26   2
ATOM      2  O   UNL     1      14.562   3.161   2.009  0.00  0.00    -0.477 OA
ATOM     33  H   UNL     1      14.925   2.276   1.790  0.00  0.00    +0.295 HD
ENDBRANCH  26   2
ENDBRANCH  23  26
ENDBRANCH  14  16
ENDBRANCH   5  14
ENDBRANCH  15  10
TORSDOF 9
ENDMDL
MODEL 10
REMARK VINA RESULT:      -6.0     14.903     19.596
REMARK  Name = 45783372
REMARK  10 active torsions:
REMARK  status: ('A' for Active; 'I' for Inactive)
REMARK    1  A    between atoms: O_2  and  C_26
REMARK    2  A    between atoms: O_4  and  C_30
REMARK    3  A    between atoms: O_4  and  C_31
REMARK    4  A    between atoms: N_5  and  C_14
REMARK    5  A    between atoms: N_8  and  C_28
REMARK    6  A    between atoms: C_10  and  C_15
REMARK    7  A    between atoms: C_14  and  C_16
REMARK    8  A    between atoms: C_19  and  C_22
REMARK    9  A    between atoms: C_23  and  C_26
REMARK   10  A    between atoms: C_28  and  C_30
REMARK                            x       y       z     vdW  Elec       q    Type
REMARK                         _______ _______ _______ _____ _____    ______ ____
ROOT
ATOM      1  O   UNL     1      12.242   6.677   4.132  0.00  0.00    -0.336 OA
ATOM      6  N   UNL     1      10.535   5.268   4.475  0.00  0.00    -0.190 NA
ATOM      7  N   UNL     1      11.943   6.754   5.498  0.00  0.00    -0.056 NA
ATOM     15  C   UNL     1      11.367   5.782   3.604  0.00  0.00    +0.245 A 
ATOM     19  C   UNL     1      10.926   5.894   5.622  0.00  0.00    +0.205 A 
ENDROOT
BRANCH  19  22
ATOM      8  N   UNL     1       9.824   7.986   7.194  0.00  0.00    -0.326 N 
ATOM      9  N   UNL     1       9.121   6.440   8.842  0.00  0.00    -0.240 NA
ATOM     22  C   UNL     1      10.279   5.640   6.877  0.00  0.00    +0.062 A 
ATOM     24  C   UNL     1       9.736   6.649   7.657  0.00  0.00    +0.130 A 
ATOM     25  C   UNL     1      10.186   4.333   7.345  0.00  0.00    +0.016 A 
ATOM     27  C   UNL     1       9.559   4.079   8.559  0.00  0.00    +0.020 A 
ATOM     29  C   UNL     1       9.047   5.157   9.264  0.00  0.00    +0.113 A 
ATOM     32  H   UNL     1       9.941   8.107   6.194  0.00  0.00    +0.148 HD
BRANCH   8  28
ATOM     28  C   UNL     1       9.293   9.089   7.927  0.00  0.00    +0.131 C 
BRANCH  28  30
ATOM     30  C   UNL     1       9.635  10.392   7.224  0.00  0.00    +0.178 C 
BRANCH  30   4
ATOM      4  O   UNL     1       9.164  11.486   8.001  0.00  0.00    -0.381 OA
ATOM     31  C   UNL     1       9.464  11.314   9.378  0.00  0.00    +0.194 C 
ENDBRANCH  30   4
ENDBRANCH  28  30
ENDBRANCH   8  28
ENDBRANCH  19  22
BRANCH  15  10
ATOM      5  N   UNL     1      11.140   4.128   1.759  0.00  0.00    -0.287 NA
ATOM     10  C   UNL     1      11.486   5.518   2.118  0.00  0.00    +0.146 C 
ATOM     11  C   UNL     1      10.531   6.388   1.281  0.00  0.00    +0.030 C 
ATOM     12  C   UNL     1       9.730   5.403   0.440  0.00  0.00    +0.017 C 
ATOM     13  C   UNL     1      10.613   4.172   0.394  0.00  0.00    +0.085 C 
BRANCH   5  14
ATOM     14  C   UNL     1      12.261   3.205   1.884  0.00  0.00    +0.120 C 
BRANCH  14  16
ATOM     16  C   UNL     1      13.394   3.571   0.963  0.00  0.00    -0.033 A 
ATOM     17  C   UNL     1      13.181   3.634  -0.414  0.00  0.00    +0.006 A 
ATOM     18  C   UNL     1      14.656   3.848   1.488  0.00  0.00    +0.006 A 
ATOM     20  C   UNL     1      14.231   3.973  -1.266  0.00  0.00    +0.015 A 
ATOM     21  C   UNL     1      15.707   4.187   0.634  0.00  0.00    +0.015 A 
ATOM     23  C   UNL     1      15.494   4.250  -0.743  0.00  0.00    +0.059 A 
BRANCH  23  26
ATOM      3  O   UNL     1      16.532   4.626  -2.866  0.00  0.00    -0.245 OA
ATOM     26  C   UNL     1      16.590   4.605  -1.631  0.00  0.00    +0.337 C 
BRANCH  26   2
ATOM      2  O   UNL     1      17.727   4.924  -0.955  0.00  0.00    -0.477 OA
ATOM     33  H   UNL     1      18.532   4.702  -1.469  0.00  0.00    +0.295 HD
ENDBRANCH  26   2
ENDBRANCH  23  26
ENDBRANCH  14  16
ENDBRANCH   5  14
ENDBRANCH  15  10
TORSDOF 9
ENDMDL
