MODEL 1
REMARK VINA RESULT:      -6.1      0.000      0.000
REMARK  Name = 11883069
REMARK  11 active torsions:
REMARK  status: ('A' for Active; 'I' for Inactive)
REMARK    1  A    between atoms: O_2  and  C_15
REMARK    2  A    between atoms: O_3  and  C_20
REMARK    3  A    between atoms: N_8  and  C_26
REMARK    4  A    between atoms: N_8  and  C_27
REMARK    5  A    between atoms: C_10  and  C_18
REMARK    6  A    between atoms: C_12  and  C_20
REMARK    7  A    between atoms: C_12  and  C_21
REMARK    8  A    between atoms: C_13  and  C_23
REMARK    9  A    between atoms: C_23  and  C_24
REMARK   10  A    between atoms: C_26  and  C_29
REMARK   11  A    between atoms: C_28  and  C_30
REMARK                            x       y       z     vdW  Elec       q    Type
REMARK                         _______ _______ _______ _____ _____    ______ ____
ROOT
ATOM      1  S   UNL     1      14.219  13.856  17.582  0.00  0.00    -0.057 S 
ATOM      5  O   UNL     1      14.987  10.281  14.756  0.00  0.00    -0.266 OA
ATOM      7  N   UNL     1      13.961  11.298  17.288  0.00  0.00    -0.229 NA
ATOM      9  N   UNL     1      14.996  12.503  15.475  0.00  0.00    -0.258 N 
ATOM     10  C   UNL     1      12.684  11.141  20.923  0.00  0.00    -0.019 C 
ATOM     11  C   UNL     1      12.045  12.597  20.846  0.00  0.00    +0.011 C 
ATOM     12  C   UNL     1      11.429  13.181  22.175  0.00  0.00    +0.021 C 
ATOM     13  C   UNL     1      12.836  10.589  19.432  0.00  0.00    +0.054 C 
ATOM     14  C   UNL     1      11.726  10.199  21.698  0.00  0.00    +0.010 C 
ATOM     15  C   UNL     1      10.536  12.097  22.845  0.00  0.00    +0.123 C 
ATOM     16  C   UNL     1      12.985  13.591  20.102  0.00  0.00    +0.049 C 
ATOM     17  C   UNL     1      11.251  10.763  23.030  0.00  0.00    +0.032 C 
ATOM     18  C   UNL     1      14.067  11.127  21.621  0.00  0.00    +0.012 C 
ATOM     19  C   UNL     1      13.444  11.630  18.528  0.00  0.00    +0.058 A 
ATOM     21  C   UNL     1      10.507  14.384  21.822  0.00  0.00    +0.016 C 
ATOM     22  C   UNL     1      13.484  12.973  18.840  0.00  0.00    +0.015 A 
ATOM     25  C   UNL     1      14.404  12.391  16.705  0.00  0.00    +0.165 A 
ATOM     28  C   UNL     1      15.264  11.462  14.558  0.00  0.00    +0.285 C 
ATOM     37  H   UNL     1      15.272  13.446  15.216  0.00  0.00    +0.157 HD
ENDROOT
BRANCH  28  30
ATOM      6  O   UNL     1      17.287  12.149  13.406  0.00  0.00    -0.458 OA
ATOM     30  C   UNL     1      15.958  11.878  13.326  0.00  0.00    +0.189 A 
ATOM     32  C   UNL     1      15.504  12.059  12.040  0.00  0.00    +0.054 A 
ATOM     33  C   UNL     1      16.627  12.466  11.281  0.00  0.00    +0.042 A 
ATOM     34  C   UNL     1      17.687  12.505  12.157  0.00  0.00    +0.196 A 
ENDBRANCH  28  30
BRANCH  15   2
ATOM      2  O   UNL     1      10.067  12.547  24.114  0.00  0.00    -0.391 OA
ATOM     35  H   UNL     1       9.533  11.832  24.501  0.00  0.00    +0.210 HD
ENDBRANCH  15   2
BRANCH  12  20
ATOM     20  C   UNL     1      12.468  13.735  23.174  0.00  0.00    +0.165 C 
BRANCH  20   3
ATOM      3  O   UNL     1      11.980  14.963  23.667  0.00  0.00    -0.394 OA
ATOM     36  H   UNL     1      11.126  15.131  23.233  0.00  0.00    +0.209 HD
ENDBRANCH  20   3
ENDBRANCH  12  20
BRANCH  13  23
ATOM     23  C   UNL     1      13.573   9.248  19.320  0.00  0.00    +0.106 C 
BRANCH  23  24
ATOM      4  O   UNL     1      11.714   7.995  18.471  0.00  0.00    -0.276 OA
ATOM      8  N   UNL     1      12.841   7.098  20.290  0.00  0.00    -0.301 N 
ATOM     24  C   UNL     1      12.618   8.068  19.307  0.00  0.00    +0.216 C 
ATOM     27  C   UNL     1      13.916   7.207  21.267  0.00  0.00    +0.132 C 
BRANCH   8  26
ATOM     26  C   UNL     1      12.011   5.902  20.410  0.00  0.00    +0.134 C 
BRANCH  26  29
ATOM     29  C   UNL     1      11.202   5.994  21.662  0.00  0.00    -0.016 C 
ATOM     31  C   UNL     1      10.358   6.997  21.932  0.00  0.00    +0.005 C 
ENDBRANCH  26  29
ENDBRANCH   8  26
ENDBRANCH  23  24
ENDBRANCH  13  23
TORSDOF 8
ENDMDL
MODEL 2
REMARK VINA RESULT:      -6.0     14.562     20.433
REMARK  Name = 11883069
REMARK  11 active torsions:
REMARK  status: ('A' for Active; 'I' for Inactive)
REMARK    1  A    between atoms: O_2  and  C_15
REMARK    2  A    between atoms: O_3  and  C_20
REMARK    3  A    between atoms: N_8  and  C_26
REMARK    4  A    between atoms: N_8  and  C_27
REMARK    5  A    between atoms: C_10  and  C_18
REMARK    6  A    between atoms: C_12  and  C_20
REMARK    7  A    between atoms: C_12  and  C_21
REMARK    8  A    between atoms: C_13  and  C_23
REMARK    9  A    between atoms: C_23  and  C_24
REMARK   10  A    between atoms: C_26  and  C_29
REMARK   11  A    between atoms: C_28  and  C_30
REMARK                            x       y       z     vdW  Elec       q    Type
REMARK                         _______ _______ _______ _____ _____    ______ ____
ROOT
ATOM      1  S   UNL     1      11.182   3.679   2.683  0.00  0.00    -0.057 S 
ATOM      5  O   UNL     1       9.186   6.993   5.212  0.00  0.00    -0.266 OA
ATOM      7  N   UNL     1      10.110   6.033   2.618  0.00  0.00    -0.229 NA
ATOM      9  N   UNL     1      10.215   4.944   4.766  0.00  0.00    -0.258 N 
ATOM     10  C   UNL     1      11.139   6.256  -1.091  0.00  0.00    -0.019 C 
ATOM     11  C   UNL     1      11.002   4.685  -1.307  0.00  0.00    +0.011 C 
ATOM     12  C   UNL     1      11.438   4.113  -2.709  0.00  0.00    +0.021 C 
ATOM     13  C   UNL     1      10.258   6.659   0.179  0.00  0.00    +0.054 C 
ATOM     14  C   UNL     1      10.577   6.997  -2.332  0.00  0.00    +0.010 C 
ATOM     15  C   UNL     1      10.828   4.996  -3.835  0.00  0.00    +0.123 C 
ATOM     16  C   UNL     1      11.582   3.893  -0.098  0.00  0.00    +0.049 C 
ATOM     17  C   UNL     1      11.119   6.482  -3.657  0.00  0.00    +0.032 C 
ATOM     18  C   UNL     1      12.604   6.706  -0.865  0.00  0.00    +0.012 C 
ATOM     19  C   UNL     1      10.504   5.718   1.330  0.00  0.00    +0.058 A 
ATOM     21  C   UNL     1      10.855   2.681  -2.878  0.00  0.00    +0.016 C 
ATOM     22  C   UNL     1      11.082   4.475   1.180  0.00  0.00    +0.015 A 
ATOM     25  C   UNL     1      10.423   5.035   3.415  0.00  0.00    +0.165 A 
ATOM     28  C   UNL     1       9.614   5.910   5.605  0.00  0.00    +0.285 C 
ATOM     37  H   UNL     1      10.542   4.082   5.194  0.00  0.00    +0.157 HD
ENDROOT
BRANCH  28  30
ATOM      6  O   UNL     1       9.804   4.260   7.375  0.00  0.00    -0.458 OA
ATOM     30  C   UNL     1       9.568   5.554   7.034  0.00  0.00    +0.189 A 
ATOM     32  C   UNL     1       9.320   6.311   8.155  0.00  0.00    +0.054 A 
ATOM     33  C   UNL     1       9.410   5.425   9.256  0.00  0.00    +0.042 A 
ATOM     34  C   UNL     1       9.706   4.190   8.728  0.00  0.00    +0.196 A 
ENDBRANCH  28  30
BRANCH  15   2
ATOM      2  O   UNL     1      11.308   4.584  -5.113  0.00  0.00    -0.391 OA
ATOM     35  H   UNL     1      11.642   5.374  -5.572  0.00  0.00    +0.210 HD
ENDBRANCH  15   2
BRANCH  12  20
ATOM     20  C   UNL     1      12.965   3.963  -2.893  0.00  0.00    +0.165 C 
BRANCH  20   3
ATOM      3  O   UNL     1      13.189   2.894  -3.786  0.00  0.00    -0.394 OA
ATOM     36  H   UNL     1      14.043   2.494  -3.550  0.00  0.00    +0.209 HD
ENDBRANCH  20   3
ENDBRANCH  12  20
BRANCH  13  23
ATOM     23  C   UNL     1      10.396   8.125   0.612  0.00  0.00    +0.106 C 
BRANCH  23  24
ATOM      4  O   UNL     1       8.275   8.763  -0.305  0.00  0.00    -0.276 OA
ATOM      8  N   UNL     1       8.794   9.578   1.804  0.00  0.00    -0.301 N 
ATOM     24  C   UNL     1       9.059   8.842   0.644  0.00  0.00    +0.216 C 
ATOM     27  C   UNL     1       9.737   9.657   2.913  0.00  0.00    +0.132 C 
BRANCH   8  26
ATOM     26  C   UNL     1       7.552  10.324   1.991  0.00  0.00    +0.134 C 
BRANCH  26  29
ATOM     29  C   UNL     1       6.721   9.636   3.022  0.00  0.00    -0.016 C 
ATOM     31  C   UNL     1       5.936  10.276   3.897  0.00  0.00    +0.005 C 
ENDBRANCH  26  29
ENDBRANCH   8  26
ENDBRANCH  23  24
ENDBRANCH  13  23
TORSDOF 8
ENDMDL
MODEL 3
REMARK VINA RESULT:      -6.0      5.831      8.207
REMARK  Name = 11883069
REMARK  11 active torsions:
REMARK  status: ('A' for Active; 'I' for Inactive)
REMARK    1  A    between atoms: O_2  and  C_15
REMARK    2  A    between atoms: O_3  and  C_20
REMARK    3  A    between atoms: N_8  and  C_26
REMARK    4  A    between atoms: N_8  and  C_27
REMARK    5  A    between atoms: C_10  and  C_18
REMARK    6  A    between atoms: C_12  and  C_20
REMARK    7  A    between atoms: C_12  and  C_21
REMARK    8  A    between atoms: C_13  and  C_23
REMARK    9  A    between atoms: C_23  and  C_24
REMARK   10  A    between atoms: C_26  and  C_29
REMARK   11  A    between atoms: C_28  and  C_30
REMARK                            x       y       z     vdW  Elec       q    Type
REMARK                         _______ _______ _______ _____ _____    ______ ____
ROOT
ATOM      1  S   UNL     1      17.604   5.959  19.623  0.00  0.00    -0.057 S 
ATOM      5  O   UNL     1      21.224   8.180  21.446  0.00  0.00    -0.266 OA
ATOM      7  N   UNL     1      18.370   8.103  20.851  0.00  0.00    -0.229 NA
ATOM      9  N   UNL     1      20.069   6.466  20.357  0.00  0.00    -0.258 N 
ATOM     10  C   UNL     1      14.799   9.483  20.396  0.00  0.00    -0.019 C 
ATOM     11  C   UNL     1      14.145   8.033  20.456  0.00  0.00    +0.011 C 
ATOM     12  C   UNL     1      12.593   7.934  20.193  0.00  0.00    +0.021 C 
ATOM     13  C   UNL     1      16.228   9.410  21.106  0.00  0.00    +0.054 C 
ATOM     14  C   UNL     1      13.911  10.481  21.184  0.00  0.00    +0.010 C 
ATOM     15  C   UNL     1      11.863   9.030  21.021  0.00  0.00    +0.123 C 
ATOM     16  C   UNL     1      14.984   6.997  19.652  0.00  0.00    +0.049 C 
ATOM     17  C   UNL     1      12.437  10.426  20.808  0.00  0.00    +0.032 C 
ATOM     18  C   UNL     1      14.969  10.006  18.948  0.00  0.00    +0.012 C 
ATOM     19  C   UNL     1      17.009   8.212  20.630  0.00  0.00    +0.058 A 
ATOM     21  C   UNL     1      12.079   6.555  20.696  0.00  0.00    +0.016 C 
ATOM     22  C   UNL     1      16.428   7.133  19.997  0.00  0.00    +0.015 A 
ATOM     25  C   UNL     1      18.791   6.959  20.357  0.00  0.00    +0.165 A 
ATOM     28  C   UNL     1      21.223   7.082  20.892  0.00  0.00    +0.285 C 
ATOM     37  H   UNL     1      20.179   5.558  19.912  0.00  0.00    +0.157 HD
ENDROOT
BRANCH  28  30
ATOM      6  O   UNL     1      22.387   5.005  20.421  0.00  0.00    -0.458 OA
ATOM     30  C   UNL     1      22.477   6.331  20.702  0.00  0.00    +0.189 A 
ATOM     32  C   UNL     1      23.793   6.726  20.758  0.00  0.00    +0.054 A 
ATOM     33  C   UNL     1      24.562   5.567  20.492  0.00  0.00    +0.042 A 
ATOM     34  C   UNL     1      23.660   4.548  20.293  0.00  0.00    +0.196 A 
ENDBRANCH  28  30
BRANCH  15   2
ATOM      2  O   UNL     1      10.472   9.053  20.707  0.00  0.00    -0.391 OA
ATOM     35  H   UNL     1      10.388   9.190  19.747  0.00  0.00    +0.210 HD
ENDBRANCH  15   2
BRANCH  12  20
ATOM     20  C   UNL     1      12.190   8.009  18.704  0.00  0.00    +0.165 C 
BRANCH  20   3
ATOM      3  O   UNL     1      12.034   6.689  18.233  0.00  0.00    -0.394 OA
ATOM     36  H   UNL     1      12.213   6.699  17.277  0.00  0.00    +0.209 HD
ENDBRANCH  20   3
ENDBRANCH  12  20
BRANCH  13  23
ATOM     23  C   UNL     1      17.056  10.698  21.006  0.00  0.00    +0.106 C 
BRANCH  23  24
ATOM      4  O   UNL     1      16.451  11.485  23.187  0.00  0.00    -0.276 OA
ATOM      8  N   UNL     1      18.696  11.606  22.614  0.00  0.00    -0.301 N 
ATOM     24  C   UNL     1      17.354  11.296  22.368  0.00  0.00    +0.216 C 
ATOM     27  C   UNL     1      19.745  11.373  21.629  0.00  0.00    +0.132 C 
BRANCH   8  26
ATOM     26  C   UNL     1      19.146  12.186  23.876  0.00  0.00    +0.134 C 
BRANCH  26  29
ATOM     29  C   UNL     1      20.293  11.386  24.399  0.00  0.00    -0.016 C 
ATOM     31  C   UNL     1      20.258  10.692  25.543  0.00  0.00    +0.005 C 
ENDBRANCH  26  29
ENDBRANCH   8  26
ENDBRANCH  23  24
ENDBRANCH  13  23
TORSDOF 8
ENDMDL
MODEL 4
REMARK VINA RESULT:      -6.0      5.424      8.320
REMARK  Name = 11883069
REMARK  11 active torsions:
REMARK  status: ('A' for Active; 'I' for Inactive)
REMARK    1  A    between atoms: O_2  and  C_15
REMARK    2  A    between atoms: O_3  and  C_20
REMARK    3  A    between atoms: N_8  and  C_26
REMARK    4  A    between atoms: N_8  and  C_27
REMARK    5  A    between atoms: C_10  and  C_18
REMARK    6  A    between atoms: C_12  and  C_20
REMARK    7  A    between atoms: C_12  and  C_21
REMARK    8  A    between atoms: C_13  and  C_23
REMARK    9  A    between atoms: C_23  and  C_24
REMARK   10  A    between atoms: C_26  and  C_29
REMARK   11  A    between atoms: C_28  and  C_30
REMARK                            x       y       z     vdW  Elec       q    Type
REMARK                         _______ _______ _______ _____ _____    ______ ____
ROOT
ATOM      1  S   UNL     1      18.047   6.384  20.342  0.00  0.00    -0.057 S 
ATOM      5  O   UNL     1      20.652   8.819  23.282  0.00  0.00    -0.266 OA
ATOM      7  N   UNL     1      18.122   8.465  21.877  0.00  0.00    -0.229 NA
ATOM      9  N   UNL     1      20.108   7.103  21.794  0.00  0.00    -0.258 N 
ATOM     10  C   UNL     1      14.661   9.450  20.492  0.00  0.00    -0.019 C 
ATOM     11  C   UNL     1      14.232   7.933  20.263  0.00  0.00    +0.011 C 
ATOM     12  C   UNL     1      12.848   7.679  19.553  0.00  0.00    +0.021 C 
ATOM     13  C   UNL     1      15.828   9.474  21.581  0.00  0.00    +0.054 C 
ATOM     14  C   UNL     1      13.454  10.247  21.050  0.00  0.00    +0.010 C 
ATOM     15  C   UNL     1      11.764   8.587  20.202  0.00  0.00    +0.123 C 
ATOM     16  C   UNL     1      15.403   7.095  19.673  0.00  0.00    +0.049 C 
ATOM     17  C   UNL     1      12.168  10.056  20.258  0.00  0.00    +0.032 C 
ATOM     18  C   UNL     1      15.153  10.137  19.194  0.00  0.00    +0.012 C 
ATOM     19  C   UNL     1      16.876   8.434  21.277  0.00  0.00    +0.058 A 
ATOM     21  C   UNL     1      12.417   6.203  19.793  0.00  0.00    +0.016 C 
ATOM     22  C   UNL     1      16.658   7.365  20.432  0.00  0.00    +0.015 A 
ATOM     25  C   UNL     1      18.824   7.437  21.453  0.00  0.00    +0.165 A 
ATOM     28  C   UNL     1      20.965   7.793  22.681  0.00  0.00    +0.285 C 
ATOM     37  H   UNL     1      20.468   6.266  21.342  0.00  0.00    +0.157 HD
ENDROOT
BRANCH  28  30
ATOM      6  O   UNL     1      22.440   6.030  23.459  0.00  0.00    -0.458 OA
ATOM     30  C   UNL     1      22.316   7.220  22.817  0.00  0.00    +0.189 A 
ATOM     32  C   UNL     1      23.545   7.676  22.401  0.00  0.00    +0.054 A 
ATOM     33  C   UNL     1      24.486   6.701  22.814  0.00  0.00    +0.042 A 
ATOM     34  C   UNL     1      23.763   5.720  23.452  0.00  0.00    +0.196 A 
ENDBRANCH  28  30
BRANCH  15   2
ATOM      2  O   UNL     1      10.529   8.477  19.498  0.00  0.00    -0.391 OA
ATOM     35  H   UNL     1      10.723   8.553  18.548  0.00  0.00    +0.210 HD
ENDBRANCH  15   2
BRANCH  12  20
ATOM     20  C   UNL     1      12.872   7.860  18.019  0.00  0.00    +0.165 C 
BRANCH  20   3
ATOM      3  O   UNL     1      11.945   6.953  17.464  0.00  0.00    -0.394 OA
ATOM     36  H   UNL     1      11.402   7.448  16.826  0.00  0.00    +0.209 HD
ENDBRANCH  20   3
ENDBRANCH  12  20
BRANCH  13  23
ATOM     23  C   UNL     1      16.458  10.855  21.811  0.00  0.00    +0.106 C 
BRANCH  23  24
ATOM      4  O   UNL     1      15.332  11.300  23.881  0.00  0.00    -0.276 OA
ATOM      8  N   UNL     1      15.257  12.964  22.266  0.00  0.00    -0.301 N 
ATOM     24  C   UNL     1      15.634  11.710  22.757  0.00  0.00    +0.216 C 
ATOM     27  C   UNL     1      15.625  13.425  20.933  0.00  0.00    +0.132 C 
BRANCH   8  26
ATOM     26  C   UNL     1      14.464  13.906  23.051  0.00  0.00    +0.134 C 
BRANCH  26  29
ATOM     29  C   UNL     1      13.020  13.723  22.720  0.00  0.00    -0.016 C 
ATOM     31  C   UNL     1      12.159  13.042  23.485  0.00  0.00    +0.005 C 
ENDBRANCH  26  29
ENDBRANCH   8  26
ENDBRANCH  23  24
ENDBRANCH  13  23
TORSDOF 8
ENDMDL
MODEL 5
REMARK VINA RESULT:      -5.9     20.568     24.589
REMARK  Name = 11883069
REMARK  11 active torsions:
REMARK  status: ('A' for Active; 'I' for Inactive)
REMARK    1  A    between atoms: O_2  and  C_15
REMARK    2  A    between atoms: O_3  and  C_20
REMARK    3  A    between atoms: N_8  and  C_26
REMARK    4  A    between atoms: N_8  and  C_27
REMARK    5  A    between atoms: C_10  and  C_18
REMARK    6  A    between atoms: C_12  and  C_20
REMARK    7  A    between atoms: C_12  and  C_21
REMARK    8  A    between atoms: C_13  and  C_23
REMARK    9  A    between atoms: C_23  and  C_24
REMARK   10  A    between atoms: C_26  and  C_29
REMARK   11  A    between atoms: C_28  and  C_30
REMARK                            x       y       z     vdW  Elec       q    Type
REMARK                         _______ _______ _______ _____ _____    ______ ____
ROOT
ATOM      1  S   UNL     1      -4.530  13.220  33.611  0.00  0.00    -0.057 S 
ATOM      5  O   UNL     1      -0.171  12.286  34.826  0.00  0.00    -0.266 OA
ATOM      7  N   UNL     1      -3.023  11.760  35.123  0.00  0.00    -0.229 NA
ATOM      9  N   UNL     1      -1.913  13.344  33.686  0.00  0.00    -0.258 N 
ATOM     10  C   UNL     1      -6.229  10.383  36.766  0.00  0.00    -0.019 C 
ATOM     11  C   UNL     1      -7.078  10.544  35.429  0.00  0.00    +0.011 C 
ATOM     12  C   UNL     1      -8.620  10.224  35.517  0.00  0.00    +0.021 C 
ATOM     13  C   UNL     1      -4.684  10.322  36.365  0.00  0.00    +0.054 C 
ATOM     14  C   UNL     1      -6.607   9.049  37.459  0.00  0.00    +0.010 C 
ATOM     15  C   UNL     1      -8.822   8.882  36.278  0.00  0.00    +0.123 C 
ATOM     16  C   UNL     1      -6.757  11.887  34.710  0.00  0.00    +0.049 C 
ATOM     17  C   UNL     1      -8.106   8.842  37.623  0.00  0.00    +0.032 C 
ATOM     18  C   UNL     1      -6.456  11.544  37.766  0.00  0.00    +0.012 C 
ATOM     19  C   UNL     1      -4.336  11.408  35.379  0.00  0.00    +0.058 A 
ATOM     21  C   UNL     1      -9.181  10.029  34.079  0.00  0.00    +0.016 C 
ATOM     22  C   UNL     1      -5.281  12.084  34.634  0.00  0.00    +0.015 A 
ATOM     25  C   UNL     1      -3.006  12.710  34.214  0.00  0.00    +0.165 A 
ATOM     28  C   UNL     1      -0.555  13.115  34.004  0.00  0.00    +0.285 C 
ATOM     37  H   UNL     1      -2.124  14.059  32.994  0.00  0.00    +0.157 HD
ENDROOT
BRANCH  28  30
ATOM      6  O   UNL     1       1.230  14.758  34.060  0.00  0.00    -0.458 OA
ATOM     30  C   UNL     1       0.406  13.986  33.305  0.00  0.00    +0.189 A 
ATOM     32  C   UNL     1       0.648  14.187  31.965  0.00  0.00    +0.054 A 
ATOM     33  C   UNL     1       1.690  15.143  31.894  0.00  0.00    +0.042 A 
ATOM     34  C   UNL     1       2.009  15.458  33.194  0.00  0.00    +0.196 A 
ENDBRANCH  28  30
BRANCH  15   2
ATOM      2  O   UNL     1     -10.210   8.628  36.488  0.00  0.00    -0.391 OA
ATOM     35  H   UNL     1     -10.708   9.358  36.081  0.00  0.00    +0.210 HD
ENDBRANCH  15   2
BRANCH  12  20
ATOM     20  C   UNL     1      -9.473  11.348  36.145  0.00  0.00    +0.165 C 
BRANCH  20   3
ATOM      3  O   UNL     1     -10.755  11.294  35.560  0.00  0.00    -0.394 OA
ATOM     36  H   UNL     1     -11.342  11.852  36.098  0.00  0.00    +0.209 HD
ENDBRANCH  20   3
ENDBRANCH  12  20
BRANCH  13  23
ATOM     23  C   UNL     1      -3.715  10.314  37.555  0.00  0.00    +0.106 C 
BRANCH  23  24
ATOM      4  O   UNL     1      -1.915   9.080  36.562  0.00  0.00    -0.276 OA
ATOM      8  N   UNL     1      -2.819   8.225  38.520  0.00  0.00    -0.301 N 
ATOM     24  C   UNL     1      -2.731   9.161  37.484  0.00  0.00    +0.216 C 
ATOM     27  C   UNL     1      -3.792   8.341  39.599  0.00  0.00    +0.132 C 
BRANCH   8  26
ATOM     26  C   UNL     1      -1.942   7.059  38.598  0.00  0.00    +0.134 C 
BRANCH  26  29
ATOM     29  C   UNL     1      -2.261   6.291  39.837  0.00  0.00    -0.016 C 
ATOM     31  C   UNL     1      -1.756   5.083  40.117  0.00  0.00    +0.005 C 
ENDBRANCH  26  29
ENDBRANCH   8  26
ENDBRANCH  23  24
ENDBRANCH  13  23
TORSDOF 8
ENDMDL
MODEL 6
REMARK VINA RESULT:      -5.9      1.857      2.477
REMARK  Name = 11883069
REMARK  11 active torsions:
REMARK  status: ('A' for Active; 'I' for Inactive)
REMARK    1  A    between atoms: O_2  and  C_15
REMARK    2  A    between atoms: O_3  and  C_20
REMARK    3  A    between atoms: N_8  and  C_26
REMARK    4  A    between atoms: N_8  and  C_27
REMARK    5  A    between atoms: C_10  and  C_18
REMARK    6  A    between atoms: C_12  and  C_20
REMARK    7  A    between atoms: C_12  and  C_21
REMARK    8  A    between atoms: C_13  and  C_23
REMARK    9  A    between atoms: C_23  and  C_24
REMARK   10  A    between atoms: C_26  and  C_29
REMARK   11  A    between atoms: C_28  and  C_30
REMARK                            x       y       z     vdW  Elec       q    Type
REMARK                         _______ _______ _______ _____ _____    ______ ____
ROOT
ATOM      1  S   UNL     1      13.628  14.441  19.267  0.00  0.00    -0.057 S 
ATOM      5  O   UNL     1      13.819  10.854  16.359  0.00  0.00    -0.266 OA
ATOM      7  N   UNL     1      13.197  11.903  19.008  0.00  0.00    -0.229 NA
ATOM      9  N   UNL     1      14.043  13.066  17.074  0.00  0.00    -0.258 N 
ATOM     10  C   UNL     1      12.410  11.784  22.780  0.00  0.00    -0.019 C 
ATOM     11  C   UNL     1      11.845  13.273  22.791  0.00  0.00    +0.011 C 
ATOM     12  C   UNL     1      11.443  13.877  24.191  0.00  0.00    +0.021 C 
ATOM     13  C   UNL     1      12.331  11.237  21.282  0.00  0.00    +0.054 C 
ATOM     14  C   UNL     1      11.515  10.888  23.676  0.00  0.00    +0.010 C 
ATOM     15  C   UNL     1      10.592  12.836  24.973  0.00  0.00    +0.123 C 
ATOM     16  C   UNL     1      12.729  14.221  21.929  0.00  0.00    +0.049 C 
ATOM     17  C   UNL     1      11.253  11.465  25.060  0.00  0.00    +0.032 C 
ATOM     18  C   UNL     1      13.870  11.691  23.287  0.00  0.00    +0.012 C 
ATOM     19  C   UNL     1      12.868  12.252  20.305  0.00  0.00    +0.058 A 
ATOM     21  C   UNL     1      10.549  15.129  23.965  0.00  0.00    +0.016 C 
ATOM     22  C   UNL     1      13.021  13.588  20.611  0.00  0.00    +0.015 A 
ATOM     25  C   UNL     1      13.615  12.976  18.372  0.00  0.00    +0.165 A 
ATOM     28  C   UNL     1      14.130  12.020  16.127  0.00  0.00    +0.285 C 
ATOM     37  H   UNL     1      14.332  13.996  16.780  0.00  0.00    +0.157 HD
ENDROOT
BRANCH  28  30
ATOM      6  O   UNL     1      14.278  11.699  13.726  0.00  0.00    -0.458 OA
ATOM     30  C   UNL     1      14.674  12.409  14.814  0.00  0.00    +0.189 A 
ATOM     32  C   UNL     1      15.553  13.403  14.450  0.00  0.00    +0.054 A 
ATOM     33  C   UNL     1      15.706  13.297  13.047  0.00  0.00    +0.042 A 
ATOM     34  C   UNL     1      14.910  12.246  12.654  0.00  0.00    +0.196 A 
ENDBRANCH  28  30
BRANCH  15   2
ATOM      2  O   UNL     1      10.321  13.300  26.294  0.00  0.00    -0.391 OA
ATOM     35  H   UNL     1       9.464  13.759  26.275  0.00  0.00    +0.210 HD
ENDBRANCH  15   2
BRANCH  12  20
ATOM     20  C   UNL     1      12.635  14.367  25.043  0.00  0.00    +0.165 C 
BRANCH  20   3
ATOM      3  O   UNL     1      12.192  15.462  25.814  0.00  0.00    -0.394 OA
ATOM     36  H   UNL     1      12.695  15.452  26.646  0.00  0.00    +0.209 HD
ENDBRANCH  20   3
ENDBRANCH  12  20
BRANCH  13  23
ATOM     23  C   UNL     1      12.974   9.860  21.071  0.00  0.00    +0.106 C 
BRANCH  23  24
ATOM      4  O   UNL     1      10.956   8.869  20.238  0.00  0.00    -0.276 OA
ATOM      8  N   UNL     1      12.916   8.373  19.100  0.00  0.00    -0.301 N 
ATOM     24  C   UNL     1      12.177   8.995  20.112  0.00  0.00    +0.216 C 
ATOM     27  C   UNL     1      14.358   8.538  18.971  0.00  0.00    +0.132 C 
BRANCH   8  26
ATOM     26  C   UNL     1      12.297   7.510  18.097  0.00  0.00    +0.134 C 
BRANCH  26  29
ATOM     29  C   UNL     1      11.834   8.348  16.952  0.00  0.00    -0.016 C 
ATOM     31  C   UNL     1      10.546   8.560  16.656  0.00  0.00    +0.005 C 
ENDBRANCH  26  29
ENDBRANCH   8  26
ENDBRANCH  23  24
ENDBRANCH  13  23
TORSDOF 8
ENDMDL
MODEL 7
REMARK VINA RESULT:      -5.8     26.763     30.634
REMARK  Name = 11883069
REMARK  11 active torsions:
REMARK  status: ('A' for Active; 'I' for Inactive)
REMARK    1  A    between atoms: O_2  and  C_15
REMARK    2  A    between atoms: O_3  and  C_20
REMARK    3  A    between atoms: N_8  and  C_26
REMARK    4  A    between atoms: N_8  and  C_27
REMARK    5  A    between atoms: C_10  and  C_18
REMARK    6  A    between atoms: C_12  and  C_20
REMARK    7  A    between atoms: C_12  and  C_21
REMARK    8  A    between atoms: C_13  and  C_23
REMARK    9  A    between atoms: C_23  and  C_24
REMARK   10  A    between atoms: C_26  and  C_29
REMARK   11  A    between atoms: C_28  and  C_30
REMARK                            x       y       z     vdW  Elec       q    Type
REMARK                         _______ _______ _______ _____ _____    ______ ____
ROOT
ATOM      1  S   UNL     1      -8.633  -9.622  12.739  0.00  0.00    -0.057 S 
ATOM      5  O   UNL     1      -4.670 -10.324  15.010  0.00  0.00    -0.266 OA
ATOM      7  N   UNL     1      -6.080  -9.956  12.484  0.00  0.00    -0.229 NA
ATOM      9  N   UNL     1      -6.964  -9.990  14.726  0.00  0.00    -0.258 N 
ATOM     10  C   UNL     1      -6.602 -10.027   8.665  0.00  0.00    -0.019 C 
ATOM     11  C   UNL     1      -7.851  -9.043   8.737  0.00  0.00    +0.011 C 
ATOM     12  C   UNL     1      -8.624  -8.765   7.391  0.00  0.00    +0.021 C 
ATOM     13  C   UNL     1      -5.733  -9.820   9.989  0.00  0.00    +0.054 C 
ATOM     14  C   UNL     1      -5.724  -9.655   7.441  0.00  0.00    +0.010 C 
ATOM     15  C   UNL     1      -7.597  -8.456   6.264  0.00  0.00    +0.123 C 
ATOM     16  C   UNL     1      -8.783  -9.395   9.934  0.00  0.00    +0.049 C 
ATOM     17  C   UNL     1      -6.505  -9.513   6.142  0.00  0.00    +0.032 C 
ATOM     18  C   UNL     1      -7.015 -11.515   8.546  0.00  0.00    +0.012 C 
ATOM     19  C   UNL     1      -6.610  -9.806  11.215  0.00  0.00    +0.058 A 
ATOM     21  C   UNL     1      -9.512  -7.500   7.566  0.00  0.00    +0.016 C 
ATOM     22  C   UNL     1      -7.972  -9.595  11.169  0.00  0.00    +0.015 A 
ATOM     25  C   UNL     1      -7.055  -9.883  13.364  0.00  0.00    +0.165 A 
ATOM     28  C   UNL     1      -5.794 -10.203  15.491  0.00  0.00    +0.285 C 
ATOM     37  H   UNL     1      -7.847  -9.910  15.224  0.00  0.00    +0.157 HD
ENDROOT
BRANCH  28  30
ATOM      6  O   UNL     1      -7.267 -10.116  17.418  0.00  0.00    -0.458 OA
ATOM     30  C   UNL     1      -6.011 -10.322  16.943  0.00  0.00    +0.189 A 
ATOM     32  C   UNL     1      -5.147 -10.616  17.973  0.00  0.00    +0.054 A 
ATOM     33  C   UNL     1      -5.923 -10.590  19.156  0.00  0.00    +0.042 A 
ATOM     34  C   UNL     1      -7.206 -10.281  18.765  0.00  0.00    +0.196 A 
ENDBRANCH  28  30
BRANCH  15   2
ATOM      2  O   UNL     1      -8.255  -8.328   5.005  0.00  0.00    -0.391 OA
ATOM     35  H   UNL     1      -9.213  -8.368   5.168  0.00  0.00    +0.210 HD
ENDBRANCH  15   2
BRANCH  12  20
ATOM     20  C   UNL     1      -9.589  -9.893   6.962  0.00  0.00    +0.165 C 
BRANCH  20   3
ATOM      3  O   UNL     1     -10.685  -9.296   6.304  0.00  0.00    -0.394 OA
ATOM     36  H   UNL     1     -11.457  -9.384   6.889  0.00  0.00    +0.209 HD
ENDBRANCH  20   3
ENDBRANCH  12  20
BRANCH  13  23
ATOM     23  C   UNL     1      -4.564 -10.802  10.145  0.00  0.00    +0.106 C 
BRANCH  23  24
ATOM      4  O   UNL     1      -2.912  -9.071  10.287  0.00  0.00    -0.276 OA
ATOM      8  N   UNL     1      -2.736 -10.816  11.805  0.00  0.00    -0.301 N 
ATOM     24  C   UNL     1      -3.334 -10.139  10.737  0.00  0.00    +0.216 C 
ATOM     27  C   UNL     1      -3.255 -12.078  12.320  0.00  0.00    +0.132 C 
BRANCH   8  26
ATOM     26  C   UNL     1      -1.547 -10.310  12.485  0.00  0.00    +0.134 C 
BRANCH  26  29
ATOM     29  C   UNL     1      -1.627 -10.660  13.934  0.00  0.00    -0.016 C 
ATOM     31  C   UNL     1      -1.198  -9.862  14.919  0.00  0.00    +0.005 C 
ENDBRANCH  26  29
ENDBRANCH   8  26
ENDBRANCH  23  24
ENDBRANCH  13  23
TORSDOF 8
ENDMDL
MODEL 8
REMARK VINA RESULT:      -5.8     29.176     32.660
REMARK  Name = 11883069
REMARK  11 active torsions:
REMARK  status: ('A' for Active; 'I' for Inactive)
REMARK    1  A    between atoms: O_2  and  C_15
REMARK    2  A    between atoms: O_3  and  C_20
REMARK    3  A    between atoms: N_8  and  C_26
REMARK    4  A    between atoms: N_8  and  C_27
REMARK    5  A    between atoms: C_10  and  C_18
REMARK    6  A    between atoms: C_12  and  C_20
REMARK    7  A    between atoms: C_12  and  C_21
REMARK    8  A    between atoms: C_13  and  C_23
REMARK    9  A    between atoms: C_23  and  C_24
REMARK   10  A    between atoms: C_26  and  C_29
REMARK   11  A    between atoms: C_28  and  C_30
REMARK                            x       y       z     vdW  Elec       q    Type
REMARK                         _______ _______ _______ _____ _____    ______ ____
ROOT
ATOM      1  S   UNL     1     -10.887 -11.030  19.252  0.00  0.00    -0.057 S 
ATOM      5  O   UNL     1      -7.338  -9.191  16.933  0.00  0.00    -0.266 OA
ATOM      7  N   UNL     1     -10.202  -9.285  17.470  0.00  0.00    -0.229 NA
ATOM      9  N   UNL     1      -8.430 -10.594  18.447  0.00  0.00    -0.258 N 
ATOM     10  C   UNL     1     -13.952  -8.623  16.866  0.00  0.00    -0.019 C 
ATOM     11  C   UNL     1     -14.337  -8.959  18.374  0.00  0.00    +0.011 C 
ATOM     12  C   UNL     1     -15.871  -8.974  18.736  0.00  0.00    +0.021 C 
ATOM     13  C   UNL     1     -12.404  -8.234  16.825  0.00  0.00    +0.054 C 
ATOM     14  C   UNL     1     -14.777  -7.401  16.385  0.00  0.00    +0.010 C 
ATOM     15  C   UNL     1     -16.550  -7.707  18.142  0.00  0.00    +0.123 C 
ATOM     16  C   UNL     1     -13.557 -10.202  18.895  0.00  0.00    +0.049 C 
ATOM     17  C   UNL     1     -16.270  -7.518  16.656  0.00  0.00    +0.032 C 
ATOM     18  C   UNL     1     -14.212  -9.807  15.901  0.00  0.00    +0.012 C 
ATOM     19  C   UNL     1     -11.577  -9.220  17.610  0.00  0.00    +0.058 A 
ATOM     21  C   UNL     1     -16.029  -8.901  20.282  0.00  0.00    +0.016 C 
ATOM     22  C   UNL     1     -12.112 -10.080  18.547  0.00  0.00    +0.015 A 
ATOM     25  C   UNL     1      -9.734 -10.208  18.281  0.00  0.00    +0.165 A 
ATOM     28  C   UNL     1      -7.295 -10.082  17.779  0.00  0.00    +0.285 C 
ATOM     37  H   UNL     1      -8.286 -11.337  19.126  0.00  0.00    +0.157 HD
ENDROOT
BRANCH  28  30
ATOM      6  O   UNL     1      -5.060 -10.808  17.172  0.00  0.00    -0.458 OA
ATOM     30  C   UNL     1      -6.019 -10.728  18.131  0.00  0.00    +0.189 A 
ATOM     32  C   UNL     1      -5.579 -11.300  19.303  0.00  0.00    +0.054 A 
ATOM     33  C   UNL     1      -4.265 -11.760  19.046  0.00  0.00    +0.042 A 
ATOM     34  C   UNL     1      -3.996 -11.436  17.736  0.00  0.00    +0.196 A 
ENDBRANCH  28  30
BRANCH  15   2
ATOM      2  O   UNL     1     -17.962  -7.755  18.341  0.00  0.00    -0.391 OA
ATOM     35  H   UNL     1     -18.258  -8.659  18.138  0.00  0.00    +0.210 HD
ENDBRANCH  15   2
BRANCH  12  20
ATOM     20  C   UNL     1     -16.619 -10.255  18.304  0.00  0.00    +0.165 C 
BRANCH  20   3
ATOM      3  O   UNL     1     -17.604 -10.528  19.276  0.00  0.00    -0.394 OA
ATOM     36  H   UNL     1     -17.159 -10.552  20.140  0.00  0.00    +0.209 HD
ENDBRANCH  20   3
ENDBRANCH  12  20
BRANCH  13  23
ATOM     23  C   UNL     1     -11.836  -8.022  15.416  0.00  0.00    +0.106 C 
BRANCH  23  24
ATOM      4  O   UNL     1     -11.018  -5.804  15.816  0.00  0.00    -0.276 OA
ATOM      8  N   UNL     1     -12.294  -6.123  13.905  0.00  0.00    -0.301 N 
ATOM     24  C   UNL     1     -11.669  -6.551  15.081  0.00  0.00    +0.216 C 
ATOM     27  C   UNL     1     -13.059  -7.025  13.053  0.00  0.00    +0.132 C 
BRANCH   8  26
ATOM     26  C   UNL     1     -12.229  -4.739  13.443  0.00  0.00    +0.134 C 
BRANCH  26  29
ATOM     29  C   UNL     1     -12.269  -4.721  11.951  0.00  0.00    -0.016 C 
ATOM     31  C   UNL     1     -12.185  -3.605  11.216  0.00  0.00    +0.005 C 
ENDBRANCH  26  29
ENDBRANCH   8  26
ENDBRANCH  23  24
ENDBRANCH  13  23
TORSDOF 8
ENDMDL
MODEL 9
REMARK VINA RESULT:      -5.8     28.873     30.499
REMARK  Name = 11883069
REMARK  11 active torsions:
REMARK  status: ('A' for Active; 'I' for Inactive)
REMARK    1  A    between atoms: O_2  and  C_15
REMARK    2  A    between atoms: O_3  and  C_20
REMARK    3  A    between atoms: N_8  and  C_26
REMARK    4  A    between atoms: N_8  and  C_27
REMARK    5  A    between atoms: C_10  and  C_18
REMARK    6  A    between atoms: C_12  and  C_20
REMARK    7  A    between atoms: C_12  and  C_21
REMARK    8  A    between atoms: C_13  and  C_23
REMARK    9  A    between atoms: C_23  and  C_24
REMARK   10  A    between atoms: C_26  and  C_29
REMARK   11  A    between atoms: C_28  and  C_30
REMARK                            x       y       z     vdW  Elec       q    Type
REMARK                         _______ _______ _______ _____ _____    ______ ____
ROOT
ATOM      1  S   UNL     1      -5.539 -10.950  12.581  0.00  0.00    -0.057 S 
ATOM      5  O   UNL     1      -8.693  -8.422  10.341  0.00  0.00    -0.266 OA
ATOM      7  N   UNL     1      -7.709  -9.566  12.836  0.00  0.00    -0.229 NA
ATOM      9  N   UNL     1      -6.785  -9.740  10.617  0.00  0.00    -0.258 N 
ATOM     10  C   UNL     1      -7.840 -10.694  16.521  0.00  0.00    -0.019 C 
ATOM     11  C   UNL     1      -6.255 -10.784  16.633  0.00  0.00    +0.011 C 
ATOM     12  C   UNL     1      -5.662 -11.348  17.981  0.00  0.00    +0.021 C 
ATOM     13  C   UNL     1      -8.195  -9.718  15.307  0.00  0.00    +0.054 C 
ATOM     14  C   UNL     1      -8.415 -10.082  17.825  0.00  0.00    +0.010 C 
ATOM     15  C   UNL     1      -6.378 -10.664  19.181  0.00  0.00    +0.123 C 
ATOM     16  C   UNL     1      -5.631 -11.422  15.358  0.00  0.00    +0.049 C 
ATOM     17  C   UNL     1      -7.898 -10.740  19.096  0.00  0.00    +0.032 C 
ATOM     18  C   UNL     1      -8.505 -12.073  16.285  0.00  0.00    +0.012 C 
ATOM     19  C   UNL     1      -7.373 -10.048  14.088  0.00  0.00    +0.058 A 
ATOM     21  C   UNL     1      -4.154 -10.975  18.068  0.00  0.00    +0.016 C 
ATOM     22  C   UNL     1      -6.216 -10.798  14.137  0.00  0.00    +0.015 A 
ATOM     25  C   UNL     1      -6.818  -9.984  11.965  0.00  0.00    +0.165 A 
ATOM     28  C   UNL     1      -7.708  -8.980   9.863  0.00  0.00    +0.285 C 
ATOM     37  H   UNL     1      -6.006 -10.167  10.122  0.00  0.00    +0.157 HD
ENDROOT
BRANCH  28  30
ATOM      6  O   UNL     1      -8.114  -8.012   7.675  0.00  0.00    -0.458 OA
ATOM     30  C   UNL     1      -7.440  -8.930   8.415  0.00  0.00    +0.189 A 
ATOM     32  C   UNL     1      -6.597  -9.669   7.618  0.00  0.00    +0.054 A 
ATOM     33  C   UNL     1      -6.764  -9.172   6.303  0.00  0.00    +0.042 A 
ATOM     34  C   UNL     1      -7.697  -8.165   6.391  0.00  0.00    +0.196 A 
ENDBRANCH  28  30
BRANCH  15   2
ATOM      2  O   UNL     1      -5.957 -11.245  20.414  0.00  0.00    -0.391 OA
ATOM     35  H   UNL     1      -5.005 -11.431  20.342  0.00  0.00    +0.210 HD
ENDBRANCH  15   2
BRANCH  12  20
ATOM     20  C   UNL     1      -5.717 -12.886  18.110  0.00  0.00    +0.165 C 
BRANCH  20   3
ATOM      3  O   UNL     1      -4.464 -13.323  18.589  0.00  0.00    -0.394 OA
ATOM     36  H   UNL     1      -3.781 -12.850  18.085  0.00  0.00    +0.209 HD
ENDBRANCH  20   3
ENDBRANCH  12  20
BRANCH  13  23
ATOM     23  C   UNL     1      -9.690  -9.636  14.971  0.00  0.00    +0.106 C 
BRANCH  23  24
ATOM      4  O   UNL     1      -9.708  -7.459  15.973  0.00  0.00    -0.276 OA
ATOM      8  N   UNL     1     -11.404  -7.932  14.463  0.00  0.00    -0.301 N 
ATOM     24  C   UNL     1     -10.252  -8.244  15.193  0.00  0.00    +0.216 C 
ATOM     27  C   UNL     1     -12.029  -8.878  13.547  0.00  0.00    +0.132 C 
BRANCH   8  26
ATOM     26  C   UNL     1     -12.066  -6.634  14.564  0.00  0.00    +0.134 C 
BRANCH  26  29
ATOM     29  C   UNL     1     -13.007  -6.655  15.722  0.00  0.00    -0.016 C 
ATOM     31  C   UNL     1     -14.328  -6.841  15.607  0.00  0.00    +0.005 C 
ENDBRANCH  26  29
ENDBRANCH   8  26
ENDBRANCH  23  24
ENDBRANCH  13  23
TORSDOF 8
ENDMDL
MODEL 10
REMARK VINA RESULT:      -5.6     13.788     18.165
REMARK  Name = 11883069
REMARK  11 active torsions:
REMARK  status: ('A' for Active; 'I' for Inactive)
REMARK    1  A    between atoms: O_2  and  C_15
REMARK    2  A    between atoms: O_3  and  C_20
REMARK    3  A    between atoms: N_8  and  C_26
REMARK    4  A    between atoms: N_8  and  C_27
REMARK    5  A    between atoms: C_10  and  C_18
REMARK    6  A    between atoms: C_12  and  C_20
REMARK    7  A    between atoms: C_12  and  C_21
REMARK    8  A    between atoms: C_13  and  C_23
REMARK    9  A    between atoms: C_23  and  C_24
REMARK   10  A    between atoms: C_26  and  C_29
REMARK   11  A    between atoms: C_28  and  C_30
REMARK                            x       y       z     vdW  Elec       q    Type
REMARK                         _______ _______ _______ _____ _____    ______ ____
ROOT
ATOM      1  S   UNL     1      10.918   4.445   1.804  0.00  0.00    -0.057 S 
ATOM      5  O   UNL     1       8.936   6.259  -1.956  0.00  0.00    -0.266 OA
ATOM      7  N   UNL     1       9.618   6.477   0.870  0.00  0.00    -0.229 NA
ATOM      9  N   UNL     1      10.095   4.689  -0.674  0.00  0.00    -0.258 N 
ATOM     10  C   UNL     1       9.459   7.861   4.466  0.00  0.00    -0.019 C 
ATOM     11  C   UNL     1      10.847   7.194   4.869  0.00  0.00    +0.011 C 
ATOM     12  C   UNL     1      11.294   7.323   6.376  0.00  0.00    +0.021 C 
ATOM     13  C   UNL     1       9.421   7.997   2.875  0.00  0.00    +0.054 C 
ATOM     14  C   UNL     1       9.374   9.282   5.080  0.00  0.00    +0.010 C 
ATOM     15  C   UNL     1      11.102   8.794   6.843  0.00  0.00    +0.123 C 
ATOM     16  C   UNL     1      10.970   5.749   4.301  0.00  0.00    +0.049 C 
ATOM     17  C   UNL     1       9.703   9.334   6.566  0.00  0.00    +0.032 C 
ATOM     18  C   UNL     1       8.236   7.039   4.943  0.00  0.00    +0.012 C 
ATOM     19  C   UNL     1       9.861   6.717   2.211  0.00  0.00    +0.058 A 
ATOM     21  C   UNL     1      12.812   6.998   6.486  0.00  0.00    +0.016 C 
ATOM     22  C   UNL     1      10.571   5.731   2.865  0.00  0.00    +0.015 A 
ATOM     25  C   UNL     1      10.124   5.307   0.549  0.00  0.00    +0.165 A 
ATOM     28  C   UNL     1       9.512   5.178  -1.865  0.00  0.00    +0.285 C 
ATOM     37  H   UNL     1      10.543   3.777  -0.705  0.00  0.00    +0.157 HD
ENDROOT
BRANCH  28  30
ATOM      6  O   UNL     1       9.662   2.932  -2.774  0.00  0.00    -0.458 OA
ATOM     30  C   UNL     1       9.596   4.267  -3.020  0.00  0.00    +0.189 A 
ATOM     32  C   UNL     1       9.622   4.511  -4.374  0.00  0.00    +0.054 A 
ATOM     33  C   UNL     1       9.710   3.244  -5.000  0.00  0.00    +0.042 A 
ATOM     34  C   UNL     1       9.731   2.317  -3.984  0.00  0.00    +0.196 A 
ENDBRANCH  28  30
BRANCH  15   2
ATOM      2  O   UNL     1      11.374   8.919   8.237  0.00  0.00    -0.391 OA
ATOM     35  H   UNL     1      11.477   8.021   8.599  0.00  0.00    +0.210 HD
ENDBRANCH  15   2
BRANCH  12  20
ATOM     20  C   UNL     1      10.590   6.342   7.339  0.00  0.00    +0.165 C 
BRANCH  20   3
ATOM      3  O   UNL     1      11.589   5.646   8.052  0.00  0.00    -0.394 OA
ATOM     36  H   UNL     1      12.381   5.620   7.489  0.00  0.00    +0.209 HD
ENDBRANCH  20   3
ENDBRANCH  12  20
BRANCH  13  23
ATOM     23  C   UNL     1       8.083   8.491   2.309  0.00  0.00    +0.106 C 
BRANCH  23  24
ATOM      4  O   UNL     1       8.953  10.495   1.322  0.00  0.00    -0.276 OA
ATOM      8  N   UNL     1       7.070  10.716   2.658  0.00  0.00    -0.301 N 
ATOM     24  C   UNL     1       8.091   9.985   2.042  0.00  0.00    +0.216 C 
ATOM     27  C   UNL     1       6.062  10.090   3.505  0.00  0.00    +0.132 C 
BRANCH   8  26
ATOM     26  C   UNL     1       6.937  12.162   2.500  0.00  0.00    +0.134 C 
BRANCH  26  29
ATOM     29  C   UNL     1       7.272  12.827   3.794  0.00  0.00    -0.016 C 
ATOM     31  C   UNL     1       8.493  12.822   4.341  0.00  0.00    +0.005 C 
ENDBRANCH  26  29
ENDBRANCH   8  26
ENDBRANCH  23  24
ENDBRANCH  13  23
TORSDOF 8
ENDMDL
