REMARK  Name = 75536262
REMARK  9 active torsions:
REMARK  status: ('A' for Active; 'I' for Inactive)
REMARK    1  A    between atoms: O_3  and  C_9
REMARK    2  A    between atoms: O_5  and  C_21
REMARK    3  A    between atoms: N_6  and  C_13
REMARK    4  A    between atoms: N_6  and  C_16
REMARK    5  A    between atoms: C_8  and  C_13
REMARK    6  A    between atoms: C_10  and  C_14
REMARK    7  A    between atoms: C_14  and  C_15
REMARK    8  A    between atoms: C_16  and  C_18
REMARK    9  A    between atoms: C_19  and  C_20
REMARK                            x       y       z     vdW  Elec       q    Type
REMARK                         _______ _______ _______ _____ _____    ______ ____
ROOT
ATOM      2  O   UNL     1       2.877  -0.807   0.671  0.00  0.00    -0.369 OA
ATOM      8  C   UNL     1       3.543   0.349   1.195  0.00  0.00    +0.161 C 
ATOM      9  C   UNL     1       5.064   0.151   1.226  0.00  0.00    +0.145 C 
ATOM     10  C   UNL     1       3.314  -1.227  -0.624  0.00  0.00    +0.125 C 
ATOM     11  C   UNL     1       5.611  -0.353  -0.106  0.00  0.00    +0.036 C 
ATOM     12  C   UNL     1       4.808  -1.549  -0.609  0.00  0.00    +0.034 C 
ENDROOT
BRANCH   9   3
ATOM      3  O   UNL     1       5.381  -0.822   2.225  0.00  0.00    -0.389 OA
ATOM     32  H   UNL     1       6.350  -0.898   2.262  0.00  0.00    +0.210 HD
ENDBRANCH   9   3
BRANCH   8  13
ATOM     13  C   UNL     1       3.120   1.613   0.448  0.00  0.00    +0.115 C 
BRANCH  13   6
ATOM      6  N   UNL     1       1.674   1.768   0.467  0.00  0.00    -0.309 NA
ATOM     31  H   UNL     1       1.243   0.954   0.030  0.00  0.00    +0.122 HD
BRANCH   6  16
ATOM     16  C   UNL     1       1.269   2.978  -0.236  0.00  0.00    +0.120 C 
BRANCH  16  18
ATOM     18  C   UNL     1      -0.225   3.165  -0.216  0.00  0.00    +0.008 A 
ATOM     21  C   UNL     1      -1.049   2.408  -1.049  0.00  0.00    +0.121 A 
ATOM     22  C   UNL     1      -0.783   4.107   0.649  0.00  0.00    +0.008 A 
ATOM     23  C   UNL     1      -2.431   2.594  -1.018  0.00  0.00    +0.046 A 
ATOM     24  C   UNL     1      -2.165   4.292   0.679  0.00  0.00    +0.001 A 
ATOM     27  C   UNL     1      -2.989   3.535  -0.154  0.00  0.00    +0.004 A 
BRANCH  21   5
ATOM      5  O   UNL     1      -0.520   1.484  -1.899  0.00  0.00    -0.506 OA
ATOM     33  H   UNL     1      -1.242   1.047  -2.382  0.00  0.00    +0.292 HD
ENDBRANCH  21   5
ENDBRANCH  16  18
ENDBRANCH   6  16
ENDBRANCH  13   6
ENDBRANCH   8  13
BRANCH  10  14
ATOM     14  C   UNL     1       2.498  -2.455  -1.008  0.00  0.00    +0.090 C 
BRANCH  14  15
ATOM      4  O   UNL     1      -0.910  -1.566  -1.771  0.00  0.00    -0.354 OA
ATOM      7  N   UNL     1       0.425  -1.728  -2.118  0.00  0.00    -0.083 NA
ATOM     15  C   UNL     1       1.021  -2.166  -1.005  0.00  0.00    +0.087 A 
ATOM     17  C   UNL     1       0.120  -2.298   0.066  0.00  0.00    +0.076 A 
ATOM     19  C   UNL     1      -1.079  -1.908  -0.468  0.00  0.00    +0.167 A 
BRANCH  19  20
ATOM      1  F   UNL     1      -6.268  -1.467   1.489  0.00  0.00    -0.205 F 
ATOM     20  C   UNL     1      -2.417  -1.794   0.037  0.00  0.00    +0.020 A 
ATOM     25  C   UNL     1      -2.692  -2.125   1.364  0.00  0.00    +0.014 A 
ATOM     26  C   UNL     1      -3.442  -1.351  -0.799  0.00  0.00    +0.014 A 
ATOM     28  C   UNL     1      -3.993  -2.014   1.854  0.00  0.00    +0.039 A 
ATOM     29  C   UNL     1      -4.743  -1.241  -0.308  0.00  0.00    +0.039 A 
ATOM     30  C   UNL     1      -5.019  -1.573   1.018  0.00  0.00    +0.123 A 
ENDBRANCH  19  20
ENDBRANCH  14  15
ENDBRANCH  10  14
TORSDOF 9
