REMARK  Name = 51137402
REMARK  4 active torsions:
REMARK  status: ('A' for Active; 'I' for Inactive)
REMARK    1  A    between atoms: N_3  and  C_6
REMARK    2  A    between atoms: C_7  and  C_15
REMARK    3  A    between atoms: C_16  and  C_17
REMARK    4  A    between atoms: C_17  and  C_18
REMARK                            x       y       z     vdW  Elec       q    Type
REMARK                         _______ _______ _______ _____ _____    ______ ____
ROOT
ATOM      2  O   UNL     1       1.079   0.820   0.310  0.00  0.00    -0.424 OA
ATOM      4  N   UNL     1       1.256   2.907  -0.476  0.00  0.00    -0.112 NA
ATOM      5  N   UNL     1       2.383   2.637   0.277  0.00  0.00    -0.112 NA
ATOM     15  C   UNL     1       0.523   1.819  -0.429  0.00  0.00    +0.222 A 
ATOM     16  C   UNL     1       2.237   1.408   0.716  0.00  0.00    +0.222 A 
ENDROOT
BRANCH  15   7
ATOM      3  N   UNL     1      -2.791   0.297  -0.787  0.00  0.00    -0.298 NA
ATOM      7  C   UNL     1      -0.817   1.531  -1.067  0.00  0.00    +0.092 C 
ATOM      8  C   UNL     1      -1.908   1.196  -0.041  0.00  0.00    +0.097 C 
ATOM      9  C   UNL     1      -1.891  -0.602  -1.510  0.00  0.00    +0.085 C 
ATOM     10  C   UNL     1      -0.825   0.344  -2.046  0.00  0.00    +0.029 C 
BRANCH   3   6
ATOM      1  O   UNL     1      -6.428  -1.081   0.793  0.00  0.00    -0.380 OA
ATOM      6  C   UNL     1      -3.717  -0.424   0.083  0.00  0.00    +0.061 C 
ATOM     11  C   UNL     1      -4.554  -1.429  -0.714  0.00  0.00    +0.047 C 
ATOM     12  C   UNL     1      -4.635   0.559   0.815  0.00  0.00    +0.047 C 
ATOM     13  C   UNL     1      -5.604  -2.074   0.184  0.00  0.00    +0.161 C 
ATOM     14  C   UNL     1      -5.681  -0.196   1.628  0.00  0.00    +0.161 C 
ENDBRANCH   3   6
ENDBRANCH  15   7
BRANCH  16  17
ATOM     17  C   UNL     1       3.130   0.604   1.559  0.00  0.00    +0.132 C 
BRANCH  17  18
ATOM     18  C   UNL     1       3.954  -0.435   0.806  0.00  0.00    -0.038 A 
ATOM     19  C   UNL     1       3.375  -1.650   0.437  0.00  0.00    +0.004 A 
ATOM     20  C   UNL     1       5.286  -0.172   0.487  0.00  0.00    +0.004 A 
ATOM     21  C   UNL     1       4.129  -2.600  -0.252  0.00  0.00    +0.000 A 
ATOM     22  C   UNL     1       6.039  -1.123  -0.201  0.00  0.00    +0.000 A 
ATOM     23  C   UNL     1       5.461  -2.337  -0.571  0.00  0.00    +0.000 A 
ENDBRANCH  17  18
ENDBRANCH  16  17
TORSDOF 4
