MODEL 1
REMARK VINA RESULT:      -7.5      0.000      0.000
REMARK  Name = 26743712
REMARK  7 active torsions:
REMARK  status: ('A' for Active; 'I' for Inactive)
REMARK    1  A    between atoms: O_4  and  C_17
REMARK    2  A    between atoms: O_6  and  C_28
REMARK    3  A    between atoms: O_6  and  C_29
REMARK    4  A    between atoms: N_7  and  C_11
REMARK    5  A    between atoms: C_10  and  C_11
REMARK    6  A    between atoms: C_12  and  C_21
REMARK    7  A    between atoms: C_22  and  C_23
REMARK                            x       y       z     vdW  Elec       q    Type
REMARK                         _______ _______ _______ _____ _____    ______ ____
ROOT
ATOM      5  O   UNL     1      14.321   6.907  19.431  0.00  0.00    -0.336 OA
ATOM      8  N   UNL     1      15.626   7.470  21.163  0.00  0.00    -0.190 NA
ATOM      9  N   UNL     1      15.589   6.383  19.150  0.00  0.00    -0.056 NA
ATOM     21  C   UNL     1      14.430   7.531  20.634  0.00  0.00    +0.245 A 
ATOM     22  C   UNL     1      16.303   6.755  20.217  0.00  0.00    +0.202 A 
ENDROOT
BRANCH  22  23
ATOM     23  C   UNL     1      17.692   6.433  20.367  0.00  0.00    +0.023 A 
ATOM     24  C   UNL     1      18.498   7.195  21.213  0.00  0.00    +0.015 A 
ATOM     25  C   UNL     1      18.238   5.358  19.666  0.00  0.00    +0.015 A 
ATOM     26  C   UNL     1      19.850   6.882  21.358  0.00  0.00    +0.046 A 
ATOM     27  C   UNL     1      19.590   5.045  19.811  0.00  0.00    +0.046 A 
ATOM     28  C   UNL     1      20.395   5.807  20.657  0.00  0.00    +0.130 A 
BRANCH  28   6
ATOM      6  O   UNL     1      21.714   5.501  20.798  0.00  0.00    -0.406 OA
BRANCH   6  29
ATOM      1  F   UNL     1      23.396   4.423  21.848  0.00  0.00    -0.133 F 
ATOM      2  F   UNL     1      21.433   4.445  22.807  0.00  0.00    -0.133 F 
ATOM      3  F   UNL     1      21.779   3.223  20.997  0.00  0.00    -0.133 F 
ATOM     29  C   UNL     1      22.064   4.390  21.615  0.00  0.00    +0.575 C 
ENDBRANCH   6  29
ENDBRANCH  28   6
ENDBRANCH  22  23
BRANCH  21  12
ATOM      7  N   UNL     1      12.380   8.841  20.109  0.00  0.00    -0.289 NA
ATOM     12  C   UNL     1      13.176   8.188  21.169  0.00  0.00    +0.148 C 
ATOM     15  C   UNL     1      10.987   8.788  20.547  0.00  0.00    +0.116 C 
ATOM     16  C   UNL     1      12.211   7.184  21.826  0.00  0.00    +0.061 C 
ATOM     17  C   UNL     1      10.886   7.379  21.098  0.00  0.00    +0.130 C 
BRANCH  17   4
ATOM      4  O   UNL     1       9.798   7.241  21.992  0.00  0.00    -0.390 OA
ATOM     30  H   UNL     1       8.986   7.197  21.459  0.00  0.00    +0.210 HD
ENDBRANCH  17   4
BRANCH   7  11
ATOM     11  C   UNL     1      12.813  10.203  19.821  0.00  0.00    +0.088 C 
BRANCH  11  10
ATOM     10  C   UNL     1      13.060  10.390  18.326  0.00  0.00    +0.003 C 
ATOM     13  C   UNL     1      14.561  10.521  18.036  0.00  0.00    +0.005 C 
ATOM     14  C   UNL     1      12.449   9.230  17.526  0.00  0.00    +0.005 C 
ATOM     18  C   UNL     1      14.838  10.656  16.541  0.00  0.00    +0.000 C 
ATOM     19  C   UNL     1      12.730   9.367  16.031  0.00  0.00    +0.000 C 
ATOM     20  C   UNL     1      14.222   9.507  15.749  0.00  0.00    +0.000 C 
ENDBRANCH  11  10
ENDBRANCH   7  11
ENDBRANCH  21  12
TORSDOF 7
ENDMDL
MODEL 2
REMARK VINA RESULT:      -7.3      1.903      3.518
REMARK  Name = 26743712
REMARK  7 active torsions:
REMARK  status: ('A' for Active; 'I' for Inactive)
REMARK    1  A    between atoms: O_4  and  C_17
REMARK    2  A    between atoms: O_6  and  C_28
REMARK    3  A    between atoms: O_6  and  C_29
REMARK    4  A    between atoms: N_7  and  C_11
REMARK    5  A    between atoms: C_10  and  C_11
REMARK    6  A    between atoms: C_12  and  C_21
REMARK    7  A    between atoms: C_22  and  C_23
REMARK                            x       y       z     vdW  Elec       q    Type
REMARK                         _______ _______ _______ _____ _____    ______ ____
ROOT
ATOM      5  O   UNL     1      14.814   8.698  20.392  0.00  0.00    -0.336 OA
ATOM      8  N   UNL     1      15.375   6.601  19.842  0.00  0.00    -0.190 NA
ATOM      9  N   UNL     1      16.193   8.593  20.613  0.00  0.00    -0.056 NA
ATOM     21  C   UNL     1      14.412   7.482  19.939  0.00  0.00    +0.245 A 
ATOM     22  C   UNL     1      16.449   7.328  20.266  0.00  0.00    +0.202 A 
ENDROOT
BRANCH  22  23
ATOM     23  C   UNL     1      17.764   6.761  20.333  0.00  0.00    +0.023 A 
ATOM     24  C   UNL     1      18.064   5.605  19.611  0.00  0.00    +0.015 A 
ATOM     25  C   UNL     1      18.744   7.363  21.122  0.00  0.00    +0.015 A 
ATOM     26  C   UNL     1      19.343   5.053  19.677  0.00  0.00    +0.046 A 
ATOM     27  C   UNL     1      20.023   6.810  21.189  0.00  0.00    +0.046 A 
ATOM     28  C   UNL     1      20.322   5.655  20.466  0.00  0.00    +0.130 A 
BRANCH  28   6
ATOM      6  O   UNL     1      21.571   5.116  20.532  0.00  0.00    -0.406 OA
BRANCH   6  29
ATOM      1  F   UNL     1      20.953   2.973  20.873  0.00  0.00    -0.133 F 
ATOM      2  F   UNL     1      23.035   3.515  21.253  0.00  0.00    -0.133 F 
ATOM      3  F   UNL     1      21.436   4.193  22.620  0.00  0.00    -0.133 F 
ATOM     29  C   UNL     1      21.762   3.955  21.331  0.00  0.00    +0.575 C 
ENDBRANCH   6  29
ENDBRANCH  28   6
ENDBRANCH  22  23
BRANCH  21  12
ATOM      7  N   UNL     1      12.149   8.515  20.024  0.00  0.00    -0.289 NA
ATOM     12  C   UNL     1      12.940   7.334  19.621  0.00  0.00    +0.148 C 
ATOM     15  C   UNL     1      11.018   8.591  19.101  0.00  0.00    +0.116 C 
ATOM     16  C   UNL     1      12.668   7.174  18.113  0.00  0.00    +0.061 C 
ATOM     17  C   UNL     1      11.680   8.282  17.771  0.00  0.00    +0.130 C 
BRANCH  17   4
ATOM      4  O   UNL     1      10.742   7.838  16.809  0.00  0.00    -0.390 OA
ATOM     30  H   UNL     1      11.133   7.988  15.931  0.00  0.00    +0.210 HD
ENDBRANCH  17   4
BRANCH   7  11
ATOM     11  C   UNL     1      11.718   8.470  21.416  0.00  0.00    +0.088 C 
BRANCH  11  10
ATOM     10  C   UNL     1      11.925   9.824  22.093  0.00  0.00    +0.003 C 
ATOM     13  C   UNL     1      12.108  10.931  21.046  0.00  0.00    +0.005 C 
ATOM     14  C   UNL     1      10.752  10.147  23.029  0.00  0.00    +0.005 C 
ATOM     18  C   UNL     1      12.264  12.303  21.697  0.00  0.00    +0.000 C 
ATOM     19  C   UNL     1      10.910  11.521  23.677  0.00  0.00    +0.000 C 
ATOM     20  C   UNL     1      11.101  12.616  22.633  0.00  0.00    +0.000 C 
ENDBRANCH  11  10
ENDBRANCH   7  11
ENDBRANCH  21  12
TORSDOF 7
ENDMDL
MODEL 3
REMARK VINA RESULT:      -7.2      1.869      3.702
REMARK  Name = 26743712
REMARK  7 active torsions:
REMARK  status: ('A' for Active; 'I' for Inactive)
REMARK    1  A    between atoms: O_4  and  C_17
REMARK    2  A    between atoms: O_6  and  C_28
REMARK    3  A    between atoms: O_6  and  C_29
REMARK    4  A    between atoms: N_7  and  C_11
REMARK    5  A    between atoms: C_10  and  C_11
REMARK    6  A    between atoms: C_12  and  C_21
REMARK    7  A    between atoms: C_22  and  C_23
REMARK                            x       y       z     vdW  Elec       q    Type
REMARK                         _______ _______ _______ _____ _____    ______ ____
ROOT
ATOM      5  O   UNL     1      15.242   8.913  19.712  0.00  0.00    -0.336 OA
ATOM      8  N   UNL     1      15.996   6.853  19.262  0.00  0.00    -0.190 NA
ATOM      9  N   UNL     1      16.449   8.780  20.407  0.00  0.00    -0.056 NA
ATOM     21  C   UNL     1      15.048   7.734  19.064  0.00  0.00    +0.245 A 
ATOM     22  C   UNL     1      16.834   7.540  20.091  0.00  0.00    +0.202 A 
ENDROOT
BRANCH  22  23
ATOM     23  C   UNL     1      18.045   6.957  20.589  0.00  0.00    +0.023 A 
ATOM     24  C   UNL     1      18.682   7.510  21.700  0.00  0.00    +0.015 A 
ATOM     25  C   UNL     1      18.590   5.836  19.961  0.00  0.00    +0.015 A 
ATOM     26  C   UNL     1      19.862   6.944  22.183  0.00  0.00    +0.046 A 
ATOM     27  C   UNL     1      19.769   5.270  20.444  0.00  0.00    +0.046 A 
ATOM     28  C   UNL     1      20.405   5.823  21.555  0.00  0.00    +0.130 A 
BRANCH  28   6
ATOM      6  O   UNL     1      21.556   5.270  22.026  0.00  0.00    -0.406 OA
BRANCH   6  29
ATOM      1  F   UNL     1      22.627   6.573  20.526  0.00  0.00    -0.133 F 
ATOM      2  F   UNL     1      23.818   5.601  22.079  0.00  0.00    -0.133 F 
ATOM      3  F   UNL     1      22.951   4.414  20.428  0.00  0.00    -0.133 F 
ATOM     29  C   UNL     1      22.748   5.450  21.271  0.00  0.00    +0.575 C 
ENDBRANCH   6  29
ENDBRANCH  28   6
ENDBRANCH  22  23
BRANCH  21  12
ATOM      7  N   UNL     1      12.726   8.542  18.676  0.00  0.00    -0.289 NA
ATOM     12  C   UNL     1      13.792   7.622  18.228  0.00  0.00    +0.148 C 
ATOM     15  C   UNL     1      11.936   8.869  17.491  0.00  0.00    +0.116 C 
ATOM     16  C   UNL     1      14.025   7.981  16.749  0.00  0.00    +0.061 C 
ATOM     17  C   UNL     1      13.015   9.080  16.446  0.00  0.00    +0.130 C 
BRANCH  17   4
ATOM      4  O   UNL     1      12.507   8.945  15.132  0.00  0.00    -0.390 OA
ATOM     30  H   UNL     1      12.966   9.596  14.574  0.00  0.00    +0.210 HD
ENDBRANCH  17   4
BRANCH   7  11
ATOM     11  C   UNL     1      11.905   7.991  19.748  0.00  0.00    +0.088 C 
BRANCH  11  10
ATOM     10  C   UNL     1      11.332   9.106  20.621  0.00  0.00    +0.003 C 
ATOM     13  C   UNL     1      11.121   8.614  22.059  0.00  0.00    +0.005 C 
ATOM     14  C   UNL     1      12.246  10.339  20.595  0.00  0.00    +0.005 C 
ATOM     18  C   UNL     1      10.599   9.725  22.965  0.00  0.00    +0.000 C 
ATOM     19  C   UNL     1      11.721  11.448  21.504  0.00  0.00    +0.000 C 
ATOM     20  C   UNL     1      11.504  10.953  22.929  0.00  0.00    +0.000 C 
ENDBRANCH  11  10
ENDBRANCH   7  11
ENDBRANCH  21  12
TORSDOF 7
ENDMDL
MODEL 4
REMARK VINA RESULT:      -7.2     26.376     29.484
REMARK  Name = 26743712
REMARK  7 active torsions:
REMARK  status: ('A' for Active; 'I' for Inactive)
REMARK    1  A    between atoms: O_4  and  C_17
REMARK    2  A    between atoms: O_6  and  C_28
REMARK    3  A    between atoms: O_6  and  C_29
REMARK    4  A    between atoms: N_7  and  C_11
REMARK    5  A    between atoms: C_10  and  C_11
REMARK    6  A    between atoms: C_12  and  C_21
REMARK    7  A    between atoms: C_22  and  C_23
REMARK                            x       y       z     vdW  Elec       q    Type
REMARK                         _______ _______ _______ _____ _____    ______ ____
ROOT
ATOM      5  O   UNL     1      -5.132 -11.637  16.937  0.00  0.00    -0.336 OA
ATOM      8  N   UNL     1      -5.679 -10.159  15.345  0.00  0.00    -0.190 NA
ATOM      9  N   UNL     1      -6.423 -11.189  17.247  0.00  0.00    -0.056 NA
ATOM     21  C   UNL     1      -4.768 -10.981  15.804  0.00  0.00    +0.245 A 
ATOM     22  C   UNL     1      -6.676 -10.322  16.262  0.00  0.00    +0.202 A 
ENDROOT
BRANCH  22  23
ATOM     23  C   UNL     1      -7.911  -9.600  16.168  0.00  0.00    +0.023 A 
ATOM     24  C   UNL     1      -8.603  -9.556  14.957  0.00  0.00    +0.015 A 
ATOM     25  C   UNL     1      -8.420  -8.940  17.286  0.00  0.00    +0.015 A 
ATOM     26  C   UNL     1      -9.804  -8.852  14.866  0.00  0.00    +0.046 A 
ATOM     27  C   UNL     1      -9.621  -8.236  17.194  0.00  0.00    +0.046 A 
ATOM     28  C   UNL     1     -10.313  -8.193  15.984  0.00  0.00    +0.130 A 
BRANCH  28   6
ATOM      6  O   UNL     1     -11.485  -7.506  15.895  0.00  0.00    -0.406 OA
BRANCH   6  29
ATOM      1  F   UNL     1     -11.452  -5.563  17.044  0.00  0.00    -0.133 F 
ATOM      2  F   UNL     1     -10.287  -5.686  15.200  0.00  0.00    -0.133 F 
ATOM      3  F   UNL     1     -12.494  -5.604  15.124  0.00  0.00    -0.133 F 
ATOM     29  C   UNL     1     -11.428  -6.088  15.797  0.00  0.00    +0.575 C 
ENDBRANCH   6  29
ENDBRANCH  28   6
ENDBRANCH  22  23
BRANCH  21  12
ATOM      7  N   UNL     1      -3.052 -10.475  14.074  0.00  0.00    -0.289 NA
ATOM     12  C   UNL     1      -3.393 -11.295  15.255  0.00  0.00    +0.148 C 
ATOM     15  C   UNL     1      -1.598 -10.323  14.083  0.00  0.00    +0.116 C 
ATOM     16  C   UNL     1      -2.268 -11.015  16.268  0.00  0.00    +0.061 C 
ATOM     17  C   UNL     1      -1.320 -10.062  15.551  0.00  0.00    +0.130 C 
BRANCH  17   4
ATOM      4  O   UNL     1       0.025 -10.344  15.889  0.00  0.00    -0.390 OA
ATOM     30  H   UNL     1       0.278 -11.158  15.421  0.00  0.00    +0.210 HD
ENDBRANCH  17   4
BRANCH   7  11
ATOM     11  C   UNL     1      -3.537 -11.040  12.821  0.00  0.00    +0.088 C 
BRANCH  11  10
ATOM     10  C   UNL     1      -3.957  -9.937  11.853  0.00  0.00    +0.003 C 
ATOM     13  C   UNL     1      -3.307 -10.146  10.478  0.00  0.00    +0.005 C 
ATOM     14  C   UNL     1      -5.486  -9.875  11.731  0.00  0.00    +0.005 C 
ATOM     18  C   UNL     1      -3.753  -9.085   9.476  0.00  0.00    +0.000 C 
ATOM     19  C   UNL     1      -5.928  -8.814  10.725  0.00  0.00    +0.000 C 
ATOM     20  C   UNL     1      -5.273  -9.020   9.364  0.00  0.00    +0.000 C 
ENDBRANCH  11  10
ENDBRANCH   7  11
ENDBRANCH  21  12
TORSDOF 7
ENDMDL
MODEL 5
REMARK VINA RESULT:      -7.1     29.376     32.345
REMARK  Name = 26743712
REMARK  7 active torsions:
REMARK  status: ('A' for Active; 'I' for Inactive)
REMARK    1  A    between atoms: O_4  and  C_17
REMARK    2  A    between atoms: O_6  and  C_28
REMARK    3  A    between atoms: O_6  and  C_29
REMARK    4  A    between atoms: N_7  and  C_11
REMARK    5  A    between atoms: C_10  and  C_11
REMARK    6  A    between atoms: C_12  and  C_21
REMARK    7  A    between atoms: C_22  and  C_23
REMARK                            x       y       z     vdW  Elec       q    Type
REMARK                         _______ _______ _______ _____ _____    ______ ____
ROOT
ATOM      5  O   UNL     1     -16.482   2.799  23.444  0.00  0.00    -0.336 OA
ATOM      8  N   UNL     1     -16.206   4.185  25.182  0.00  0.00    -0.190 NA
ATOM      9  N   UNL     1     -16.447   1.990  24.586  0.00  0.00    -0.056 NA
ATOM     21  C   UNL     1     -16.333   4.077  23.883  0.00  0.00    +0.245 A 
ATOM     22  C   UNL     1     -16.283   2.879  25.570  0.00  0.00    +0.202 A 
ENDROOT
BRANCH  22  23
ATOM     23  C   UNL     1     -16.190   2.496  26.948  0.00  0.00    +0.023 A 
ATOM     24  C   UNL     1     -16.510   1.195  27.336  0.00  0.00    +0.015 A 
ATOM     25  C   UNL     1     -15.779   3.426  27.904  0.00  0.00    +0.015 A 
ATOM     26  C   UNL     1     -16.420   0.823  28.677  0.00  0.00    +0.046 A 
ATOM     27  C   UNL     1     -15.689   3.055  29.245  0.00  0.00    +0.046 A 
ATOM     28  C   UNL     1     -16.010   1.753  29.632  0.00  0.00    +0.130 A 
BRANCH  28   6
ATOM      6  O   UNL     1     -15.922   1.392  30.941  0.00  0.00    -0.406 OA
BRANCH   6  29
ATOM      1  F   UNL     1     -14.381   1.140  32.571  0.00  0.00    -0.133 F 
ATOM      2  F   UNL     1     -15.044  -0.645  31.499  0.00  0.00    -0.133 F 
ATOM      3  F   UNL     1     -13.746   0.840  30.502  0.00  0.00    -0.133 F 
ATOM     29  C   UNL     1     -14.771   0.670  31.364  0.00  0.00    +0.575 C 
ENDBRANCH   6  29
ENDBRANCH  28   6
ENDBRANCH  22  23
BRANCH  21  12
ATOM      7  N   UNL     1     -15.269   4.977  21.820  0.00  0.00    -0.289 NA
ATOM     12  C   UNL     1     -16.338   5.159  22.825  0.00  0.00    +0.148 C 
ATOM     15  C   UNL     1     -15.769   5.556  20.576  0.00  0.00    +0.116 C 
ATOM     16  C   UNL     1     -17.644   5.191  22.010  0.00  0.00    +0.061 C 
ATOM     17  C   UNL     1     -17.204   5.065  20.557  0.00  0.00    +0.130 C 
BRANCH  17   4
ATOM      4  O   UNL     1     -18.019   5.859  19.716  0.00  0.00    -0.390 OA
ATOM     30  H   UNL     1     -17.485   6.107  18.942  0.00  0.00    +0.210 HD
ENDBRANCH  17   4
BRANCH   7  11
ATOM     11  C   UNL     1     -13.995   5.559  22.225  0.00  0.00    +0.088 C 
BRANCH  11  10
ATOM     10  C   UNL     1     -13.569   6.660  21.256  0.00  0.00    +0.003 C 
ATOM     13  C   UNL     1     -13.845   8.046  21.854  0.00  0.00    +0.005 C 
ATOM     14  C   UNL     1     -12.087   6.511  20.884  0.00  0.00    +0.005 C 
ATOM     18  C   UNL     1     -13.379   9.164  20.927  0.00  0.00    +0.000 C 
ATOM     19  C   UNL     1     -11.623   7.633  19.958  0.00  0.00    +0.000 C 
ATOM     20  C   UNL     1     -11.908   9.008  20.553  0.00  0.00    +0.000 C 
ENDBRANCH  11  10
ENDBRANCH   7  11
ENDBRANCH  21  12
TORSDOF 7
ENDMDL
MODEL 6
REMARK VINA RESULT:      -7.0      2.521      3.834
REMARK  Name = 26743712
REMARK  7 active torsions:
REMARK  status: ('A' for Active; 'I' for Inactive)
REMARK    1  A    between atoms: O_4  and  C_17
REMARK    2  A    between atoms: O_6  and  C_28
REMARK    3  A    between atoms: O_6  and  C_29
REMARK    4  A    between atoms: N_7  and  C_11
REMARK    5  A    between atoms: C_10  and  C_11
REMARK    6  A    between atoms: C_12  and  C_21
REMARK    7  A    between atoms: C_22  and  C_23
REMARK                            x       y       z     vdW  Elec       q    Type
REMARK                         _______ _______ _______ _____ _____    ______ ____
ROOT
ATOM      5  O   UNL     1      15.724  10.069  22.046  0.00  0.00    -0.336 OA
ATOM      8  N   UNL     1      15.615   7.917  21.436  0.00  0.00    -0.190 NA
ATOM      9  N   UNL     1      17.045   9.658  21.830  0.00  0.00    -0.056 NA
ATOM     21  C   UNL     1      14.946   8.984  21.793  0.00  0.00    +0.245 A 
ATOM     22  C   UNL     1      16.898   8.379  21.473  0.00  0.00    +0.202 A 
ENDROOT
BRANCH  22  23
ATOM     23  C   UNL     1      18.012   7.536  21.149  0.00  0.00    +0.023 A 
ATOM     24  C   UNL     1      17.814   6.371  20.407  0.00  0.00    +0.015 A 
ATOM     25  C   UNL     1      19.295   7.879  21.578  0.00  0.00    +0.015 A 
ATOM     26  C   UNL     1      18.897   5.550  20.094  0.00  0.00    +0.046 A 
ATOM     27  C   UNL     1      20.378   7.058  21.264  0.00  0.00    +0.046 A 
ATOM     28  C   UNL     1      20.179   5.894  20.522  0.00  0.00    +0.130 A 
BRANCH  28   6
ATOM      6  O   UNL     1      21.237   5.094  20.217  0.00  0.00    -0.406 OA
BRANCH   6  29
ATOM      1  F   UNL     1      22.835   3.676  20.943  0.00  0.00    -0.133 F 
ATOM      2  F   UNL     1      21.326   4.344  22.375  0.00  0.00    -0.133 F 
ATOM      3  F   UNL     1      20.792   2.920  20.772  0.00  0.00    -0.133 F 
ATOM     29  C   UNL     1      21.531   4.006  21.085  0.00  0.00    +0.575 C 
ENDBRANCH   6  29
ENDBRANCH  28   6
ENDBRANCH  22  23
BRANCH  21  12
ATOM      7  N   UNL     1      12.880  10.090  20.951  0.00  0.00    -0.289 NA
ATOM     12  C   UNL     1      13.453   9.171  21.957  0.00  0.00    +0.148 C 
ATOM     15  C   UNL     1      11.499   9.661  20.738  0.00  0.00    +0.116 C 
ATOM     16  C   UNL     1      12.665   7.859  21.786  0.00  0.00    +0.061 C 
ATOM     17  C   UNL     1      11.644   8.152  20.694  0.00  0.00    +0.130 C 
BRANCH  17   4
ATOM      4  O   UNL     1      10.419   7.499  20.965  0.00  0.00    -0.390 OA
ATOM     30  H   UNL     1      10.441   7.212  21.894  0.00  0.00    +0.210 HD
ENDBRANCH  17   4
BRANCH   7  11
ATOM     11  C   UNL     1      12.966  11.492  21.338  0.00  0.00    +0.088 C 
BRANCH  11  10
ATOM     10  C   UNL     1      11.669  11.954  21.999  0.00  0.00    +0.003 C 
ATOM     13  C   UNL     1      11.816  11.971  23.527  0.00  0.00    +0.005 C 
ATOM     14  C   UNL     1      11.256  13.337  21.475  0.00  0.00    +0.005 C 
ATOM     18  C   UNL     1      10.549  12.480  24.209  0.00  0.00    +0.000 C 
ATOM     19  C   UNL     1       9.990  13.844  22.162  0.00  0.00    +0.000 C 
ATOM     20  C   UNL     1      10.136  13.850  23.680  0.00  0.00    +0.000 C 
ENDBRANCH  11  10
ENDBRANCH   7  11
ENDBRANCH  21  12
TORSDOF 7
ENDMDL
MODEL 7
REMARK VINA RESULT:      -6.9      4.554     10.043
REMARK  Name = 26743712
REMARK  7 active torsions:
REMARK  status: ('A' for Active; 'I' for Inactive)
REMARK    1  A    between atoms: O_4  and  C_17
REMARK    2  A    between atoms: O_6  and  C_28
REMARK    3  A    between atoms: O_6  and  C_29
REMARK    4  A    between atoms: N_7  and  C_11
REMARK    5  A    between atoms: C_10  and  C_11
REMARK    6  A    between atoms: C_12  and  C_21
REMARK    7  A    between atoms: C_22  and  C_23
REMARK                            x       y       z     vdW  Elec       q    Type
REMARK                         _______ _______ _______ _____ _____    ______ ____
ROOT
ATOM      5  O   UNL     1      19.026   5.597  19.577  0.00  0.00    -0.336 OA
ATOM      8  N   UNL     1      18.195   6.641  21.376  0.00  0.00    -0.190 NA
ATOM      9  N   UNL     1      17.663   5.789  19.321  0.00  0.00    -0.056 NA
ATOM     21  C   UNL     1      19.257   6.127  20.807  0.00  0.00    +0.245 A 
ATOM     22  C   UNL     1      17.242   6.411  20.426  0.00  0.00    +0.202 A 
ENDROOT
BRANCH  22  23
ATOM     23  C   UNL     1      15.879   6.812  20.615  0.00  0.00    +0.023 A 
ATOM     24  C   UNL     1      14.936   6.576  19.614  0.00  0.00    +0.015 A 
ATOM     25  C   UNL     1      15.495   7.442  21.799  0.00  0.00    +0.015 A 
ATOM     26  C   UNL     1      13.610   6.968  19.797  0.00  0.00    +0.046 A 
ATOM     27  C   UNL     1      14.169   7.834  21.983  0.00  0.00    +0.046 A 
ATOM     28  C   UNL     1      13.227   7.597  20.982  0.00  0.00    +0.130 A 
BRANCH  28   6
ATOM      6  O   UNL     1      11.933   7.980  21.161  0.00  0.00    -0.406 OA
BRANCH   6  29
ATOM      1  F   UNL     1      10.762   9.908  21.241  0.00  0.00    -0.133 F 
ATOM      2  F   UNL     1      12.465   9.796  19.877  0.00  0.00    -0.133 F 
ATOM      3  F   UNL     1      10.606   8.685  19.437  0.00  0.00    -0.133 F 
ATOM     29  C   UNL     1      11.448   9.088  20.413  0.00  0.00    +0.575 C 
ENDBRANCH   6  29
ENDBRANCH  28   6
ENDBRANCH  22  23
BRANCH  21  12
ATOM      7  N   UNL     1      21.513   5.111  20.539  0.00  0.00    -0.289 NA
ATOM     12  C   UNL     1      20.677   6.045  21.322  0.00  0.00    +0.148 C 
ATOM     15  C   UNL     1      22.883   5.614  20.620  0.00  0.00    +0.116 C 
ATOM     16  C   UNL     1      21.417   7.393  21.248  0.00  0.00    +0.061 C 
ATOM     17  C   UNL     1      22.678   7.107  20.441  0.00  0.00    +0.130 C 
BRANCH  17   4
ATOM      4  O   UNL     1      23.773   7.850  20.941  0.00  0.00    -0.390 OA
ATOM     30  H   UNL     1      24.507   7.229  21.084  0.00  0.00    +0.210 HD
ENDBRANCH  17   4
BRANCH   7  11
ATOM     11  C   UNL     1      21.408   3.729  20.990  0.00  0.00    +0.088 C 
BRANCH  11  10
ATOM     10  C   UNL     1      22.726   3.255  21.599  0.00  0.00    +0.003 C 
ATOM     13  C   UNL     1      22.536   2.873  23.073  0.00  0.00    +0.005 C 
ATOM     14  C   UNL     1      23.300   2.077  20.799  0.00  0.00    +0.005 C 
ATOM     18  C   UNL     1      23.829   2.344  23.690  0.00  0.00    +0.000 C 
ATOM     19  C   UNL     1      24.591   1.549  21.420  0.00  0.00    +0.000 C 
ATOM     20  C   UNL     1      24.400   1.180  22.888  0.00  0.00    +0.000 C 
ENDBRANCH  11  10
ENDBRANCH   7  11
ENDBRANCH  21  12
TORSDOF 7
ENDMDL
MODEL 8
REMARK VINA RESULT:      -6.8      4.421     10.679
REMARK  Name = 26743712
REMARK  7 active torsions:
REMARK  status: ('A' for Active; 'I' for Inactive)
REMARK    1  A    between atoms: O_4  and  C_17
REMARK    2  A    between atoms: O_6  and  C_28
REMARK    3  A    between atoms: O_6  and  C_29
REMARK    4  A    between atoms: N_7  and  C_11
REMARK    5  A    between atoms: C_10  and  C_11
REMARK    6  A    between atoms: C_12  and  C_21
REMARK    7  A    between atoms: C_22  and  C_23
REMARK                            x       y       z     vdW  Elec       q    Type
REMARK                         _______ _______ _______ _____ _____    ______ ____
ROOT
ATOM      5  O   UNL     1      20.912   5.919  23.078  0.00  0.00    -0.336 OA
ATOM      8  N   UNL     1      20.623   5.846  20.858  0.00  0.00    -0.190 NA
ATOM      9  N   UNL     1      19.592   6.324  22.842  0.00  0.00    -0.056 NA
ATOM     21  C   UNL     1      21.448   5.657  21.857  0.00  0.00    +0.245 A 
ATOM     22  C   UNL     1      19.497   6.254  21.511  0.00  0.00    +0.202 A 
ENDROOT
BRANCH  22  23
ATOM     23  C   UNL     1      18.295   6.586  20.804  0.00  0.00    +0.023 A 
ATOM     24  C   UNL     1      17.862   5.787  19.746  0.00  0.00    +0.015 A 
ATOM     25  C   UNL     1      17.558   7.712  21.173  0.00  0.00    +0.015 A 
ATOM     26  C   UNL     1      16.694   6.112  19.058  0.00  0.00    +0.046 A 
ATOM     27  C   UNL     1      16.389   8.037  20.485  0.00  0.00    +0.046 A 
ATOM     28  C   UNL     1      15.957   7.237  19.427  0.00  0.00    +0.130 A 
BRANCH  28   6
ATOM      6  O   UNL     1      14.817   7.555  18.756  0.00  0.00    -0.406 OA
BRANCH   6  29
ATOM      1  F   UNL     1      13.108   8.458  19.921  0.00  0.00    -0.133 F 
ATOM      2  F   UNL     1      12.653   6.857  18.506  0.00  0.00    -0.133 F 
ATOM      3  F   UNL     1      13.707   6.412  20.397  0.00  0.00    -0.133 F 
ATOM     29  C   UNL     1      13.569   7.302  19.391  0.00  0.00    +0.575 C 
ENDBRANCH   6  29
ENDBRANCH  28   6
ENDBRANCH  22  23
BRANCH  21  12
ATOM      7  N   UNL     1      23.155   4.205  20.773  0.00  0.00    -0.289 NA
ATOM     12  C   UNL     1      22.889   5.194  21.839  0.00  0.00    +0.148 C 
ATOM     15  C   UNL     1      24.556   4.375  20.392  0.00  0.00    +0.116 C 
ATOM     16  C   UNL     1      23.880   6.341  21.569  0.00  0.00    +0.061 C 
ATOM     17  C   UNL     1      24.690   5.886  20.361  0.00  0.00    +0.130 C 
BRANCH  17   4
ATOM      4  O   UNL     1      26.039   6.296  20.478  0.00  0.00    -0.390 OA
ATOM     30  H   UNL     1      26.042   7.164  20.918  0.00  0.00    +0.210 HD
ENDBRANCH  17   4
BRANCH   7  11
ATOM     11  C   UNL     1      22.858   2.835  21.173  0.00  0.00    +0.088 C 
BRANCH  11  10
ATOM     10  C   UNL     1      23.995   2.254  22.010  0.00  0.00    +0.003 C 
ATOM     13  C   UNL     1      23.552   2.060  23.466  0.00  0.00    +0.005 C 
ATOM     14  C   UNL     1      24.490   0.931  21.409  0.00  0.00    +0.005 C 
ATOM     18  C   UNL     1      24.655   1.430  24.312  0.00  0.00    +0.000 C 
ATOM     19  C   UNL     1      25.591   0.303  22.259  0.00  0.00    +0.000 C 
ATOM     20  C   UNL     1      25.150   0.120  23.707  0.00  0.00    +0.000 C 
ENDBRANCH  11  10
ENDBRANCH   7  11
ENDBRANCH  21  12
TORSDOF 7
ENDMDL
MODEL 9
REMARK VINA RESULT:      -6.8      4.614      7.041
REMARK  Name = 26743712
REMARK  7 active torsions:
REMARK  status: ('A' for Active; 'I' for Inactive)
REMARK    1  A    between atoms: O_4  and  C_17
REMARK    2  A    between atoms: O_6  and  C_28
REMARK    3  A    between atoms: O_6  and  C_29
REMARK    4  A    between atoms: N_7  and  C_11
REMARK    5  A    between atoms: C_10  and  C_11
REMARK    6  A    between atoms: C_12  and  C_21
REMARK    7  A    between atoms: C_22  and  C_23
REMARK                            x       y       z     vdW  Elec       q    Type
REMARK                         _______ _______ _______ _____ _____    ______ ____
ROOT
ATOM      5  O   UNL     1      12.543   7.883  17.099  0.00  0.00    -0.336 OA
ATOM      8  N   UNL     1      13.749   9.433  18.176  0.00  0.00    -0.190 NA
ATOM      9  N   UNL     1      13.217   8.609  16.110  0.00  0.00    -0.056 NA
ATOM     21  C   UNL     1      12.911   8.432  18.286  0.00  0.00    +0.245 A 
ATOM     22  C   UNL     1      13.908   9.503  16.823  0.00  0.00    +0.202 A 
ENDROOT
BRANCH  22  23
ATOM     23  C   UNL     1      14.762  10.482  16.215  0.00  0.00    +0.023 A 
ATOM     24  C   UNL     1      15.078  10.388  14.860  0.00  0.00    +0.015 A 
ATOM     25  C   UNL     1      15.279  11.528  16.980  0.00  0.00    +0.015 A 
ATOM     26  C   UNL     1      15.910  11.339  14.269  0.00  0.00    +0.046 A 
ATOM     27  C   UNL     1      16.111  12.479  16.390  0.00  0.00    +0.046 A 
ATOM     28  C   UNL     1      16.426  12.384  15.035  0.00  0.00    +0.130 A 
BRANCH  28   6
ATOM      6  O   UNL     1      17.238  13.313  14.459  0.00  0.00    -0.406 OA
BRANCH   6  29
ATOM      1  F   UNL     1      19.044  13.933  15.663  0.00  0.00    -0.133 F 
ATOM      2  F   UNL     1      18.976  11.890  14.891  0.00  0.00    -0.133 F 
ATOM      3  F   UNL     1      19.305  13.593  13.520  0.00  0.00    -0.133 F 
ATOM     29  C   UNL     1      18.645  13.170  14.620  0.00  0.00    +0.575 C 
ENDBRANCH   6  29
ENDBRANCH  28   6
ENDBRANCH  22  23
BRANCH  21  12
ATOM      7  N   UNL     1      13.192   7.938  20.710  0.00  0.00    -0.289 NA
ATOM     12  C   UNL     1      12.309   7.816  19.531  0.00  0.00    +0.148 C 
ATOM     15  C   UNL     1      12.315   7.994  21.878  0.00  0.00    +0.116 C 
ATOM     16  C   UNL     1      10.991   8.490  19.953  0.00  0.00    +0.061 C 
ATOM     17  C   UNL     1      11.214   8.920  21.398  0.00  0.00    +0.130 C 
BRANCH  17   4
ATOM      4  O   UNL     1      10.029   8.764  22.155  0.00  0.00    -0.390 OA
ATOM     30  H   UNL     1      10.247   8.214  22.927  0.00  0.00    +0.210 HD
ENDBRANCH  17   4
BRANCH   7  11
ATOM     11  C   UNL     1      14.171   6.863  20.809  0.00  0.00    +0.088 C 
BRANCH  11  10
ATOM     10  C   UNL     1      15.583   7.389  20.565  0.00  0.00    +0.003 C 
ATOM     13  C   UNL     1      15.757   8.783  21.184  0.00  0.00    +0.005 C 
ATOM     14  C   UNL     1      16.629   6.412  21.119  0.00  0.00    +0.005 C 
ATOM     18  C   UNL     1      17.178   9.309  20.999  0.00  0.00    +0.000 C 
ATOM     19  C   UNL     1      18.049   6.942  20.935  0.00  0.00    +0.000 C 
ATOM     20  C   UNL     1      18.215   8.331  21.542  0.00  0.00    +0.000 C 
ENDBRANCH  11  10
ENDBRANCH   7  11
ENDBRANCH  21  12
TORSDOF 7
ENDMDL
MODEL 10
REMARK VINA RESULT:      -6.6     27.356     30.244
REMARK  Name = 26743712
REMARK  7 active torsions:
REMARK  status: ('A' for Active; 'I' for Inactive)
REMARK    1  A    between atoms: O_4  and  C_17
REMARK    2  A    between atoms: O_6  and  C_28
REMARK    3  A    between atoms: O_6  and  C_29
REMARK    4  A    between atoms: N_7  and  C_11
REMARK    5  A    between atoms: C_10  and  C_11
REMARK    6  A    between atoms: C_12  and  C_21
REMARK    7  A    between atoms: C_22  and  C_23
REMARK                            x       y       z     vdW  Elec       q    Type
REMARK                         _______ _______ _______ _____ _____    ______ ____
ROOT
ATOM      5  O   UNL     1      -9.296 -11.048  20.052  0.00  0.00    -0.336 OA
ATOM      8  N   UNL     1      -8.719 -10.059  18.127  0.00  0.00    -0.190 NA
ATOM      9  N   UNL     1      -7.935 -11.323  19.865  0.00  0.00    -0.056 NA
ATOM     21  C   UNL     1      -9.679 -10.300  18.984  0.00  0.00    +0.245 A 
ATOM     22  C   UNL     1      -7.668 -10.706  18.710  0.00  0.00    +0.202 A 
ENDROOT
BRANCH  22  23
ATOM     23  C   UNL     1      -6.365 -10.718  18.112  0.00  0.00    +0.023 A 
ATOM     24  C   UNL     1      -6.122  -9.983  16.952  0.00  0.00    +0.015 A 
ATOM     25  C   UNL     1      -5.340 -11.469  18.689  0.00  0.00    +0.015 A 
ATOM     26  C   UNL     1      -4.855  -9.996  16.369  0.00  0.00    +0.046 A 
ATOM     27  C   UNL     1      -4.073 -11.482  18.106  0.00  0.00    +0.046 A 
ATOM     28  C   UNL     1      -3.831 -10.746  16.946  0.00  0.00    +0.130 A 
BRANCH  28   6
ATOM      6  O   UNL     1      -2.594 -10.760  16.378  0.00  0.00    -0.406 OA
BRANCH   6  29
ATOM      1  F   UNL     1      -3.293 -12.445  15.049  0.00  0.00    -0.133 F 
ATOM      2  F   UNL     1      -2.739 -10.554  14.105  0.00  0.00    -0.133 F 
ATOM      3  F   UNL     1      -1.185 -11.873  14.960  0.00  0.00    -0.133 F 
ATOM     29  C   UNL     1      -2.440 -11.397  15.115  0.00  0.00    +0.575 C 
ENDBRANCH   6  29
ENDBRANCH  28   6
ENDBRANCH  22  23
BRANCH  21  12
ATOM      7  N   UNL     1     -11.929 -10.639  17.976  0.00  0.00    -0.289 NA
ATOM     12  C   UNL     1     -11.129  -9.867  18.949  0.00  0.00    +0.148 C 
ATOM     15  C   UNL     1     -13.294 -10.672  18.497  0.00  0.00    +0.116 C 
ATOM     16  C   UNL     1     -11.844 -10.070  20.297  0.00  0.00    +0.061 C 
ATOM     17  C   UNL     1     -13.059 -10.931  19.973  0.00  0.00    +0.130 C 
BRANCH  17   4
ATOM      4  O   UNL     1     -14.171 -10.545  20.757  0.00  0.00    -0.390 OA
ATOM     30  H   UNL     1     -14.768 -11.310  20.813  0.00  0.00    +0.210 HD
ENDBRANCH  17   4
BRANCH   7  11
ATOM     11  C   UNL     1     -11.870 -10.096  16.624  0.00  0.00    +0.088 C 
BRANCH  11  10
ATOM     10  C   UNL     1     -11.963  -8.572  16.646  0.00  0.00    +0.003 C 
ATOM     13  C   UNL     1     -10.720  -7.944  16.001  0.00  0.00    +0.005 C 
ATOM     14  C   UNL     1     -13.242  -8.096  15.942  0.00  0.00    +0.005 C 
ATOM     18  C   UNL     1     -10.813  -6.421  15.963  0.00  0.00    +0.000 C 
ATOM     19  C   UNL     1     -13.330  -6.572  15.904  0.00  0.00    +0.000 C 
ATOM     20  C   UNL     1     -12.089  -5.952  15.271  0.00  0.00    +0.000 C 
ENDBRANCH  11  10
ENDBRANCH   7  11
ENDBRANCH  21  12
TORSDOF 7
ENDMDL
