MODEL 1
REMARK VINA RESULT:      -7.1      0.000      0.000
REMARK  Name = 11885331
REMARK  6 active torsions:
REMARK  status: ('A' for Active; 'I' for Inactive)
REMARK    1  A    between atoms: S_1  and  C_29
REMARK    2  A    between atoms: S_1  and  C_30
REMARK    3  A    between atoms: O_3  and  C_20
REMARK    4  A    between atoms: N_4  and  C_13
REMARK    5  A    between atoms: C_13  and  C_18
REMARK    6  A    between atoms: C_16  and  C_19
REMARK                            x       y       z     vdW  Elec       q    Type
REMARK                         _______ _______ _______ _____ _____    ______ ____
ROOT
ATOM      2  O   UNL     1      -6.133 -11.801  11.207  0.00  0.00    -0.267 OA
ATOM      4  N   UNL     1      -3.304 -11.189  15.302  0.00  0.00    -0.297 NA
ATOM      5  N   UNL     1      -4.061 -11.855  12.277  0.00  0.00    -0.311 N 
ATOM      6  C   UNL     1      -3.551 -13.439  14.225  0.00  0.00    +0.024 C 
ATOM      7  C   UNL     1      -1.821 -11.902  13.424  0.00  0.00    +0.050 C 
ATOM      8  C   UNL     1      -2.119 -13.372  13.712  0.00  0.00    +0.017 C 
ATOM      9  C   UNL     1      -3.693 -12.590  15.506  0.00  0.00    +0.090 C 
ATOM     10  C   UNL     1      -1.956 -11.084  14.727  0.00  0.00    +0.094 C 
ATOM     11  C   UNL     1      -4.499 -12.986  13.108  0.00  0.00    +0.130 C 
ATOM     12  C   UNL     1      -2.757 -11.362  12.358  0.00  0.00    +0.026 A 
ATOM     14  C   UNL     1      -2.344 -10.405  11.513  0.00  0.00    +0.022 A 
ATOM     15  C   UNL     1      -4.986 -11.369  11.331  0.00  0.00    +0.259 A 
ATOM     16  C   UNL     1      -4.505 -10.272  10.419  0.00  0.00    +0.047 A 
ATOM     17  C   UNL     1      -3.235  -9.850  10.534  0.00  0.00    +0.015 A 
ENDROOT
BRANCH  16  19
ATOM     19  C   UNL     1      -5.401  -9.659   9.422  0.00  0.00    -0.013 A 
ATOM     22  C   UNL     1      -5.401 -10.121   8.107  0.00  0.00    +0.010 A 
ATOM     23  C   UNL     1      -6.249  -8.616   9.795  0.00  0.00    +0.010 A 
ATOM     27  C   UNL     1      -6.250  -9.541   7.163  0.00  0.00    +0.015 A 
ATOM     28  C   UNL     1      -7.098  -8.036   8.851  0.00  0.00    +0.015 A 
ATOM     29  C   UNL     1      -7.098  -8.499   7.536  0.00  0.00    +0.008 A 
BRANCH  29   1
ATOM      1  S   UNL     1      -8.179  -7.755   6.330  0.00  0.00    -0.129 S 
ATOM     30  C   UNL     1      -7.452  -8.340   4.773  0.00  0.00    +0.090 C 
ENDBRANCH  29   1
ENDBRANCH  16  19
BRANCH   4  13
ATOM     13  C   UNL     1      -3.402 -10.431  16.548  0.00  0.00    +0.123 C 
BRANCH  13  18
ATOM     18  C   UNL     1      -4.833 -10.304  16.994  0.00  0.00    +0.008 A 
ATOM     20  C   UNL     1      -5.797  -9.812  16.122  0.00  0.00    +0.121 A 
ATOM     21  C   UNL     1      -5.170 -10.686  18.286  0.00  0.00    +0.008 A 
ATOM     24  C   UNL     1      -7.120  -9.700  16.550  0.00  0.00    +0.046 A 
ATOM     25  C   UNL     1      -6.494 -10.575  18.715  0.00  0.00    +0.001 A 
ATOM     26  C   UNL     1      -7.468 -10.082  17.846  0.00  0.00    +0.004 A 
BRANCH  20   3
ATOM      3  O   UNL     1      -5.475  -9.436  14.853  0.00  0.00    -0.506 OA
ATOM     31  H   UNL     1      -5.826 -10.093  14.229  0.00  0.00    +0.292 HD
ENDBRANCH  20   3
ENDBRANCH  13  18
ENDBRANCH   4  13
TORSDOF 5
ENDMDL
MODEL 2
REMARK VINA RESULT:      -6.9     19.240     22.051
REMARK  Name = 11885331
REMARK  6 active torsions:
REMARK  status: ('A' for Active; 'I' for Inactive)
REMARK    1  A    between atoms: S_1  and  C_29
REMARK    2  A    between atoms: S_1  and  C_30
REMARK    3  A    between atoms: O_3  and  C_20
REMARK    4  A    between atoms: N_4  and  C_13
REMARK    5  A    between atoms: C_13  and  C_18
REMARK    6  A    between atoms: C_16  and  C_19
REMARK                            x       y       z     vdW  Elec       q    Type
REMARK                         _______ _______ _______ _____ _____    ______ ____
ROOT
ATOM      2  O   UNL     1      -6.603   9.718   5.536  0.00  0.00    -0.267 OA
ATOM      4  N   UNL     1      -1.891  10.591   4.058  0.00  0.00    -0.297 NA
ATOM      5  N   UNL     1      -4.312   9.305   5.688  0.00  0.00    -0.311 N 
ATOM      6  C   UNL     1      -2.627  11.100   6.400  0.00  0.00    +0.024 C 
ATOM      7  C   UNL     1      -1.842   8.848   5.846  0.00  0.00    +0.050 C 
ATOM      8  C   UNL     1      -1.820   9.923   6.930  0.00  0.00    +0.017 C 
ATOM      9  C   UNL     1      -1.997  11.627   5.093  0.00  0.00    +0.090 C 
ATOM     10  C   UNL     1      -1.190   9.400   4.559  0.00  0.00    +0.094 C 
ATOM     11  C   UNL     1      -4.085  10.658   6.216  0.00  0.00    +0.130 C 
ATOM     12  C   UNL     1      -3.263   8.392   5.568  0.00  0.00    +0.026 A 
ATOM     14  C   UNL     1      -3.510   7.128   5.191  0.00  0.00    +0.022 A 
ATOM     15  C   UNL     1      -5.647   8.950   5.410  0.00  0.00    +0.259 A 
ATOM     16  C   UNL     1      -5.888   7.535   4.957  0.00  0.00    +0.047 A 
ATOM     17  C   UNL     1      -4.842   6.698   4.876  0.00  0.00    +0.015 A 
ENDROOT
BRANCH  16  19
ATOM     19  C   UNL     1      -7.239   7.068   4.598  0.00  0.00    -0.013 A 
ATOM     22  C   UNL     1      -7.856   7.540   3.440  0.00  0.00    +0.010 A 
ATOM     23  C   UNL     1      -7.902   6.153   5.418  0.00  0.00    +0.010 A 
ATOM     27  C   UNL     1      -9.135   7.097   3.100  0.00  0.00    +0.015 A 
ATOM     28  C   UNL     1      -9.181   5.711   5.077  0.00  0.00    +0.015 A 
ATOM     29  C   UNL     1      -9.797   6.183   3.919  0.00  0.00    +0.008 A 
BRANCH  29   1
ATOM      1  S   UNL     1     -11.431   5.620   3.487  0.00  0.00    -0.129 S 
ATOM     30  C   UNL     1     -12.069   5.070   5.095  0.00  0.00    +0.090 C 
ENDBRANCH  29   1
ENDBRANCH  16  19
BRANCH   4  13
ATOM     13  C   UNL     1      -1.242  11.114   2.857  0.00  0.00    +0.123 C 
BRANCH  13  18
ATOM     18  C   UNL     1      -1.805  10.475   1.617  0.00  0.00    +0.008 A 
ATOM     20  C   UNL     1      -0.962   9.847   0.708  0.00  0.00    +0.121 A 
ATOM     21  C   UNL     1      -3.175  10.527   1.399  0.00  0.00    +0.008 A 
ATOM     24  C   UNL     1      -1.499   9.260  -0.437  0.00  0.00    +0.046 A 
ATOM     25  C   UNL     1      -3.713   9.939   0.253  0.00  0.00    +0.001 A 
ATOM     26  C   UNL     1      -2.875   9.306  -0.665  0.00  0.00    +0.004 A 
BRANCH  20   3
ATOM      3  O   UNL     1       0.384   9.793   0.916  0.00  0.00    -0.506 OA
ATOM     31  H   UNL     1       0.608  10.345   1.684  0.00  0.00    +0.292 HD
ENDBRANCH  20   3
ENDBRANCH  13  18
ENDBRANCH   4  13
TORSDOF 5
ENDMDL
MODEL 3
REMARK VINA RESULT:      -6.6     24.521     26.431
REMARK  Name = 11885331
REMARK  6 active torsions:
REMARK  status: ('A' for Active; 'I' for Inactive)
REMARK    1  A    between atoms: S_1  and  C_29
REMARK    2  A    between atoms: S_1  and  C_30
REMARK    3  A    between atoms: O_3  and  C_20
REMARK    4  A    between atoms: N_4  and  C_13
REMARK    5  A    between atoms: C_13  and  C_18
REMARK    6  A    between atoms: C_16  and  C_19
REMARK                            x       y       z     vdW  Elec       q    Type
REMARK                         _______ _______ _______ _____ _____    ______ ____
ROOT
ATOM      2  O   UNL     1      12.131   7.842   2.287  0.00  0.00    -0.267 OA
ATOM      4  N   UNL     1      13.503   4.190  -0.864  0.00  0.00    -0.297 NA
ATOM      5  N   UNL     1      12.701   5.619   1.872  0.00  0.00    -0.311 N 
ATOM      6  C   UNL     1      15.008   4.921   1.003  0.00  0.00    +0.024 C 
ATOM      7  C   UNL     1      13.303   3.216   1.427  0.00  0.00    +0.050 C 
ATOM      8  C   UNL     1      14.737   3.625   1.756  0.00  0.00    +0.017 C 
ATOM      9  C   UNL     1      14.836   4.697  -0.514  0.00  0.00    +0.090 C 
ATOM     10  C   UNL     1      13.168   2.983  -0.095  0.00  0.00    +0.094 C 
ATOM     11  C   UNL     1      14.080   6.013   1.548  0.00  0.00    +0.130 C 
ATOM     12  C   UNL     1      12.320   4.276   1.891  0.00  0.00    +0.026 A 
ATOM     14  C   UNL     1      11.090   3.930   2.299  0.00  0.00    +0.022 A 
ATOM     15  C   UNL     1      11.822   6.650   2.259  0.00  0.00    +0.259 A 
ATOM     16  C   UNL     1      10.438   6.234   2.678  0.00  0.00    +0.047 A 
ATOM     17  C   UNL     1      10.135   4.926   2.692  0.00  0.00    +0.015 A 
ENDROOT
BRANCH  16  19
ATOM     19  C   UNL     1       9.423   7.232   3.060  0.00  0.00    -0.013 A 
ATOM     22  C   UNL     1       8.841   8.044   2.087  0.00  0.00    +0.010 A 
ATOM     23  C   UNL     1       9.044   7.366   4.397  0.00  0.00    +0.010 A 
ATOM     27  C   UNL     1       7.880   8.989   2.449  0.00  0.00    +0.015 A 
ATOM     28  C   UNL     1       8.084   8.311   4.759  0.00  0.00    +0.015 A 
ATOM     29  C   UNL     1       7.501   9.122   3.785  0.00  0.00    +0.008 A 
BRANCH  29   1
ATOM      1  S   UNL     1       6.277  10.331   4.248  0.00  0.00    -0.129 S 
ATOM     30  C   UNL     1       5.112  10.226   2.860  0.00  0.00    +0.090 C 
ENDBRANCH  29   1
ENDBRANCH  16  19
BRANCH   4  13
ATOM     13  C   UNL     1      13.397   3.941  -2.300  0.00  0.00    +0.123 C 
BRANCH  13  18
ATOM     18  C   UNL     1      11.958   3.904  -2.738  0.00  0.00    +0.008 A 
ATOM     20  C   UNL     1      11.098   4.944  -2.408  0.00  0.00    +0.121 A 
ATOM     21  C   UNL     1      11.510   2.815  -3.475  0.00  0.00    +0.008 A 
ATOM     24  C   UNL     1       9.767   4.894  -2.821  0.00  0.00    +0.046 A 
ATOM     25  C   UNL     1      10.177   2.766  -3.889  0.00  0.00    +0.001 A 
ATOM     26  C   UNL     1       9.307   3.805  -3.562  0.00  0.00    +0.004 A 
BRANCH  20   3
ATOM      3  O   UNL     1      11.532   6.015  -1.685  0.00  0.00    -0.506 OA
ATOM     31  H   UNL     1      12.415   6.272  -1.999  0.00  0.00    +0.292 HD
ENDBRANCH  20   3
ENDBRANCH  13  18
ENDBRANCH   4  13
TORSDOF 5
ENDMDL
MODEL 4
REMARK VINA RESULT:      -6.5     23.680     25.631
REMARK  Name = 11885331
REMARK  6 active torsions:
REMARK  status: ('A' for Active; 'I' for Inactive)
REMARK    1  A    between atoms: S_1  and  C_29
REMARK    2  A    between atoms: S_1  and  C_30
REMARK    3  A    between atoms: O_3  and  C_20
REMARK    4  A    between atoms: N_4  and  C_13
REMARK    5  A    between atoms: C_13  and  C_18
REMARK    6  A    between atoms: C_16  and  C_19
REMARK                            x       y       z     vdW  Elec       q    Type
REMARK                         _______ _______ _______ _____ _____    ______ ____
ROOT
ATOM      2  O   UNL     1      10.129   7.285   2.020  0.00  0.00    -0.267 OA
ATOM      4  N   UNL     1      11.025   8.213   6.866  0.00  0.00    -0.297 NA
ATOM      5  N   UNL     1       9.688   6.912   4.279  0.00  0.00    -0.311 N 
ATOM      6  C   UNL     1       8.801   8.743   5.837  0.00  0.00    +0.024 C 
ATOM      7  C   UNL     1       9.217   6.496   6.717  0.00  0.00    +0.050 C 
ATOM      8  C   UNL     1       8.156   7.587   6.588  0.00  0.00    +0.017 C 
ATOM      9  C   UNL     1      10.028   9.262   6.617  0.00  0.00    +0.090 C 
ATOM     10  C   UNL     1      10.423   7.041   7.516  0.00  0.00    +0.094 C 
ATOM     11  C   UNL     1       9.158   8.276   4.420  0.00  0.00    +0.130 C 
ATOM     12  C   UNL     1       9.663   6.014   5.348  0.00  0.00    +0.026 A 
ATOM     14  C   UNL     1      10.046   4.741   5.168  0.00  0.00    +0.022 A 
ATOM     15  C   UNL     1      10.123   6.532   2.994  0.00  0.00    +0.259 A 
ATOM     16  C   UNL     1      10.580   5.107   2.831  0.00  0.00    +0.047 A 
ATOM     17  C   UNL     1      10.518   4.286   3.892  0.00  0.00    +0.015 A 
ENDROOT
BRANCH  16  19
ATOM     19  C   UNL     1      11.097   4.613   1.542  0.00  0.00    -0.013 A 
ATOM     22  C   UNL     1      10.314   4.711   0.393  0.00  0.00    +0.010 A 
ATOM     23  C   UNL     1      12.370   4.045   1.472  0.00  0.00    +0.010 A 
ATOM     27  C   UNL     1      10.803   4.244  -0.827  0.00  0.00    +0.015 A 
ATOM     28  C   UNL     1      12.859   3.578   0.252  0.00  0.00    +0.015 A 
ATOM     29  C   UNL     1      12.075   3.677  -0.898  0.00  0.00    +0.008 A 
BRANCH  29   1
ATOM      1  S   UNL     1      12.699   3.077  -2.455  0.00  0.00    -0.129 S 
ATOM     30  C   UNL     1      11.163   2.717  -3.353  0.00  0.00    +0.090 C 
ENDBRANCH  29   1
ENDBRANCH  16  19
BRANCH   4  13
ATOM     13  C   UNL     1      12.145   8.729   7.651  0.00  0.00    +0.123 C 
BRANCH  13  18
ATOM     18  C   UNL     1      13.422   8.698   6.858  0.00  0.00    +0.008 A 
ATOM     20  C   UNL     1      14.027   7.485   6.552  0.00  0.00    +0.121 A 
ATOM     21  C   UNL     1      13.983   9.898   6.441  0.00  0.00    +0.008 A 
ATOM     24  C   UNL     1      15.212   7.473   5.816  0.00  0.00    +0.046 A 
ATOM     25  C   UNL     1      15.168   9.886   5.704  0.00  0.00    +0.001 A 
ATOM     26  C   UNL     1      15.782   8.673   5.392  0.00  0.00    +0.004 A 
BRANCH  20   3
ATOM      3  O   UNL     1      13.483   6.303   6.958  0.00  0.00    -0.506 OA
ATOM     31  H   UNL     1      12.646   6.482   7.420  0.00  0.00    +0.292 HD
ENDBRANCH  20   3
ENDBRANCH  13  18
ENDBRANCH   4  13
TORSDOF 5
ENDMDL
MODEL 5
REMARK VINA RESULT:      -6.4     19.505     23.228
REMARK  Name = 11885331
REMARK  6 active torsions:
REMARK  status: ('A' for Active; 'I' for Inactive)
REMARK    1  A    between atoms: S_1  and  C_29
REMARK    2  A    between atoms: S_1  and  C_30
REMARK    3  A    between atoms: O_3  and  C_20
REMARK    4  A    between atoms: N_4  and  C_13
REMARK    5  A    between atoms: C_13  and  C_18
REMARK    6  A    between atoms: C_16  and  C_19
REMARK                            x       y       z     vdW  Elec       q    Type
REMARK                         _______ _______ _______ _____ _____    ______ ____
ROOT
ATOM      2  O   UNL     1       8.485 -12.503  32.076  0.00  0.00    -0.267 OA
ATOM      4  N   UNL     1       6.817  -8.716  34.910  0.00  0.00    -0.297 NA
ATOM      5  N   UNL     1       8.211 -10.220  32.467  0.00  0.00    -0.311 N 
ATOM      6  C   UNL     1       9.266  -9.023  34.472  0.00  0.00    +0.024 C 
ATOM      7  C   UNL     1       7.906  -7.755  32.878  0.00  0.00    +0.050 C 
ATOM      8  C   UNL     1       9.274  -7.807  33.554  0.00  0.00    +0.017 C 
ATOM      9  C   UNL     1       8.142  -8.886  35.519  0.00  0.00    +0.090 C 
ATOM     10  C   UNL     1       6.806  -7.602  33.951  0.00  0.00    +0.094 C 
ATOM     11  C   UNL     1       9.125 -10.288  33.616  0.00  0.00    +0.130 C 
ATOM     12  C   UNL     1       7.668  -9.004  32.048  0.00  0.00    +0.026 A 
ATOM     14  C   UNL     1       6.927  -8.946  30.931  0.00  0.00    +0.022 A 
ATOM     15  C   UNL     1       7.996 -11.418  31.757  0.00  0.00    +0.259 A 
ATOM     16  C   UNL     1       7.132 -11.328  30.527  0.00  0.00    +0.047 A 
ATOM     17  C   UNL     1       6.652 -10.128  30.165  0.00  0.00    +0.015 A 
ENDROOT
BRANCH  16  19
ATOM     19  C   UNL     1       6.806 -12.526  29.734  0.00  0.00    -0.013 A 
ATOM     22  C   UNL     1       5.632 -13.234  29.989  0.00  0.00    +0.010 A 
ATOM     23  C   UNL     1       7.672 -12.953  28.726  0.00  0.00    +0.010 A 
ATOM     27  C   UNL     1       5.323 -14.368  29.237  0.00  0.00    +0.015 A 
ATOM     28  C   UNL     1       7.363 -14.087  27.974  0.00  0.00    +0.015 A 
ATOM     29  C   UNL     1       6.189 -14.794  28.230  0.00  0.00    +0.008 A 
BRANCH  29   1
ATOM      1  S   UNL     1       5.796 -16.244  27.272  0.00  0.00    -0.129 S 
ATOM     30  C   UNL     1       5.930 -15.612  25.575  0.00  0.00    +0.090 C 
ENDBRANCH  29   1
ENDBRANCH  16  19
BRANCH   4  13
ATOM     13  C   UNL     1       5.788  -8.537  35.932  0.00  0.00    +0.123 C 
BRANCH  13  18
ATOM     18  C   UNL     1       4.666  -9.523  35.749  0.00  0.00    +0.008 A 
ATOM     20  C   UNL     1       3.484  -9.381  36.465  0.00  0.00    +0.121 A 
ATOM     21  C   UNL     1       4.836 -10.573  34.856  0.00  0.00    +0.008 A 
ATOM     24  C   UNL     1       2.454 -10.303  36.284  0.00  0.00    +0.046 A 
ATOM     25  C   UNL     1       3.805 -11.497  34.674  0.00  0.00    +0.001 A 
ATOM     26  C   UNL     1       2.614 -11.361  35.389  0.00  0.00    +0.004 A 
BRANCH  20   3
ATOM      3  O   UNL     1       3.311  -8.353  37.343  0.00  0.00    -0.506 OA
ATOM     31  H   UNL     1       2.923  -7.596  36.872  0.00  0.00    +0.292 HD
ENDBRANCH  20   3
ENDBRANCH  13  18
ENDBRANCH   4  13
TORSDOF 5
ENDMDL
MODEL 6
REMARK VINA RESULT:      -6.4      4.057      7.467
REMARK  Name = 11885331
REMARK  6 active torsions:
REMARK  status: ('A' for Active; 'I' for Inactive)
REMARK    1  A    between atoms: S_1  and  C_29
REMARK    2  A    between atoms: S_1  and  C_30
REMARK    3  A    between atoms: O_3  and  C_20
REMARK    4  A    between atoms: N_4  and  C_13
REMARK    5  A    between atoms: C_13  and  C_18
REMARK    6  A    between atoms: C_16  and  C_19
REMARK                            x       y       z     vdW  Elec       q    Type
REMARK                         _______ _______ _______ _____ _____    ______ ____
ROOT
ATOM      2  O   UNL     1      -6.658 -10.613  14.478  0.00  0.00    -0.267 OA
ATOM      4  N   UNL     1      -2.539 -13.119  13.094  0.00  0.00    -0.297 NA
ATOM      5  N   UNL     1      -4.337 -10.791  14.327  0.00  0.00    -0.311 N 
ATOM      6  C   UNL     1      -3.099 -10.893  12.085  0.00  0.00    +0.024 C 
ATOM      7  C   UNL     1      -1.831 -10.983  14.178  0.00  0.00    +0.050 C 
ATOM      8  C   UNL     1      -1.959 -10.236  12.853  0.00  0.00    +0.017 C 
ATOM      9  C   UNL     1      -2.785 -12.385  11.846  0.00  0.00    +0.090 C 
ATOM     10  C   UNL     1      -1.501 -12.467  13.905  0.00  0.00    +0.094 C 
ATOM     11  C   UNL     1      -4.405 -10.682  12.863  0.00  0.00    +0.130 C 
ATOM     12  C   UNL     1      -3.110 -10.864  14.989  0.00  0.00    +0.026 A 
ATOM     14  C   UNL     1      -3.065 -10.849  16.330  0.00  0.00    +0.022 A 
ATOM     15  C   UNL     1      -5.558 -10.713  15.025  0.00  0.00    +0.259 A 
ATOM     16  C   UNL     1      -5.479 -10.733  16.528  0.00  0.00    +0.047 A 
ATOM     17  C   UNL     1      -4.269 -10.789  17.108  0.00  0.00    +0.015 A 
ENDROOT
BRANCH  16  19
ATOM     19  C   UNL     1      -6.696 -10.701  17.358  0.00  0.00    -0.013 A 
ATOM     22  C   UNL     1      -6.918 -11.694  18.311  0.00  0.00    +0.010 A 
ATOM     23  C   UNL     1      -7.629  -9.676  17.190  0.00  0.00    +0.010 A 
ATOM     27  C   UNL     1      -8.070 -11.664  19.097  0.00  0.00    +0.015 A 
ATOM     28  C   UNL     1      -8.781  -9.646  17.976  0.00  0.00    +0.015 A 
ATOM     29  C   UNL     1      -9.002 -10.639  18.929  0.00  0.00    +0.008 A 
BRANCH  29   1
ATOM      1  S   UNL     1     -10.475 -10.602  19.930  0.00  0.00    -0.129 S 
ATOM     30  C   UNL     1     -10.679 -12.356  20.352  0.00  0.00    +0.090 C 
ENDBRANCH  29   1
ENDBRANCH  16  19
BRANCH   4  13
ATOM     13  C   UNL     1      -2.194 -14.513  12.823  0.00  0.00    +0.123 C 
BRANCH  13  18
ATOM     18  C   UNL     1      -2.440 -15.376  14.031  0.00  0.00    +0.008 A 
ATOM     20  C   UNL     1      -3.665 -15.334  14.684  0.00  0.00    +0.121 A 
ATOM     21  C   UNL     1      -1.423 -16.210  14.477  0.00  0.00    +0.008 A 
ATOM     24  C   UNL     1      -3.878 -16.140  15.802  0.00  0.00    +0.046 A 
ATOM     25  C   UNL     1      -1.635 -17.017  15.596  0.00  0.00    +0.001 A 
ATOM     26  C   UNL     1      -2.863 -16.982  16.258  0.00  0.00    +0.004 A 
BRANCH  20   3
ATOM      3  O   UNL     1      -4.668 -14.518  14.251  0.00  0.00    -0.506 OA
ATOM     31  H   UNL     1      -5.523 -14.931  14.458  0.00  0.00    +0.292 HD
ENDBRANCH  20   3
ENDBRANCH  13  18
ENDBRANCH   4  13
TORSDOF 5
ENDMDL
MODEL 7
REMARK VINA RESULT:      -6.4     23.250     25.218
REMARK  Name = 11885331
REMARK  6 active torsions:
REMARK  status: ('A' for Active; 'I' for Inactive)
REMARK    1  A    between atoms: S_1  and  C_29
REMARK    2  A    between atoms: S_1  and  C_30
REMARK    3  A    between atoms: O_3  and  C_20
REMARK    4  A    between atoms: N_4  and  C_13
REMARK    5  A    between atoms: C_13  and  C_18
REMARK    6  A    between atoms: C_16  and  C_19
REMARK                            x       y       z     vdW  Elec       q    Type
REMARK                         _______ _______ _______ _____ _____    ______ ____
ROOT
ATOM      2  O   UNL     1      10.288   3.848   3.133  0.00  0.00    -0.267 OA
ATOM      4  N   UNL     1       9.085   7.985   5.700  0.00  0.00    -0.297 NA
ATOM      5  N   UNL     1      10.870   5.602   4.555  0.00  0.00    -0.311 N 
ATOM      6  C   UNL     1       9.833   5.902   6.879  0.00  0.00    +0.024 C 
ATOM      7  C   UNL     1      11.506   7.501   6.080  0.00  0.00    +0.050 C 
ATOM      8  C   UNL     1      11.165   6.554   7.227  0.00  0.00    +0.017 C 
ATOM      9  C   UNL     1       8.743   6.982   6.717  0.00  0.00    +0.090 C 
ATOM     10  C   UNL     1      10.406   8.579   5.955  0.00  0.00    +0.094 C 
ATOM     11  C   UNL     1      10.014   5.051   5.615  0.00  0.00    +0.130 C 
ATOM     12  C   UNL     1      11.652   6.738   4.776  0.00  0.00    +0.026 A 
ATOM     14  C   UNL     1      12.511   7.158   3.834  0.00  0.00    +0.022 A 
ATOM     15  C   UNL     1      10.936   4.872   3.352  0.00  0.00    +0.259 A 
ATOM     16  C   UNL     1      11.883   5.388   2.301  0.00  0.00    +0.047 A 
ATOM     17  C   UNL     1      12.621   6.475   2.577  0.00  0.00    +0.015 A 
ENDROOT
BRANCH  16  19
ATOM     19  C   UNL     1      12.001   4.728   0.989  0.00  0.00    -0.013 A 
ATOM     22  C   UNL     1      12.997   3.776   0.773  0.00  0.00    +0.010 A 
ATOM     23  C   UNL     1      11.115   5.056  -0.039  0.00  0.00    +0.010 A 
ATOM     27  C   UNL     1      13.108   3.150  -0.469  0.00  0.00    +0.015 A 
ATOM     28  C   UNL     1      11.227   4.430  -1.282  0.00  0.00    +0.015 A 
ATOM     29  C   UNL     1      12.223   3.478  -1.497  0.00  0.00    +0.008 A 
BRANCH  29   1
ATOM      1  S   UNL     1      12.366   2.683  -3.084  0.00  0.00    -0.129 S 
ATOM     30  C   UNL     1      13.230   3.950  -4.055  0.00  0.00    +0.090 C 
ENDBRANCH  29   1
ENDBRANCH  16  19
BRANCH   4  13
ATOM     13  C   UNL     1       8.055   9.017   5.614  0.00  0.00    +0.123 C 
BRANCH  13  18
ATOM     18  C   UNL     1       7.608   9.218   4.192  0.00  0.00    +0.008 A 
ATOM     20  C   UNL     1       6.425   9.893   3.918  0.00  0.00    +0.121 A 
ATOM     21  C   UNL     1       8.397   8.718   3.164  0.00  0.00    +0.008 A 
ATOM     24  C   UNL     1       6.024  10.070   2.594  0.00  0.00    +0.046 A 
ATOM     25  C   UNL     1       7.997   8.897   1.838  0.00  0.00    +0.001 A 
ATOM     26  C   UNL     1       6.810   9.573   1.554  0.00  0.00    +0.004 A 
BRANCH  20   3
ATOM      3  O   UNL     1       5.645  10.386   4.921  0.00  0.00    -0.506 OA
ATOM     31  H   UNL     1       5.837   9.898   5.740  0.00  0.00    +0.292 HD
ENDBRANCH  20   3
ENDBRANCH  13  18
ENDBRANCH   4  13
TORSDOF 5
ENDMDL
MODEL 8
REMARK VINA RESULT:      -6.1     29.791     31.947
REMARK  Name = 11885331
REMARK  6 active torsions:
REMARK  status: ('A' for Active; 'I' for Inactive)
REMARK    1  A    between atoms: S_1  and  C_29
REMARK    2  A    between atoms: S_1  and  C_30
REMARK    3  A    between atoms: O_3  and  C_20
REMARK    4  A    between atoms: N_4  and  C_13
REMARK    5  A    between atoms: C_13  and  C_18
REMARK    6  A    between atoms: C_16  and  C_19
REMARK                            x       y       z     vdW  Elec       q    Type
REMARK                         _______ _______ _______ _____ _____    ______ ____
ROOT
ATOM      2  O   UNL     1      17.544   8.831  22.073  0.00  0.00    -0.267 OA
ATOM      4  N   UNL     1      22.326   8.330  20.645  0.00  0.00    -0.297 NA
ATOM      5  N   UNL     1      19.442   7.517  21.737  0.00  0.00    -0.311 N 
ATOM      6  C   UNL     1      21.631   7.894  23.014  0.00  0.00    +0.024 C 
ATOM      7  C   UNL     1      21.483   6.091  21.364  0.00  0.00    +0.050 C 
ATOM      8  C   UNL     1      21.832   6.398  22.819  0.00  0.00    +0.017 C 
ATOM      9  C   UNL     1      22.548   8.680  22.054  0.00  0.00    +0.090 C 
ATOM     10  C   UNL     1      22.428   6.880  20.430  0.00  0.00    +0.094 C 
ATOM     11  C   UNL     1      20.146   8.225  22.816  0.00  0.00    +0.130 C 
ATOM     12  C   UNL     1      20.035   6.442  21.072  0.00  0.00    +0.026 A 
ATOM     14  C   UNL     1      19.334   5.737  20.170  0.00  0.00    +0.022 A 
ATOM     15  C   UNL     1      18.113   7.910  21.484  0.00  0.00    +0.259 A 
ATOM     16  C   UNL     1      17.363   7.123  20.442  0.00  0.00    +0.047 A 
ATOM     17  C   UNL     1      17.981   6.090  19.848  0.00  0.00    +0.015 A 
ENDROOT
BRANCH  16  19
ATOM     19  C   UNL     1      15.982   7.475  20.067  0.00  0.00    -0.013 A 
ATOM     22  C   UNL     1      14.948   6.564  20.275  0.00  0.00    +0.010 A 
ATOM     23  C   UNL     1      15.709   8.722  19.501  0.00  0.00    +0.010 A 
ATOM     27  C   UNL     1      13.640   6.897  19.920  0.00  0.00    +0.015 A 
ATOM     28  C   UNL     1      14.401   9.055  19.145  0.00  0.00    +0.015 A 
ATOM     29  C   UNL     1      13.367   8.143  19.355  0.00  0.00    +0.008 A 
BRANCH  29   1
ATOM      1  S   UNL     1      11.699   8.567  18.897  0.00  0.00    -0.129 S 
ATOM     30  C   UNL     1      10.825   8.384  20.478  0.00  0.00    +0.090 C 
ENDBRANCH  29   1
ENDBRANCH  16  19
BRANCH   4  13
ATOM     13  C   UNL     1      23.247   9.055  19.772  0.00  0.00    +0.123 C 
BRANCH  13  18
ATOM     18  C   UNL     1      22.550  10.187  19.070  0.00  0.00    +0.008 A 
ATOM     20  C   UNL     1      22.828  10.462  17.737  0.00  0.00    +0.121 A 
ATOM     21  C   UNL     1      21.628  10.948  19.777  0.00  0.00    +0.008 A 
ATOM     24  C   UNL     1      22.173  11.516  17.100  0.00  0.00    +0.046 A 
ATOM     25  C   UNL     1      20.971  12.003  19.140  0.00  0.00    +0.001 A 
ATOM     26  C   UNL     1      21.244  12.286  17.801  0.00  0.00    +0.004 A 
BRANCH  20   3
ATOM      3  O   UNL     1      23.731   9.720  17.037  0.00  0.00    -0.506 OA
ATOM     31  H   UNL     1      23.794  10.069  16.132  0.00  0.00    +0.292 HD
ENDBRANCH  20   3
ENDBRANCH  13  18
ENDBRANCH   4  13
TORSDOF 5
ENDMDL
MODEL 9
REMARK VINA RESULT:      -6.1     21.422     25.248
REMARK  Name = 11885331
REMARK  6 active torsions:
REMARK  status: ('A' for Active; 'I' for Inactive)
REMARK    1  A    between atoms: S_1  and  C_29
REMARK    2  A    between atoms: S_1  and  C_30
REMARK    3  A    between atoms: O_3  and  C_20
REMARK    4  A    between atoms: N_4  and  C_13
REMARK    5  A    between atoms: C_13  and  C_18
REMARK    6  A    between atoms: C_16  and  C_19
REMARK                            x       y       z     vdW  Elec       q    Type
REMARK                         _______ _______ _______ _____ _____    ______ ____
ROOT
ATOM      2  O   UNL     1       9.317  -9.571  33.057  0.00  0.00    -0.267 OA
ATOM      4  N   UNL     1       8.294  -5.900  36.317  0.00  0.00    -0.297 NA
ATOM      5  N   UNL     1       8.650  -7.384  33.517  0.00  0.00    -0.311 N 
ATOM      6  C   UNL     1      10.178  -5.685  34.677  0.00  0.00    +0.024 C 
ATOM      7  C   UNL     1       7.916  -5.026  34.008  0.00  0.00    +0.050 C 
ATOM      8  C   UNL     1       9.392  -4.654  33.879  0.00  0.00    +0.017 C 
ATOM      9  C   UNL     1       9.733  -5.661  36.155  0.00  0.00    +0.090 C 
ATOM     10  C   UNL     1       7.499  -4.976  35.495  0.00  0.00    +0.094 C 
ATOM     11  C   UNL     1       9.990  -7.062  34.027  0.00  0.00    +0.130 C 
ATOM     12  C   UNL     1       7.657  -6.406  33.430  0.00  0.00    +0.026 A 
ATOM     14  C   UNL     1       6.478  -6.692  32.857  0.00  0.00    +0.022 A 
ATOM     15  C   UNL     1       8.455  -8.692  33.029  0.00  0.00    +0.259 A 
ATOM     16  C   UNL     1       7.110  -8.992  32.423  0.00  0.00    +0.047 A 
ATOM     17  C   UNL     1       6.201  -8.007  32.353  0.00  0.00    +0.015 A 
ENDROOT
BRANCH  16  19
ATOM     19  C   UNL     1       6.782 -10.338  31.921  0.00  0.00    -0.013 A 
ATOM     22  C   UNL     1       6.931 -10.634  30.567  0.00  0.00    +0.010 A 
ATOM     23  C   UNL     1       6.322 -11.318  32.802  0.00  0.00    +0.010 A 
ATOM     27  C   UNL     1       6.621 -11.909  30.092  0.00  0.00    +0.015 A 
ATOM     28  C   UNL     1       6.011 -12.593  32.327  0.00  0.00    +0.015 A 
ATOM     29  C   UNL     1       6.161 -12.888  30.972  0.00  0.00    +0.008 A 
BRANCH  29   1
ATOM      1  S   UNL     1       5.761 -14.515  30.366  0.00  0.00    -0.129 S 
ATOM     30  C   UNL     1       4.348 -14.167  29.281  0.00  0.00    +0.090 C 
ENDBRANCH  29   1
ENDBRANCH  16  19
BRANCH   4  13
ATOM     13  C   UNL     1       7.903  -5.817  37.723  0.00  0.00    +0.123 C 
BRANCH  13  18
ATOM     18  C   UNL     1       6.513  -6.352  37.931  0.00  0.00    +0.008 A 
ATOM     20  C   UNL     1       6.165  -7.607  37.447  0.00  0.00    +0.121 A 
ATOM     21  C   UNL     1       5.589  -5.571  38.613  0.00  0.00    +0.008 A 
ATOM     24  C   UNL     1       4.872  -8.089  37.648  0.00  0.00    +0.046 A 
ATOM     25  C   UNL     1       4.294  -6.053  38.815  0.00  0.00    +0.001 A 
ATOM     26  C   UNL     1       3.937  -7.313  38.332  0.00  0.00    +0.004 A 
BRANCH  20   3
ATOM      3  O   UNL     1       7.067  -8.379  36.777  0.00  0.00    -0.506 OA
ATOM     31  H   UNL     1       7.825  -8.557  37.359  0.00  0.00    +0.292 HD
ENDBRANCH  20   3
ENDBRANCH  13  18
ENDBRANCH   4  13
TORSDOF 5
ENDMDL
MODEL 10
REMARK VINA RESULT:      -6.1     22.892     26.490
REMARK  Name = 11885331
REMARK  6 active torsions:
REMARK  status: ('A' for Active; 'I' for Inactive)
REMARK    1  A    between atoms: S_1  and  C_29
REMARK    2  A    between atoms: S_1  and  C_30
REMARK    3  A    between atoms: O_3  and  C_20
REMARK    4  A    between atoms: N_4  and  C_13
REMARK    5  A    between atoms: C_13  and  C_18
REMARK    6  A    between atoms: C_16  and  C_19
REMARK                            x       y       z     vdW  Elec       q    Type
REMARK                         _______ _______ _______ _____ _____    ______ ____
ROOT
ATOM      2  O   UNL     1      12.885  -7.084  34.107  0.00  0.00    -0.267 OA
ATOM      4  N   UNL     1       7.979  -7.149  35.145  0.00  0.00    -0.297 NA
ATOM      5  N   UNL     1      10.930  -5.998  34.769  0.00  0.00    -0.311 N 
ATOM      6  C   UNL     1       9.669  -6.605  36.916  0.00  0.00    +0.024 C 
ATOM      7  C   UNL     1       8.820  -4.819  35.471  0.00  0.00    +0.050 C 
ATOM      8  C   UNL     1       9.242  -5.143  36.903  0.00  0.00    +0.017 C 
ATOM      9  C   UNL     1       8.495  -7.503  36.474  0.00  0.00    +0.090 C 
ATOM     10  C   UNL     1       7.633  -5.722  35.066  0.00  0.00    +0.094 C 
ATOM     11  C   UNL     1      10.905  -6.767  36.021  0.00  0.00    +0.130 C 
ATOM     12  C   UNL     1       9.981  -5.006  34.512  0.00  0.00    +0.026 A 
ATOM     14  C   UNL     1      10.088  -4.240  33.416  0.00  0.00    +0.022 A 
ATOM     15  C   UNL     1      12.011  -6.242  33.898  0.00  0.00    +0.259 A 
ATOM     16  C   UNL     1      12.085  -5.389  32.660  0.00  0.00    +0.047 A 
ATOM     17  C   UNL     1      11.153  -4.441  32.475  0.00  0.00    +0.015 A 
ENDROOT
BRANCH  16  19
ATOM     19  C   UNL     1      13.148  -5.587  31.658  0.00  0.00    -0.013 A 
ATOM     22  C   UNL     1      14.303  -4.808  31.704  0.00  0.00    +0.010 A 
ATOM     23  C   UNL     1      12.997  -6.554  30.663  0.00  0.00    +0.010 A 
ATOM     27  C   UNL     1      15.310  -4.996  30.756  0.00  0.00    +0.015 A 
ATOM     28  C   UNL     1      14.004  -6.741  29.715  0.00  0.00    +0.015 A 
ATOM     29  C   UNL     1      15.160  -5.962  29.762  0.00  0.00    +0.008 A 
BRANCH  29   1
ATOM      1  S   UNL     1      16.443  -6.200  28.549  0.00  0.00    -0.129 S 
ATOM     30  C   UNL     1      15.518  -6.942  27.174  0.00  0.00    +0.090 C 
ENDBRANCH  29   1
ENDBRANCH  16  19
BRANCH   4  13
ATOM     13  C   UNL     1       6.836  -7.985  34.785  0.00  0.00    +0.123 C 
BRANCH  13  18
ATOM     18  C   UNL     1       6.940  -8.460  33.362  0.00  0.00    +0.008 A 
ATOM     20  C   UNL     1       7.818  -9.484  33.028  0.00  0.00    +0.121 A 
ATOM     21  C   UNL     1       6.145  -7.859  32.395  0.00  0.00    +0.008 A 
ATOM     24  C   UNL     1       7.903  -9.913  31.704  0.00  0.00    +0.046 A 
ATOM     25  C   UNL     1       6.229  -8.289  31.069  0.00  0.00    +0.001 A 
ATOM     26  C   UNL     1       7.108  -9.316  30.724  0.00  0.00    +0.004 A 
BRANCH  20   3
ATOM      3  O   UNL     1       8.601 -10.078  33.972  0.00  0.00    -0.506 OA
ATOM     31  H   UNL     1       9.162 -10.746  33.543  0.00  0.00    +0.292 HD
ENDBRANCH  20   3
ENDBRANCH  13  18
ENDBRANCH   4  13
TORSDOF 5
ENDMDL
