REMARK  Name = 7144061
REMARK  4 active torsions:
REMARK  status: ('A' for Active; 'I' for Inactive)
REMARK    1  A    between atoms: N_2  and  C_14
REMARK    2  A    between atoms: C_14  and  C_19
REMARK    3  A    between atoms: C_17  and  C_20
REMARK    4  A    between atoms: C_23  and  C_28
REMARK                            x       y       z     vdW  Elec       q    Type
REMARK                         _______ _______ _______ _____ _____    ______ ____
ROOT
ATOM      1  O   UNL     1      -2.406   1.642  -1.541  0.00  0.00    -0.267 OA
ATOM      2  N   UNL     1       2.512   1.365  -0.604  0.00  0.00    -0.297 NA
ATOM      3  N   UNL     1      -0.584   1.962  -0.122  0.00  0.00    -0.311 N 
ATOM      7  C   UNL     1       1.331   3.576  -0.670  0.00  0.00    +0.024 C 
ATOM      8  C   UNL     1       1.379   2.297   1.418  0.00  0.00    +0.050 C 
ATOM      9  C   UNL     1       1.454   3.709   0.842  0.00  0.00    +0.017 C 
ATOM     10  C   UNL     1       2.475   2.698  -1.219  0.00  0.00    +0.090 C 
ATOM     11  C   UNL     1       2.548   1.451   0.863  0.00  0.00    +0.094 C 
ATOM     12  C   UNL     1      -0.057   3.012  -1.005  0.00  0.00    +0.130 C 
ATOM     13  C   UNL     1       0.049   1.649   1.083  0.00  0.00    +0.026 A 
ATOM     15  C   UNL     1      -0.509   0.767   1.928  0.00  0.00    +0.022 A 
ATOM     16  C   UNL     1      -1.803   1.367  -0.502  0.00  0.00    +0.259 A 
ATOM     17  C   UNL     1      -2.386   0.357   0.449  0.00  0.00    +0.050 A 
ATOM     18  C   UNL     1      -1.742   0.109   1.599  0.00  0.00    +0.015 A 
ENDROOT
BRANCH  17  20
ATOM      4  N   UNL     1      -6.031  -0.501   0.225  0.00  0.00    -0.243 NA
ATOM      5  N   UNL     1      -4.759  -2.236  -0.861  0.00  0.00    -0.243 NA
ATOM     20  C   UNL     1      -3.635  -0.359   0.131  0.00  0.00    +0.024 A 
ATOM     25  C   UNL     1      -4.869   0.127   0.499  0.00  0.00    +0.122 A 
ATOM     26  C   UNL     1      -3.637  -1.555  -0.553  0.00  0.00    +0.122 A 
ATOM     29  C   UNL     1      -5.905  -1.661  -0.448  0.00  0.00    +0.221 A 
ENDBRANCH  17  20
BRANCH   2  14
ATOM     14  C   UNL     1       3.640   0.586  -1.110  0.00  0.00    +0.119 C 
BRANCH  14  19
ATOM     19  C   UNL     1       3.616  -0.816  -0.566  0.00  0.00    -0.032 A 
ATOM     21  C   UNL     1       2.422  -1.524  -0.547  0.00  0.00    +0.023 A 
ATOM     22  C   UNL     1       4.790  -1.384  -0.088  0.00  0.00    +0.005 A 
ATOM     23  C   UNL     1       2.401  -2.824  -0.042  0.00  0.00    +0.052 A 
ATOM     24  C   UNL     1       4.769  -2.684   0.416  0.00  0.00    +0.002 A 
ATOM     27  C   UNL     1       3.575  -3.404   0.440  0.00  0.00    +0.019 A 
BRANCH  23  28
ATOM      6  N   UNL     1       0.184  -4.163   0.002  0.00  0.00    -0.191 NA
ATOM     28  C   UNL     1       1.178  -3.563  -0.018  0.00  0.00    +0.099 C 
ENDBRANCH  23  28
ENDBRANCH  14  19
ENDBRANCH   2  14
TORSDOF 4
