MODEL 1
REMARK VINA RESULT:      -7.4      0.000      0.000
REMARK  Name = 28962585
REMARK  8 active torsions:
REMARK  status: ('A' for Active; 'I' for Inactive)
REMARK    1  A    between atoms: O_1  and  C_9
REMARK    2  A    between atoms: N_4  and  C_13
REMARK    3  A    between atoms: C_6  and  C_16
REMARK    4  A    between atoms: C_8  and  C_18
REMARK    5  A    between atoms: C_11  and  C_17
REMARK    6  A    between atoms: C_17  and  C_19
REMARK    7  A    between atoms: C_17  and  C_20
REMARK    8  A    between atoms: C_21  and  C_26
REMARK                            x       y       z     vdW  Elec       q    Type
REMARK                         _______ _______ _______ _____ _____    ______ ____
ROOT
ATOM      6  C   UNL     1      -5.185 -11.227  17.631  0.00  0.00    -0.027 C 
ATOM      7  C   UNL     1      -5.785 -10.514  16.374  0.00  0.00    +0.028 C 
ATOM      8  C   UNL     1      -7.355 -10.526  16.419  0.00  0.00    +0.012 C 
ATOM      9  C   UNL     1      -5.150 -11.056  15.061  0.00  0.00    +0.122 C 
ATOM     10  C   UNL     1      -3.644 -11.098  17.611  0.00  0.00    +0.007 C 
ATOM     11  C   UNL     1      -3.604 -11.021  15.089  0.00  0.00    +0.029 C 
ATOM     12  C   UNL     1      -5.701 -10.521  18.905  0.00  0.00    +0.009 C 
ATOM     13  C   UNL     1      -7.861  -9.880  17.740  0.00  0.00    +0.076 C 
ATOM     14  C   UNL     1      -3.016 -11.664  16.345  0.00  0.00    +0.007 C 
ATOM     15  C   UNL     1      -7.220 -10.478  18.993  0.00  0.00    +0.023 C 
ATOM     16  C   UNL     1      -5.558 -12.731  17.694  0.00  0.00    +0.011 C 
ATOM     18  C   UNL     1      -8.011  -9.813  15.225  0.00  0.00    +0.010 C 
ENDROOT
BRANCH  13   4
ATOM      3  O   UNL     1      -9.752  -7.731  17.533  0.00  0.00    -0.270 OA
ATOM      4  N   UNL     1      -9.299  -9.980  17.869  0.00  0.00    -0.308 N 
ATOM     21  C   UNL     1     -10.130  -8.880  17.752  0.00  0.00    +0.244 C 
ATOM     33  H   UNL     1      -9.672 -10.876  18.164  0.00  0.00    +0.149 HD
BRANCH  21  26
ATOM     26  C   UNL     1     -11.581  -9.143  17.936  0.00  0.00    +0.037 A 
ATOM     28  C   UNL     1     -12.493  -8.736  16.962  0.00  0.00    +0.013 A 
ATOM     29  C   UNL     1     -12.030  -9.798  19.083  0.00  0.00    +0.013 A 
ATOM     30  C   UNL     1     -13.855  -8.984  17.136  0.00  0.00    +0.001 A 
ATOM     31  C   UNL     1     -13.392 -10.047  19.256  0.00  0.00    +0.001 A 
ATOM     32  C   UNL     1     -14.304  -9.640  18.282  0.00  0.00    +0.000 A 
ENDBRANCH  21  26
ENDBRANCH  13   4
BRANCH   9   1
ATOM      1  O   UNL     1      -5.557 -10.239  13.962  0.00  0.00    -0.391 OA
ATOM     34  H   UNL     1      -6.463  -9.932  14.133  0.00  0.00    +0.210 HD
ENDBRANCH   9   1
BRANCH  11  17
ATOM     17  C   UNL     1      -2.997 -11.678  13.843  0.00  0.00    +0.078 C 
ATOM     19  C   UNL     1      -1.928 -12.687  14.222  0.00  0.00    +0.017 C 
BRANCH  17  20
ATOM      2  O   UNL     1      -1.652  -9.763  13.472  0.00  0.00    -0.275 OA
ATOM      5  N   UNL     1      -2.761 -10.626  11.621  0.00  0.00    -0.301 N 
ATOM     20  C   UNL     1      -2.405 -10.601  12.970  0.00  0.00    +0.219 C 
ATOM     22  C   UNL     1      -2.229  -9.611  10.709  0.00  0.00    +0.108 C 
ATOM     23  C   UNL     1      -3.619 -11.633  10.987  0.00  0.00    +0.108 C 
ATOM     24  C   UNL     1      -3.357  -8.908   9.957  0.00  0.00    +0.019 C 
ATOM     25  C   UNL     1      -4.773 -10.970  10.239  0.00  0.00    +0.019 C 
ATOM     27  C   UNL     1      -4.265  -9.916   9.255  0.00  0.00    +0.003 C 
ENDBRANCH  17  20
ENDBRANCH  11  17
TORSDOF 5
ENDMDL
MODEL 2
REMARK VINA RESULT:      -7.0     28.833     32.161
REMARK  Name = 28962585
REMARK  8 active torsions:
REMARK  status: ('A' for Active; 'I' for Inactive)
REMARK    1  A    between atoms: O_1  and  C_9
REMARK    2  A    between atoms: N_4  and  C_13
REMARK    3  A    between atoms: C_6  and  C_16
REMARK    4  A    between atoms: C_8  and  C_18
REMARK    5  A    between atoms: C_11  and  C_17
REMARK    6  A    between atoms: C_17  and  C_19
REMARK    7  A    between atoms: C_17  and  C_20
REMARK    8  A    between atoms: C_21  and  C_26
REMARK                            x       y       z     vdW  Elec       q    Type
REMARK                         _______ _______ _______ _____ _____    ______ ____
ROOT
ATOM      6  C   UNL     1      18.872   9.582  21.912  0.00  0.00    -0.027 C 
ATOM      7  C   UNL     1      18.099   8.313  21.419  0.00  0.00    +0.028 C 
ATOM      8  C   UNL     1      19.089   7.252  20.818  0.00  0.00    +0.012 C 
ATOM      9  C   UNL     1      16.900   8.703  20.506  0.00  0.00    +0.122 C 
ATOM     10  C   UNL     1      17.884  10.554  22.599  0.00  0.00    +0.007 C 
ATOM     11  C   UNL     1      15.973   9.754  21.159  0.00  0.00    +0.029 C 
ATOM     12  C   UNL     1      19.922   9.156  22.963  0.00  0.00    +0.009 C 
ATOM     13  C   UNL     1      20.185   6.888  21.859  0.00  0.00    +0.076 C 
ATOM     14  C   UNL     1      16.732  10.968  21.694  0.00  0.00    +0.007 C 
ATOM     15  C   UNL     1      20.896   8.107  22.445  0.00  0.00    +0.023 C 
ATOM     16  C   UNL     1      19.583  10.330  20.755  0.00  0.00    +0.011 C 
ATOM     18  C   UNL     1      18.396   5.966  20.340  0.00  0.00    +0.010 C 
ENDROOT
BRANCH  13   4
ATOM      3  O   UNL     1      21.568   4.780  23.231  0.00  0.00    -0.270 OA
ATOM      4  N   UNL     1      21.182   6.001  21.298  0.00  0.00    -0.308 N 
ATOM     21  C   UNL     1      21.795   5.010  22.045  0.00  0.00    +0.244 C 
ATOM     33  H   UNL     1      21.502   6.207  20.358  0.00  0.00    +0.149 HD
BRANCH  21  26
ATOM     26  C   UNL     1      22.816   4.201  21.332  0.00  0.00    +0.037 A 
ATOM     28  C   UNL     1      23.706   4.817  20.451  0.00  0.00    +0.013 A 
ATOM     29  C   UNL     1      22.885   2.823  21.543  0.00  0.00    +0.013 A 
ATOM     30  C   UNL     1      24.664   4.056  19.783  0.00  0.00    +0.001 A 
ATOM     31  C   UNL     1      23.844   2.062  20.874  0.00  0.00    +0.001 A 
ATOM     32  C   UNL     1      24.733   2.678  19.994  0.00  0.00    +0.000 A 
ENDBRANCH  21  26
ENDBRANCH  13   4
BRANCH   9   1
ATOM      1  O   UNL     1      16.097   7.548  20.257  0.00  0.00    -0.391 OA
ATOM     34  H   UNL     1      16.559   6.774  20.620  0.00  0.00    +0.210 HD
ENDBRANCH   9   1
BRANCH  11  17
ATOM     17  C   UNL     1      14.875  10.220  20.194  0.00  0.00    +0.078 C 
ATOM     19  C   UNL     1      15.257  11.524  19.518  0.00  0.00    +0.017 C 
BRANCH  17  20
ATOM      2  O   UNL     1      13.465  11.380  21.706  0.00  0.00    -0.275 OA
ATOM      5  N   UNL     1      12.621   9.411  20.803  0.00  0.00    -0.301 N 
ATOM     20  C   UNL     1      13.594  10.397  20.971  0.00  0.00    +0.219 C 
ATOM     22  C   UNL     1      11.352   9.511  21.526  0.00  0.00    +0.108 C 
ATOM     23  C   UNL     1      12.728   8.256  19.905  0.00  0.00    +0.108 C 
ATOM     24  C   UNL     1      11.071   8.234  22.316  0.00  0.00    +0.019 C 
ATOM     25  C   UNL     1      12.474   6.954  20.663  0.00  0.00    +0.019 C 
ATOM     27  C   UNL     1      11.145   7.001  21.416  0.00  0.00    +0.003 C 
ENDBRANCH  17  20
ENDBRANCH  11  17
TORSDOF 5
ENDMDL
MODEL 3
REMARK VINA RESULT:      -7.0      1.777      2.104
REMARK  Name = 28962585
REMARK  8 active torsions:
REMARK  status: ('A' for Active; 'I' for Inactive)
REMARK    1  A    between atoms: O_1  and  C_9
REMARK    2  A    between atoms: N_4  and  C_13
REMARK    3  A    between atoms: C_6  and  C_16
REMARK    4  A    between atoms: C_8  and  C_18
REMARK    5  A    between atoms: C_11  and  C_17
REMARK    6  A    between atoms: C_17  and  C_19
REMARK    7  A    between atoms: C_17  and  C_20
REMARK    8  A    between atoms: C_21  and  C_26
REMARK                            x       y       z     vdW  Elec       q    Type
REMARK                         _______ _______ _______ _____ _____    ______ ____
ROOT
ATOM      6  C   UNL     1      -4.704 -11.327  17.184  0.00  0.00    -0.027 C 
ATOM      7  C   UNL     1      -5.676 -10.562  16.226  0.00  0.00    +0.028 C 
ATOM      8  C   UNL     1      -7.143 -10.574  16.788  0.00  0.00    +0.012 C 
ATOM      9  C   UNL     1      -5.519 -11.049  14.756  0.00  0.00    +0.122 C 
ATOM     10  C   UNL     1      -3.254 -11.198  16.661  0.00  0.00    +0.007 C 
ATOM     11  C   UNL     1      -4.050 -11.016  14.273  0.00  0.00    +0.029 C 
ATOM     12  C   UNL     1      -4.759 -10.674  18.585  0.00  0.00    +0.009 C 
ATOM     13  C   UNL     1      -7.173  -9.984  18.227  0.00  0.00    +0.076 C 
ATOM     14  C   UNL     1      -3.089 -11.712  15.237  0.00  0.00    +0.007 C 
ATOM     15  C   UNL     1      -6.163 -10.634  19.172  0.00  0.00    +0.023 C 
ATOM     16  C   UNL     1      -5.057 -12.832  17.309  0.00  0.00    +0.011 C 
ATOM     18  C   UNL     1      -8.146  -9.812  15.907  0.00  0.00    +0.010 C 
ENDROOT
BRANCH  13   4
ATOM      3  O   UNL     1      -8.427 -12.374  19.205  0.00  0.00    -0.270 OA
ATOM      4  N   UNL     1      -8.488 -10.088  18.821  0.00  0.00    -0.308 N 
ATOM     21  C   UNL     1      -9.007 -11.292  19.264  0.00  0.00    +0.244 C 
ATOM     33  H   UNL     1      -9.069  -9.256  18.796  0.00  0.00    +0.149 HD
BRANCH  21  26
ATOM     26  C   UNL     1     -10.382 -11.236  19.825  0.00  0.00    +0.037 A 
ATOM     28  C   UNL     1     -11.097 -10.038  19.805  0.00  0.00    +0.013 A 
ATOM     29  C   UNL     1     -10.958 -12.382  20.372  0.00  0.00    +0.013 A 
ATOM     30  C   UNL     1     -12.387  -9.987  20.332  0.00  0.00    +0.001 A 
ATOM     31  C   UNL     1     -12.249 -12.331  20.899  0.00  0.00    +0.001 A 
ATOM     32  C   UNL     1     -12.963 -11.133  20.879  0.00  0.00    +0.000 A 
ENDBRANCH  21  26
ENDBRANCH  13   4
BRANCH   9   1
ATOM      1  O   UNL     1      -6.254 -10.187  13.887  0.00  0.00    -0.391 OA
ATOM     34  H   UNL     1      -7.132 -10.039  14.279  0.00  0.00    +0.210 HD
ENDBRANCH   9   1
BRANCH  11  17
ATOM     17  C   UNL     1      -3.900 -11.622  12.872  0.00  0.00    +0.078 C 
ATOM     19  C   UNL     1      -2.925 -12.785  12.880  0.00  0.00    +0.017 C 
BRANCH  17  20
ATOM      2  O   UNL     1      -2.337  -9.988  12.159  0.00  0.00    -0.275 OA
ATOM      5  N   UNL     1      -4.236 -10.249  10.845  0.00  0.00    -0.301 N 
ATOM     20  C   UNL     1      -3.413 -10.547  11.932  0.00  0.00    +0.219 C 
ATOM     22  C   UNL     1      -3.834  -9.215   9.889  0.00  0.00    +0.108 C 
ATOM     23  C   UNL     1      -5.498 -10.925  10.525  0.00  0.00    +0.108 C 
ATOM     24  C   UNL     1      -4.934  -8.170   9.721  0.00  0.00    +0.019 C 
ATOM     25  C   UNL     1      -6.631  -9.913  10.368  0.00  0.00    +0.019 C 
ATOM     27  C   UNL     1      -6.267  -8.824   9.360  0.00  0.00    +0.003 C 
ENDBRANCH  17  20
ENDBRANCH  11  17
TORSDOF 5
ENDMDL
MODEL 4
REMARK VINA RESULT:      -6.8     23.669     28.087
REMARK  Name = 28962585
REMARK  8 active torsions:
REMARK  status: ('A' for Active; 'I' for Inactive)
REMARK    1  A    between atoms: O_1  and  C_9
REMARK    2  A    between atoms: N_4  and  C_13
REMARK    3  A    between atoms: C_6  and  C_16
REMARK    4  A    between atoms: C_8  and  C_18
REMARK    5  A    between atoms: C_11  and  C_17
REMARK    6  A    between atoms: C_17  and  C_19
REMARK    7  A    between atoms: C_17  and  C_20
REMARK    8  A    between atoms: C_21  and  C_26
REMARK                            x       y       z     vdW  Elec       q    Type
REMARK                         _______ _______ _______ _____ _____    ______ ____
ROOT
ATOM      6  C   UNL     1      13.717   6.845   1.614  0.00  0.00    -0.027 C 
ATOM      7  C   UNL     1      12.425   6.008   1.334  0.00  0.00    +0.028 C 
ATOM      8  C   UNL     1      11.846   5.408   2.665  0.00  0.00    +0.012 C 
ATOM      9  C   UNL     1      12.654   4.985   0.183  0.00  0.00    +0.122 C 
ATOM     10  C   UNL     1      14.194   7.514   0.303  0.00  0.00    +0.007 C 
ATOM     11  C   UNL     1      13.230   5.644  -1.092  0.00  0.00    +0.029 C 
ATOM     12  C   UNL     1      13.380   7.970   2.620  0.00  0.00    +0.009 C 
ATOM     13  C   UNL     1      11.582   6.541   3.697  0.00  0.00    +0.076 C 
ATOM     14  C   UNL     1      14.458   6.511  -0.813  0.00  0.00    +0.007 C 
ATOM     15  C   UNL     1      12.790   7.450   3.924  0.00  0.00    +0.023 C 
ATOM     16  C   UNL     1      14.872   5.982   2.182  0.00  0.00    +0.011 C 
ATOM     18  C   UNL     1      10.557   4.595   2.465  0.00  0.00    +0.010 C 
ENDROOT
BRANCH  13   4
ATOM      3  O   UNL     1       9.373   7.459   5.283  0.00  0.00    -0.270 OA
ATOM      4  N   UNL     1      11.160   6.013   4.976  0.00  0.00    -0.308 N 
ATOM     21  C   UNL     1      10.076   6.526   5.667  0.00  0.00    +0.244 C 
ATOM     33  H   UNL     1      11.762   5.319   5.407  0.00  0.00    +0.149 HD
BRANCH  21  26
ATOM     26  C   UNL     1       9.786   5.892   6.978  0.00  0.00    +0.037 A 
ATOM     28  C   UNL     1       9.290   6.661   8.032  0.00  0.00    +0.013 A 
ATOM     29  C   UNL     1      10.008   4.526   7.156  0.00  0.00    +0.013 A 
ATOM     30  C   UNL     1       9.018   6.064   9.263  0.00  0.00    +0.001 A 
ATOM     31  C   UNL     1       9.734   3.929   8.387  0.00  0.00    +0.001 A 
ATOM     32  C   UNL     1       9.240   4.698   9.440  0.00  0.00    +0.000 A 
ENDBRANCH  21  26
ENDBRANCH  13   4
BRANCH   9   1
ATOM      1  O   UNL     1      11.406   4.399  -0.188  0.00  0.00    -0.391 OA
ATOM     34  H   UNL     1      11.443   4.184  -1.136  0.00  0.00    +0.210 HD
ENDBRANCH   9   1
BRANCH  11  17
ATOM     17  C   UNL     1      13.571   4.603  -2.165  0.00  0.00    +0.078 C 
ATOM     19  C   UNL     1      15.027   4.702  -2.582  0.00  0.00    +0.017 C 
BRANCH  17  20
ATOM      2  O   UNL     1      12.690   5.926  -3.924  0.00  0.00    -0.275 OA
ATOM      5  N   UNL     1      11.871   3.758  -3.746  0.00  0.00    -0.301 N 
ATOM     20  C   UNL     1      12.675   4.830  -3.358  0.00  0.00    +0.219 C 
ATOM     22  C   UNL     1      10.972   3.902  -4.894  0.00  0.00    +0.108 C 
ATOM     23  C   UNL     1      11.864   2.431  -3.122  0.00  0.00    +0.108 C 
ATOM     24  C   UNL     1       9.540   3.533  -4.514  0.00  0.00    +0.019 C 
ATOM     25  C   UNL     1      10.448   2.034  -2.708  0.00  0.00    +0.019 C 
ATOM     27  C   UNL     1       9.475   2.144  -3.882  0.00  0.00    +0.003 C 
ENDBRANCH  17  20
ENDBRANCH  11  17
TORSDOF 5
ENDMDL
MODEL 5
REMARK VINA RESULT:      -6.7     25.045     27.433
REMARK  Name = 28962585
REMARK  8 active torsions:
REMARK  status: ('A' for Active; 'I' for Inactive)
REMARK    1  A    between atoms: O_1  and  C_9
REMARK    2  A    between atoms: N_4  and  C_13
REMARK    3  A    between atoms: C_6  and  C_16
REMARK    4  A    between atoms: C_8  and  C_18
REMARK    5  A    between atoms: C_11  and  C_17
REMARK    6  A    between atoms: C_17  and  C_19
REMARK    7  A    between atoms: C_17  and  C_20
REMARK    8  A    between atoms: C_21  and  C_26
REMARK                            x       y       z     vdW  Elec       q    Type
REMARK                         _______ _______ _______ _____ _____    ______ ____
ROOT
ATOM      6  C   UNL     1       9.504   6.034   5.936  0.00  0.00    -0.027 C 
ATOM      7  C   UNL     1      10.456   7.195   5.495  0.00  0.00    +0.028 C 
ATOM      8  C   UNL     1       9.943   8.577   6.038  0.00  0.00    +0.012 C 
ATOM      9  C   UNL     1      10.741   7.141   3.966  0.00  0.00    +0.122 C 
ATOM     10  C   UNL     1      10.097   4.679   5.484  0.00  0.00    +0.007 C 
ATOM     11  C   UNL     1      11.235   5.751   3.502  0.00  0.00    +0.029 C 
ATOM     12  C   UNL     1       9.412   6.016   7.479  0.00  0.00    +0.009 C 
ATOM     13  C   UNL     1       9.783   8.522   7.583  0.00  0.00    +0.076 C 
ATOM     14  C   UNL     1      10.339   4.609   3.982  0.00  0.00    +0.007 C 
ATOM     15  C   UNL     1       8.944   7.340   8.067  0.00  0.00    +0.023 C 
ATOM     16  C   UNL     1       8.079   6.177   5.343  0.00  0.00    +0.011 C 
ATOM     18  C   UNL     1      10.851   9.760   5.664  0.00  0.00    +0.010 C 
ENDROOT
BRANCH  13   4
ATOM      3  O   UNL     1      11.123  10.536   9.129  0.00  0.00    -0.270 OA
ATOM      4  N   UNL     1       9.201   9.741   8.105  0.00  0.00    -0.308 N 
ATOM     21  C   UNL     1       9.934  10.654   8.843  0.00  0.00    +0.244 C 
ATOM     33  H   UNL     1       8.197   9.848   8.006  0.00  0.00    +0.149 HD
BRANCH  21  26
ATOM     26  C   UNL     1       9.185  11.842   9.328  0.00  0.00    +0.037 A 
ATOM     28  C   UNL     1       8.965  12.925   8.477  0.00  0.00    +0.013 A 
ATOM     29  C   UNL     1       8.701  11.873  10.637  0.00  0.00    +0.013 A 
ATOM     30  C   UNL     1       8.261  14.039   8.934  0.00  0.00    +0.001 A 
ATOM     31  C   UNL     1       7.997  12.988  11.093  0.00  0.00    +0.001 A 
ATOM     32  C   UNL     1       7.777  14.070  10.242  0.00  0.00    +0.000 A 
ENDBRANCH  21  26
ENDBRANCH  13   4
BRANCH   9   1
ATOM      1  O   UNL     1      11.774   8.071   3.641  0.00  0.00    -0.391 OA
ATOM     34  H   UNL     1      11.714   8.270   2.691  0.00  0.00    +0.210 HD
ENDBRANCH   9   1
BRANCH  11  17
ATOM     17  C   UNL     1      11.384   5.680   1.977  0.00  0.00    +0.078 C 
ATOM     19  C   UNL     1      10.032   5.541   1.301  0.00  0.00    +0.017 C 
BRANCH  17  20
ATOM      2  O   UNL     1      12.021   3.403   2.146  0.00  0.00    -0.275 OA
ATOM      5  N   UNL     1      13.301   4.737   0.738  0.00  0.00    -0.301 N 
ATOM     20  C   UNL     1      12.258   4.500   1.633  0.00  0.00    +0.219 C 
ATOM     22  C   UNL     1      14.196   3.642   0.356  0.00  0.00    +0.108 C 
ATOM     23  C   UNL     1      13.581   6.018   0.079  0.00  0.00    +0.108 C 
ATOM     24  C   UNL     1      15.656   4.021   0.595  0.00  0.00    +0.019 C 
ATOM     25  C   UNL     1      15.030   6.443   0.312  0.00  0.00    +0.019 C 
ATOM     27  C   UNL     1      16.005   5.338  -0.096  0.00  0.00    +0.003 C 
ENDBRANCH  17  20
ENDBRANCH  11  17
TORSDOF 5
ENDMDL
MODEL 6
REMARK VINA RESULT:      -6.7     29.340     31.649
REMARK  Name = 28962585
REMARK  8 active torsions:
REMARK  status: ('A' for Active; 'I' for Inactive)
REMARK    1  A    between atoms: O_1  and  C_9
REMARK    2  A    between atoms: N_4  and  C_13
REMARK    3  A    between atoms: C_6  and  C_16
REMARK    4  A    between atoms: C_8  and  C_18
REMARK    5  A    between atoms: C_11  and  C_17
REMARK    6  A    between atoms: C_17  and  C_19
REMARK    7  A    between atoms: C_17  and  C_20
REMARK    8  A    between atoms: C_21  and  C_26
REMARK                            x       y       z     vdW  Elec       q    Type
REMARK                         _______ _______ _______ _____ _____    ______ ____
ROOT
ATOM      6  C   UNL     1      -1.087   6.572  39.646  0.00  0.00    -0.027 C 
ATOM      7  C   UNL     1      -2.518   7.154  39.397  0.00  0.00    +0.028 C 
ATOM      8  C   UNL     1      -2.452   8.425  38.475  0.00  0.00    +0.012 C 
ATOM      9  C   UNL     1      -3.293   7.338  40.734  0.00  0.00    +0.122 C 
ATOM     10  C   UNL     1      -1.198   5.261  40.460  0.00  0.00    +0.007 C 
ATOM     11  C   UNL     1      -3.311   6.051  41.591  0.00  0.00    +0.029 C 
ATOM     12  C   UNL     1      -0.438   6.227  38.286  0.00  0.00    +0.009 C 
ATOM     13  C   UNL     1      -1.731   8.084  37.140  0.00  0.00    +0.076 C 
ATOM     14  C   UNL     1      -1.921   5.446  41.788  0.00  0.00    +0.007 C 
ATOM     15  C   UNL     1      -0.371   7.416  37.337  0.00  0.00    +0.023 C 
ATOM     16  C   UNL     1      -0.169   7.558  40.413  0.00  0.00    +0.011 C 
ATOM     18  C   UNL     1      -3.830   9.032  38.165  0.00  0.00    +0.010 C 
ENDROOT
BRANCH  13   4
ATOM      3  O   UNL     1      -0.351  10.493  37.871  0.00  0.00    -0.270 OA
ATOM      4  N   UNL     1      -1.549   9.260  36.315  0.00  0.00    -0.308 N 
ATOM     21  C   UNL     1      -0.865  10.377  36.760  0.00  0.00    +0.244 C 
ATOM     33  H   UNL     1      -2.044   9.280  35.430  0.00  0.00    +0.149 HD
BRANCH  21  26
ATOM     26  C   UNL     1      -0.787  11.511  35.803  0.00  0.00    +0.037 A 
ATOM     28  C   UNL     1      -1.812  12.457  35.756  0.00  0.00    +0.013 A 
ATOM     29  C   UNL     1       0.312  11.631  34.953  0.00  0.00    +0.013 A 
ATOM     30  C   UNL     1      -1.737  13.521  34.858  0.00  0.00    +0.001 A 
ATOM     31  C   UNL     1       0.387  12.696  34.055  0.00  0.00    +0.001 A 
ATOM     32  C   UNL     1      -0.638  13.641  34.007  0.00  0.00    +0.000 A 
ENDBRANCH  21  26
ENDBRANCH  13   4
BRANCH   9   1
ATOM      1  O   UNL     1      -4.655   7.661  40.454  0.00  0.00    -0.391 OA
ATOM     34  H   UNL     1      -4.973   7.057  39.761  0.00  0.00    +0.210 HD
ENDBRANCH   9   1
BRANCH  11  17
ATOM     17  C   UNL     1      -3.964   6.288  42.959  0.00  0.00    +0.078 C 
ATOM     19  C   UNL     1      -3.031   5.892  44.088  0.00  0.00    +0.017 C 
BRANCH  17  20
ATOM      2  O   UNL     1      -5.179   4.254  42.916  0.00  0.00    -0.275 OA
ATOM      5  N   UNL     1      -6.418   6.196  43.226  0.00  0.00    -0.301 N 
ATOM     20  C   UNL     1      -5.236   5.481  43.031  0.00  0.00    +0.219 C 
ATOM     22  C   UNL     1      -7.695   5.483  43.305  0.00  0.00    +0.108 C 
ATOM     23  C   UNL     1      -6.513   7.649  43.410  0.00  0.00    +0.108 C 
ATOM     24  C   UNL     1      -8.700   6.051  42.305  0.00  0.00    +0.019 C 
ATOM     25  C   UNL     1      -7.495   8.258  42.412  0.00  0.00    +0.019 C 
ATOM     27  C   UNL     1      -8.854   7.561  42.474  0.00  0.00    +0.003 C 
ENDBRANCH  17  20
ENDBRANCH  11  17
TORSDOF 5
ENDMDL
MODEL 7
REMARK VINA RESULT:      -6.7     18.191     19.907
REMARK  Name = 28962585
REMARK  8 active torsions:
REMARK  status: ('A' for Active; 'I' for Inactive)
REMARK    1  A    between atoms: O_1  and  C_9
REMARK    2  A    between atoms: N_4  and  C_13
REMARK    3  A    between atoms: C_6  and  C_16
REMARK    4  A    between atoms: C_8  and  C_18
REMARK    5  A    between atoms: C_11  and  C_17
REMARK    6  A    between atoms: C_17  and  C_19
REMARK    7  A    between atoms: C_17  and  C_20
REMARK    8  A    between atoms: C_21  and  C_26
REMARK                            x       y       z     vdW  Elec       q    Type
REMARK                         _______ _______ _______ _____ _____    ______ ____
ROOT
ATOM      6  C   UNL     1     -15.464   7.530  20.566  0.00  0.00    -0.027 C 
ATOM      7  C   UNL     1     -14.134   6.776  20.896  0.00  0.00    +0.028 C 
ATOM      8  C   UNL     1     -14.259   5.983  22.247  0.00  0.00    +0.012 C 
ATOM      9  C   UNL     1     -12.906   7.725  20.790  0.00  0.00    +0.122 C 
ATOM     10  C   UNL     1     -15.346   8.205  19.179  0.00  0.00    +0.007 C 
ATOM     11  C   UNL     1     -12.850   8.476  19.439  0.00  0.00    +0.029 C 
ATOM     12  C   UNL     1     -16.620   6.506  20.494  0.00  0.00    +0.009 C 
ATOM     13  C   UNL     1     -15.471   5.010  22.189  0.00  0.00    +0.076 C 
ATOM     14  C   UNL     1     -14.168   9.166  19.085  0.00  0.00    +0.007 C 
ATOM     15  C   UNL     1     -16.775   5.687  21.768  0.00  0.00    +0.023 C 
ATOM     16  C   UNL     1     -15.809   8.614  21.620  0.00  0.00    +0.011 C 
ATOM     18  C   UNL     1     -12.993   5.193  22.616  0.00  0.00    +0.010 C 
ENDROOT
BRANCH  13   4
ATOM      3  O   UNL     1     -16.670   2.433  22.595  0.00  0.00    -0.270 OA
ATOM      4  N   UNL     1     -15.687   4.348  23.458  0.00  0.00    -0.308 N 
ATOM     21  C   UNL     1     -16.276   3.099  23.550  0.00  0.00    +0.244 C 
ATOM     33  H   UNL     1     -15.493   4.888  24.295  0.00  0.00    +0.149 HD
BRANCH  21  26
ATOM     26  C   UNL     1     -16.452   2.568  24.926  0.00  0.00    +0.037 A 
ATOM     28  C   UNL     1     -16.043   3.324  26.025  0.00  0.00    +0.013 A 
ATOM     29  C   UNL     1     -17.026   1.311  25.120  0.00  0.00    +0.013 A 
ATOM     30  C   UNL     1     -16.209   2.824  27.316  0.00  0.00    +0.001 A 
ATOM     31  C   UNL     1     -17.192   0.811  26.412  0.00  0.00    +0.001 A 
ATOM     32  C   UNL     1     -16.784   1.568  27.510  0.00  0.00    +0.000 A 
ENDBRANCH  21  26
ENDBRANCH  13   4
BRANCH   9   1
ATOM      1  O   UNL     1     -11.703   6.961  20.882  0.00  0.00    -0.391 OA
ATOM     34  H   UNL     1     -11.945   6.020  20.932  0.00  0.00    +0.210 HD
ENDBRANCH   9   1
BRANCH  11  17
ATOM     17  C   UNL     1     -11.710   9.502  19.406  0.00  0.00    +0.078 C 
ATOM     19  C   UNL     1     -11.729  10.383  20.642  0.00  0.00    +0.017 C 
BRANCH  17  20
ATOM      2  O   UNL     1     -12.582  11.347  18.200  0.00  0.00    -0.275 OA
ATOM      5  N   UNL     1     -11.153   9.929  17.037  0.00  0.00    -0.301 N 
ATOM     20  C   UNL     1     -11.858  10.347  18.165  0.00  0.00    +0.219 C 
ATOM     22  C   UNL     1     -11.248  10.697  15.794  0.00  0.00    +0.108 C 
ATOM     23  C   UNL     1     -10.252   8.772  16.978  0.00  0.00    +0.108 C 
ATOM     24  C   UNL     1     -11.660   9.799  14.629  0.00  0.00    +0.019 C 
ATOM     25  C   UNL     1     -10.644   7.838  15.836  0.00  0.00    +0.019 C 
ATOM     27  C   UNL     1     -10.733   8.590  14.508  0.00  0.00    +0.003 C 
ENDBRANCH  17  20
ENDBRANCH  11  17
TORSDOF 5
ENDMDL
MODEL 8
REMARK VINA RESULT:      -6.6      2.502      4.233
REMARK  Name = 28962585
REMARK  8 active torsions:
REMARK  status: ('A' for Active; 'I' for Inactive)
REMARK    1  A    between atoms: O_1  and  C_9
REMARK    2  A    between atoms: N_4  and  C_13
REMARK    3  A    between atoms: C_6  and  C_16
REMARK    4  A    between atoms: C_8  and  C_18
REMARK    5  A    between atoms: C_11  and  C_17
REMARK    6  A    between atoms: C_17  and  C_19
REMARK    7  A    between atoms: C_17  and  C_20
REMARK    8  A    between atoms: C_21  and  C_26
REMARK                            x       y       z     vdW  Elec       q    Type
REMARK                         _______ _______ _______ _____ _____    ______ ____
ROOT
ATOM      6  C   UNL     1      -9.168 -11.078  18.444  0.00  0.00    -0.027 C 
ATOM      7  C   UNL     1      -8.548 -10.148  17.349  0.00  0.00    +0.028 C 
ATOM      8  C   UNL     1      -9.671  -9.501  16.461  0.00  0.00    +0.012 C 
ATOM      9  C   UNL     1      -7.414 -10.874  16.569  0.00  0.00    +0.122 C 
ATOM     10  C   UNL     1      -8.046 -11.606  19.369  0.00  0.00    +0.007 C 
ATOM     11  C   UNL     1      -6.349 -11.491  17.505  0.00  0.00    +0.029 C 
ATOM     12  C   UNL     1     -10.144 -10.252  19.313  0.00  0.00    +0.009 C 
ATOM     13  C   UNL     1     -10.688  -8.736  17.354  0.00  0.00    +0.076 C 
ATOM     14  C   UNL     1      -6.956 -12.353  18.612  0.00  0.00    +0.007 C 
ATOM     15  C   UNL     1     -11.243  -9.578  18.502  0.00  0.00    +0.023 C 
ATOM     16  C   UNL     1      -9.925 -12.287  17.837  0.00  0.00    +0.011 C 
ATOM     18  C   UNL     1      -9.130  -8.551  15.380  0.00  0.00    +0.010 C 
ENDROOT
BRANCH  13   4
ATOM      3  O   UNL     1     -11.207  -5.988  16.705  0.00  0.00    -0.270 OA
ATOM      4  N   UNL     1     -11.801  -8.226  16.581  0.00  0.00    -0.308 N 
ATOM     21  C   UNL     1     -11.965  -6.877  16.321  0.00  0.00    +0.244 C 
ATOM     33  H   UNL     1     -12.527  -8.889  16.330  0.00  0.00    +0.149 HD
BRANCH  21  26
ATOM     26  C   UNL     1     -13.172  -6.511  15.535  0.00  0.00    +0.037 A 
ATOM     28  C   UNL     1     -14.435  -6.922  15.964  0.00  0.00    +0.013 A 
ATOM     29  C   UNL     1     -13.042  -5.757  14.369  0.00  0.00    +0.013 A 
ATOM     30  C   UNL     1     -15.567  -6.577  15.226  0.00  0.00    +0.001 A 
ATOM     31  C   UNL     1     -14.175  -5.412  13.631  0.00  0.00    +0.001 A 
ATOM     32  C   UNL     1     -15.437  -5.823  14.060  0.00  0.00    +0.000 A 
ENDBRANCH  21  26
ENDBRANCH  13   4
BRANCH   9   1
ATOM      1  O   UNL     1      -6.731  -9.936  15.736  0.00  0.00    -0.391 OA
ATOM     34  H   UNL     1      -5.777 -10.018  15.906  0.00  0.00    +0.210 HD
ENDBRANCH   9   1
BRANCH  11  17
ATOM     17  C   UNL     1      -5.314 -12.312  16.726  0.00  0.00    +0.078 C 
ATOM     19  C   UNL     1      -5.342 -13.771  17.146  0.00  0.00    +0.017 C 
BRANCH  17  20
ATOM      2  O   UNL     1      -3.638 -11.388  18.123  0.00  0.00    -0.275 OA
ATOM      5  N   UNL     1      -3.106 -11.608  15.871  0.00  0.00    -0.301 N 
ATOM     20  C   UNL     1      -3.946 -11.728  16.978  0.00  0.00    +0.219 C 
ATOM     22  C   UNL     1      -1.763 -11.047  16.035  0.00  0.00    +0.108 C 
ATOM     23  C   UNL     1      -3.428 -12.043  14.508  0.00  0.00    +0.108 C 
ATOM     24  C   UNL     1      -1.535  -9.885  15.071  0.00  0.00    +0.019 C 
ATOM     25  C   UNL     1      -3.232 -10.900  13.513  0.00  0.00    +0.019 C 
ATOM     27  C   UNL     1      -1.832 -10.297  13.630  0.00  0.00    +0.003 C 
ENDBRANCH  17  20
ENDBRANCH  11  17
TORSDOF 5
ENDMDL
MODEL 9
REMARK VINA RESULT:      -6.5      4.235      7.522
REMARK  Name = 28962585
REMARK  8 active torsions:
REMARK  status: ('A' for Active; 'I' for Inactive)
REMARK    1  A    between atoms: O_1  and  C_9
REMARK    2  A    between atoms: N_4  and  C_13
REMARK    3  A    between atoms: C_6  and  C_16
REMARK    4  A    between atoms: C_8  and  C_18
REMARK    5  A    between atoms: C_11  and  C_17
REMARK    6  A    between atoms: C_17  and  C_19
REMARK    7  A    between atoms: C_17  and  C_20
REMARK    8  A    between atoms: C_21  and  C_26
REMARK                            x       y       z     vdW  Elec       q    Type
REMARK                         _______ _______ _______ _____ _____    ______ ____
ROOT
ATOM      6  C   UNL     1      -4.509 -10.466  10.184  0.00  0.00    -0.027 C 
ATOM      7  C   UNL     1      -5.556 -10.504  11.346  0.00  0.00    +0.028 C 
ATOM      8  C   UNL     1      -6.563  -9.304  11.231  0.00  0.00    +0.012 C 
ATOM      9  C   UNL     1      -4.859 -10.662  12.728  0.00  0.00    +0.122 C 
ATOM     10  C   UNL     1      -3.606 -11.720  10.261  0.00  0.00    +0.007 C 
ATOM     11  C   UNL     1      -3.878 -11.857  12.766  0.00  0.00    +0.029 C 
ATOM     12  C   UNL     1      -5.256 -10.507   8.831  0.00  0.00    +0.009 C 
ATOM     13  C   UNL     1      -7.253  -9.312   9.838  0.00  0.00    +0.076 C 
ATOM     14  C   UNL     1      -2.891 -11.856  11.599  0.00  0.00    +0.007 C 
ATOM     15  C   UNL     1      -6.267  -9.380   8.672  0.00  0.00    +0.023 C 
ATOM     16  C   UNL     1      -3.612  -9.203  10.233  0.00  0.00    +0.011 C 
ATOM     18  C   UNL     1      -7.640  -9.297  12.329  0.00  0.00    +0.010 C 
ENDROOT
BRANCH  13   4
ATOM      3  O   UNL     1      -9.865  -9.272   8.648  0.00  0.00    -0.270 OA
ATOM      4  N   UNL     1      -8.101  -8.153   9.654  0.00  0.00    -0.308 N 
ATOM     21  C   UNL     1      -9.351  -8.237   9.066  0.00  0.00    +0.244 C 
ATOM     33  H   UNL     1      -7.694  -7.248   9.870  0.00  0.00    +0.149 HD
BRANCH  21  26
ATOM     26  C   UNL     1     -10.086  -6.953   8.926  0.00  0.00    +0.037 A 
ATOM     28  C   UNL     1     -11.482  -6.942   8.942  0.00  0.00    +0.013 A 
ATOM     29  C   UNL     1      -9.381  -5.759   8.778  0.00  0.00    +0.013 A 
ATOM     30  C   UNL     1     -12.171  -5.737   8.811  0.00  0.00    +0.001 A 
ATOM     31  C   UNL     1     -10.071  -4.553   8.647  0.00  0.00    +0.001 A 
ATOM     32  C   UNL     1     -11.466  -4.542   8.664  0.00  0.00    +0.000 A 
ENDBRANCH  21  26
ENDBRANCH  13   4
BRANCH   9   1
ATOM      1  O   UNL     1      -5.843 -10.909  13.733  0.00  0.00    -0.391 OA
ATOM     34  H   UNL     1      -5.547 -10.488  14.558  0.00  0.00    +0.210 HD
ENDBRANCH   9   1
BRANCH  11  17
ATOM     17  C   UNL     1      -3.106 -11.916  14.090  0.00  0.00    +0.078 C 
ATOM     19  C   UNL     1      -1.685 -12.407  13.874  0.00  0.00    +0.017 C 
BRANCH  17  20
ATOM      2  O   UNL     1      -4.112 -13.985  14.660  0.00  0.00    -0.275 OA
ATOM      5  N   UNL     1      -4.155 -12.327  16.288  0.00  0.00    -0.301 N 
ATOM     20  C   UNL     1      -3.835 -12.842  15.032  0.00  0.00    +0.219 C 
ATOM     22  C   UNL     1      -4.866 -13.164  17.258  0.00  0.00    +0.108 C 
ATOM     23  C   UNL     1      -3.801 -10.989  16.774  0.00  0.00    +0.108 C 
ATOM     24  C   UNL     1      -6.125 -12.464  17.763  0.00  0.00    +0.019 C 
ATOM     25  C   UNL     1      -5.040 -10.247  17.271  0.00  0.00    +0.019 C 
ATOM     27  C   UNL     1      -5.805 -11.073  18.306  0.00  0.00    +0.003 C 
ENDBRANCH  17  20
ENDBRANCH  11  17
TORSDOF 5
ENDMDL
MODEL 10
REMARK VINA RESULT:      -6.4     25.804     31.369
REMARK  Name = 28962585
REMARK  8 active torsions:
REMARK  status: ('A' for Active; 'I' for Inactive)
REMARK    1  A    between atoms: O_1  and  C_9
REMARK    2  A    between atoms: N_4  and  C_13
REMARK    3  A    between atoms: C_6  and  C_16
REMARK    4  A    between atoms: C_8  and  C_18
REMARK    5  A    between atoms: C_11  and  C_17
REMARK    6  A    between atoms: C_17  and  C_19
REMARK    7  A    between atoms: C_17  and  C_20
REMARK    8  A    between atoms: C_21  and  C_26
REMARK                            x       y       z     vdW  Elec       q    Type
REMARK                         _______ _______ _______ _____ _____    ______ ____
ROOT
ATOM      6  C   UNL     1      14.443  11.266   5.952  0.00  0.00    -0.027 C 
ATOM      7  C   UNL     1      14.310   9.723   6.179  0.00  0.00    +0.028 C 
ATOM      8  C   UNL     1      15.430   8.944   5.399  0.00  0.00    +0.012 C 
ATOM      9  C   UNL     1      12.855   9.238   5.920  0.00  0.00    +0.122 C 
ATOM     10  C   UNL     1      13.399  12.007   6.821  0.00  0.00    +0.007 C 
ATOM     11  C   UNL     1      11.807  10.053   6.714  0.00  0.00    +0.029 C 
ATOM     12  C   UNL     1      15.847  11.724   6.408  0.00  0.00    +0.009 C 
ATOM     13  C   UNL     1      16.836   9.466   5.812  0.00  0.00    +0.076 C 
ATOM     14  C   UNL     1      11.970  11.563   6.541  0.00  0.00    +0.007 C 
ATOM     15  C   UNL     1      16.976  10.984   5.705  0.00  0.00    +0.023 C 
ATOM     16  C   UNL     1      14.232  11.668   4.469  0.00  0.00    +0.011 C 
ATOM     18  C   UNL     1      15.376   7.421   5.603  0.00  0.00    +0.010 C 
ENDROOT
BRANCH  13   4
ATOM      3  O   UNL     1      19.294   8.366   6.805  0.00  0.00    -0.270 OA
ATOM      4  N   UNL     1      17.886   8.852   5.028  0.00  0.00    -0.308 N 
ATOM     21  C   UNL     1      19.040   8.349   5.602  0.00  0.00    +0.244 C 
ATOM     33  H   UNL     1      17.797   8.908   4.019  0.00  0.00    +0.149 HD
BRANCH  21  26
ATOM     26  C   UNL     1      20.034   7.774   4.659  0.00  0.00    +0.037 A 
ATOM     28  C   UNL     1      21.072   6.975   5.140  0.00  0.00    +0.013 A 
ATOM     29  C   UNL     1      19.928   8.033   3.293  0.00  0.00    +0.013 A 
ATOM     30  C   UNL     1      22.003   6.435   4.253  0.00  0.00    +0.001 A 
ATOM     31  C   UNL     1      20.861   7.492   2.406  0.00  0.00    +0.001 A 
ATOM     32  C   UNL     1      21.898   6.694   2.887  0.00  0.00    +0.000 A 
ENDBRANCH  21  26
ENDBRANCH  13   4
BRANCH   9   1
ATOM      1  O   UNL     1      12.723   7.880   6.344  0.00  0.00    -0.391 OA
ATOM     34  H   UNL     1      12.624   7.874   7.311  0.00  0.00    +0.210 HD
ENDBRANCH   9   1
BRANCH  11  17
ATOM     17  C   UNL     1      10.374   9.646   6.346  0.00  0.00    +0.078 C 
ATOM     19  C   UNL     1       9.528  10.862   6.013  0.00  0.00    +0.017 C 
BRANCH  17  20
ATOM      2  O   UNL     1       9.630   9.480   8.591  0.00  0.00    -0.275 OA
ATOM      5  N   UNL     1       9.408   7.574   7.280  0.00  0.00    -0.301 N 
ATOM     20  C   UNL     1       9.771   8.900   7.510  0.00  0.00    +0.219 C 
ATOM     22  C   UNL     1       8.818   6.782   8.362  0.00  0.00    +0.108 C 
ATOM     23  C   UNL     1       9.522   6.872   5.996  0.00  0.00    +0.108 C 
ATOM     24  C   UNL     1       9.589   5.480   8.569  0.00  0.00    +0.019 C 
ATOM     25  C   UNL     1      10.306   5.571   6.158  0.00  0.00    +0.019 C 
ATOM     27  C   UNL     1       9.713   4.698   7.263  0.00  0.00    +0.003 C 
ENDBRANCH  17  20
ENDBRANCH  11  17
TORSDOF 5
ENDMDL
