REMARK  Name = 75537026
REMARK  5 active torsions:
REMARK  status: ('A' for Active; 'I' for Inactive)
REMARK    1  A    between atoms: O_2  and  C_17
REMARK    2  A    between atoms: O_2  and  C_20
REMARK    3  A    between atoms: N_6  and  C_15
REMARK    4  A    between atoms: C_15  and  C_17
REMARK    5  A    between atoms: C_16  and  C_18
REMARK                            x       y       z     vdW  Elec       q    Type
REMARK                         _______ _______ _______ _____ _____    ______ ____
ROOT
ATOM      1  O   UNL     1      -3.323   1.658   0.924  0.00  0.00    -0.252 OA
ATOM      3  O   UNL     1       3.508   2.130  -0.464  0.00  0.00    -0.267 OA
ATOM      5  N   UNL     1      -1.081   1.010   0.653  0.00  0.00    -0.278 N 
ATOM      6  N   UNL     1      -2.635  -0.597   0.879  0.00  0.00    -0.281 N 
ATOM      7  N   UNL     1       1.469   0.988  -0.451  0.00  0.00    -0.292 N 
ATOM      9  C   UNL     1      -0.323  -0.229   0.701  0.00  0.00    +0.112 C 
ATOM     10  C   UNL     1      -1.395  -1.313   0.638  0.00  0.00    +0.133 C 
ATOM     11  C   UNL     1       0.694  -0.268  -0.436  0.00  0.00    +0.132 C 
ATOM     12  C   UNL     1      -0.385   2.280   0.537  0.00  0.00    +0.128 C 
ATOM     13  C   UNL     1       0.658   2.206  -0.577  0.00  0.00    +0.127 C 
ATOM     14  C   UNL     1      -2.455   0.799   0.834  0.00  0.00    +0.305 C 
ATOM     16  C   UNL     1       2.861   1.085  -0.406  0.00  0.00    +0.285 C 
ENDROOT
BRANCH  16  18
ATOM      4  O   UNL     1       3.430  -0.921   0.834  0.00  0.00    -0.350 OA
ATOM      8  N   UNL     1       4.255  -2.038   0.776  0.00  0.00    -0.086 NA
ATOM     18  C   UNL     1       3.637  -0.154  -0.267  0.00  0.00    +0.222 A 
ATOM     19  C   UNL     1       4.587  -0.737  -1.064  0.00  0.00    +0.077 A 
ATOM     21  C   UNL     1       4.936  -1.906  -0.366  0.00  0.00    +0.157 A 
ENDBRANCH  16  18
BRANCH   6  15
ATOM     15  C   UNL     1      -3.901  -1.282   1.010  0.00  0.00    +0.137 C 
BRANCH  15  17
ATOM     17  C   UNL     1      -4.496  -1.618  -0.346  0.00  0.00    +0.178 C 
BRANCH  17   2
ATOM      2  O   UNL     1      -4.739  -0.416  -1.065  0.00  0.00    -0.381 OA
ATOM     20  C   UNL     1      -5.303  -0.678  -2.343  0.00  0.00    +0.194 C 
ENDBRANCH  17   2
ENDBRANCH  15  17
ENDBRANCH   6  15
TORSDOF 4
