MODEL 1
REMARK VINA RESULT:      -7.5      0.000      0.000
REMARK  Name = 11866308
REMARK  10 active torsions:
REMARK  status: ('A' for Active; 'I' for Inactive)
REMARK    1  A    between atoms: O_1  and  C_10
REMARK    2  A    between atoms: O_2  and  C_11
REMARK    3  A    between atoms: N_6  and  C_12
REMARK    4  A    between atoms: N_7  and  C_17
REMARK    5  A    between atoms: N_8  and  C_22
REMARK    6  A    between atoms: C_14  and  C_16
REMARK    7  A    between atoms: C_17  and  C_19
REMARK    8  A    between atoms: C_17  and  C_20
REMARK    9  A    between atoms: C_19  and  C_21
REMARK   10  A    between atoms: C_32  and  C_33
REMARK                            x       y       z     vdW  Elec       q    Type
REMARK                         _______ _______ _______ _____ _____    ______ ____
ROOT
ATOM     10  C   UNL     1     -11.144  -9.735  17.302  0.00  0.00    +0.167 C 
ATOM     11  C   UNL     1     -10.436 -10.401  18.488  0.00  0.00    +0.149 C 
ATOM     12  C   UNL     1     -10.379  -8.489  16.815  0.00  0.00    +0.129 C 
ATOM     13  C   UNL     1      -8.977 -10.766  18.161  0.00  0.00    +0.074 C 
ATOM     14  C   UNL     1      -8.278  -9.733  17.324  0.00  0.00    +0.015 C 
ATOM     15  C   UNL     1      -8.893  -8.703  16.721  0.00  0.00    +0.006 C 
ENDROOT
BRANCH  12   6
ATOM      4  O   UNL     1     -12.036  -6.204  16.329  0.00  0.00    -0.252 OA
ATOM      6  N   UNL     1     -10.866  -8.033  15.535  0.00  0.00    -0.290 N 
ATOM      8  N   UNL     1     -11.989  -6.705  14.036  0.00  0.00    -0.269 N 
ATOM     18  C   UNL     1     -11.675  -6.900  15.384  0.00  0.00    +0.304 C 
ATOM     34  H   UNL     1     -10.539  -8.509  14.699  0.00  0.00    +0.151 HD
ATOM     38  H   UNL     1     -11.609  -7.378  13.376  0.00  0.00    +0.156 HD
BRANCH   8  22
ATOM     22  C   UNL     1     -12.779  -5.678  13.470  0.00  0.00    +0.035 A 
ATOM     27  C   UNL     1     -14.170  -5.728  13.574  0.00  0.00    +0.023 A 
ATOM     28  C   UNL     1     -12.168  -4.612  12.808  0.00  0.00    +0.023 A 
ATOM     30  C   UNL     1     -14.948  -4.714  13.016  0.00  0.00    +0.005 A 
ATOM     31  C   UNL     1     -12.947  -3.599  12.250  0.00  0.00    +0.005 A 
ATOM     32  C   UNL     1     -14.337  -3.651  12.354  0.00  0.00    -0.050 A 
ATOM     33  C   UNL     1     -15.169  -2.567  11.756  0.00  0.00    +0.044 C 
ENDBRANCH   8  22
ENDBRANCH  12   6
BRANCH  14  16
ATOM      3  O   UNL     1      -6.226  -9.153  16.338  0.00  0.00    -0.271 OA
ATOM      7  N   UNL     1      -6.254 -10.762  18.025  0.00  0.00    -0.300 N 
ATOM     16  C   UNL     1      -6.825  -9.839  17.166  0.00  0.00    +0.241 C 
ATOM     37  H   UNL     1      -6.836 -11.209  18.728  0.00  0.00    +0.150 HD
BRANCH   7  17
ATOM     17  C   UNL     1      -4.837 -11.043  18.053  0.00  0.00    +0.163 C 
BRANCH  17  20
ATOM      5  O   UNL     1      -5.330 -11.684  20.344  0.00  0.00    -0.274 OA
ATOM      9  N   UNL     1      -3.259 -12.184  19.484  0.00  0.00    -0.328 N 
ATOM     20  C   UNL     1      -4.526 -11.644  19.415  0.00  0.00    +0.231 C 
ATOM     39  H   UNL     1      -2.928 -12.629  20.333  0.00  0.00    +0.145 HD
ATOM     40  H   UNL     1      -2.613 -12.163  18.701  0.00  0.00    +0.145 HD
ENDBRANCH  17  20
BRANCH  17  19
ATOM     19  C   UNL     1      -4.414 -12.006  16.937  0.00  0.00    +0.067 C 
BRANCH  19  21
ATOM     21  C   UNL     1      -3.502 -11.361  15.922  0.00  0.00    -0.045 A 
ATOM     23  C   UNL     1      -3.908 -11.247  14.593  0.00  0.00    +0.004 A 
ATOM     24  C   UNL     1      -2.253 -10.878  16.313  0.00  0.00    +0.004 A 
ATOM     25  C   UNL     1      -3.065 -10.652  13.654  0.00  0.00    +0.000 A 
ATOM     26  C   UNL     1      -1.410 -10.283  15.376  0.00  0.00    +0.000 A 
ATOM     29  C   UNL     1      -1.816 -10.169  14.046  0.00  0.00    +0.000 A 
ENDBRANCH  19  21
ENDBRANCH  17  19
ENDBRANCH   7  17
ENDBRANCH  14  16
BRANCH  10   1
ATOM      1  O   UNL     1     -11.246 -10.683  16.237  0.00  0.00    -0.387 OA
ATOM     35  H   UNL     1     -11.166 -10.193  15.401  0.00  0.00    +0.210 HD
ENDBRANCH  10   1
BRANCH  11   2
ATOM      2  O   UNL     1     -10.482  -9.548  19.630  0.00  0.00    -0.389 OA
ATOM     36  H   UNL     1      -9.782  -8.880  19.528  0.00  0.00    +0.210 HD
ENDBRANCH  11   2
TORSDOF 9
ENDMDL
MODEL 2
REMARK VINA RESULT:      -7.4     16.931     18.823
REMARK  Name = 11866308
REMARK  10 active torsions:
REMARK  status: ('A' for Active; 'I' for Inactive)
REMARK    1  A    between atoms: O_1  and  C_10
REMARK    2  A    between atoms: O_2  and  C_11
REMARK    3  A    between atoms: N_6  and  C_12
REMARK    4  A    between atoms: N_7  and  C_17
REMARK    5  A    between atoms: N_8  and  C_22
REMARK    6  A    between atoms: C_14  and  C_16
REMARK    7  A    between atoms: C_17  and  C_19
REMARK    8  A    between atoms: C_17  and  C_20
REMARK    9  A    between atoms: C_19  and  C_21
REMARK   10  A    between atoms: C_32  and  C_33
REMARK                            x       y       z     vdW  Elec       q    Type
REMARK                         _______ _______ _______ _____ _____    ______ ____
ROOT
ATOM     10  C   UNL     1     -17.136   3.010  24.472  0.00  0.00    +0.167 C 
ATOM     11  C   UNL     1     -18.212   2.295  25.298  0.00  0.00    +0.149 C 
ATOM     12  C   UNL     1     -16.557   4.221  25.228  0.00  0.00    +0.129 C 
ATOM     13  C   UNL     1     -17.689   1.860  26.678  0.00  0.00    +0.074 C 
ATOM     14  C   UNL     1     -16.771   2.867  27.310  0.00  0.00    +0.015 C 
ATOM     15  C   UNL     1     -16.262   3.933  26.674  0.00  0.00    +0.006 C 
ENDROOT
BRANCH  12   6
ATOM      4  O   UNL     1     -16.374   5.529  22.685  0.00  0.00    -0.252 OA
ATOM      6  N   UNL     1     -15.357   4.717  24.597  0.00  0.00    -0.290 N 
ATOM      8  N   UNL     1     -14.055   5.719  22.993  0.00  0.00    -0.269 N 
ATOM     18  C   UNL     1     -15.355   5.347  23.347  0.00  0.00    +0.304 C 
ATOM     34  H   UNL     1     -14.488   4.680  25.120  0.00  0.00    +0.151 HD
ATOM     38  H   UNL     1     -13.319   5.493  23.656  0.00  0.00    +0.156 HD
BRANCH   8  22
ATOM     22  C   UNL     1     -13.631   6.376  21.814  0.00  0.00    +0.035 A 
ATOM     27  C   UNL     1     -14.517   7.194  21.113  0.00  0.00    +0.023 A 
ATOM     28  C   UNL     1     -12.325   6.206  21.353  0.00  0.00    +0.023 A 
ATOM     30  C   UNL     1     -14.098   7.842  19.951  0.00  0.00    +0.005 A 
ATOM     31  C   UNL     1     -11.907   6.854  20.190  0.00  0.00    +0.005 A 
ATOM     32  C   UNL     1     -12.794   7.672  19.490  0.00  0.00    -0.050 A 
ATOM     33  C   UNL     1     -12.345   8.363  18.247  0.00  0.00    +0.044 C 
ENDBRANCH   8  22
ENDBRANCH  12   6
BRANCH  14  16
ATOM      3  O   UNL     1     -16.894   3.419  29.590  0.00  0.00    -0.271 OA
ATOM      7  N   UNL     1     -15.526   1.651  28.930  0.00  0.00    -0.300 N 
ATOM     16  C   UNL     1     -16.417   2.689  28.722  0.00  0.00    +0.241 C 
ATOM     37  H   UNL     1     -15.266   1.059  28.146  0.00  0.00    +0.150 HD
BRANCH   7  17
ATOM     17  C   UNL     1     -15.031   1.286  30.237  0.00  0.00    +0.163 C 
BRANCH  17  20
ATOM      5  O   UNL     1     -14.174  -0.754  29.233  0.00  0.00    -0.274 OA
ATOM      9  N   UNL     1     -15.018  -0.849  31.368  0.00  0.00    -0.328 N 
ATOM     20  C   UNL     1     -14.703  -0.199  30.193  0.00  0.00    +0.231 C 
ATOM     39  H   UNL     1     -14.838  -1.842  31.478  0.00  0.00    +0.145 HD
ATOM     40  H   UNL     1     -15.434  -0.373  32.162  0.00  0.00    +0.145 HD
ENDBRANCH  17  20
BRANCH  17  19
ATOM     19  C   UNL     1     -13.790   2.095  30.633  0.00  0.00    +0.067 C 
BRANCH  19  21
ATOM     21  C   UNL     1     -14.021   2.965  31.844  0.00  0.00    -0.045 A 
ATOM     23  C   UNL     1     -13.775   4.336  31.775  0.00  0.00    +0.004 A 
ATOM     24  C   UNL     1     -14.480   2.398  33.034  0.00  0.00    +0.004 A 
ATOM     25  C   UNL     1     -13.987   5.141  32.894  0.00  0.00    +0.000 A 
ATOM     26  C   UNL     1     -14.693   3.203  34.153  0.00  0.00    +0.000 A 
ATOM     29  C   UNL     1     -14.447   4.574  34.083  0.00  0.00    +0.000 A 
ENDBRANCH  19  21
ENDBRANCH  17  19
ENDBRANCH   7  17
ENDBRANCH  14  16
BRANCH  10   1
ATOM      1  O   UNL     1     -16.090   2.082  24.178  0.00  0.00    -0.387 OA
ATOM     35  H   UNL     1     -16.397   1.515  23.450  0.00  0.00    +0.210 HD
ENDBRANCH  10   1
BRANCH  11   2
ATOM      2  O   UNL     1     -19.355   3.134  25.450  0.00  0.00    -0.389 OA
ATOM     36  H   UNL     1     -19.879   3.070  24.634  0.00  0.00    +0.210 HD
ENDBRANCH  11   2
TORSDOF 9
ENDMDL
MODEL 3
REMARK VINA RESULT:      -7.0     17.094     19.192
REMARK  Name = 11866308
REMARK  10 active torsions:
REMARK  status: ('A' for Active; 'I' for Inactive)
REMARK    1  A    between atoms: O_1  and  C_10
REMARK    2  A    between atoms: O_2  and  C_11
REMARK    3  A    between atoms: N_6  and  C_12
REMARK    4  A    between atoms: N_7  and  C_17
REMARK    5  A    between atoms: N_8  and  C_22
REMARK    6  A    between atoms: C_14  and  C_16
REMARK    7  A    between atoms: C_17  and  C_19
REMARK    8  A    between atoms: C_17  and  C_20
REMARK    9  A    between atoms: C_19  and  C_21
REMARK   10  A    between atoms: C_32  and  C_33
REMARK                            x       y       z     vdW  Elec       q    Type
REMARK                         _______ _______ _______ _____ _____    ______ ____
ROOT
ATOM     10  C   UNL     1     -16.858   4.045  22.833  0.00  0.00    +0.167 C 
ATOM     11  C   UNL     1     -18.142   3.388  23.353  0.00  0.00    +0.149 C 
ATOM     12  C   UNL     1     -16.422   5.219  23.730  0.00  0.00    +0.129 C 
ATOM     13  C   UNL     1     -18.003   2.920  24.813  0.00  0.00    +0.074 C 
ATOM     14  C   UNL     1     -17.219   3.871  25.671  0.00  0.00    +0.015 C 
ATOM     15  C   UNL     1     -16.512   4.910  25.200  0.00  0.00    +0.006 C 
ENDROOT
BRANCH  12   6
ATOM      4  O   UNL     1     -15.617   6.920  21.571  0.00  0.00    -0.252 OA
ATOM      6  N   UNL     1     -15.078   5.650  23.426  0.00  0.00    -0.290 N 
ATOM      8  N   UNL     1     -13.394   6.732  22.301  0.00  0.00    -0.269 N 
ATOM     18  C   UNL     1     -14.769   6.486  22.346  0.00  0.00    +0.304 C 
ATOM     34  H   UNL     1     -14.336   5.401  24.072  0.00  0.00    +0.151 HD
ATOM     38  H   UNL     1     -12.828   6.293  23.022  0.00  0.00    +0.156 HD
BRANCH   8  22
ATOM     22  C   UNL     1     -12.685   7.524  21.368  0.00  0.00    +0.035 A 
ATOM     27  C   UNL     1     -11.932   6.914  20.365  0.00  0.00    +0.023 A 
ATOM     28  C   UNL     1     -12.739   8.916  21.451  0.00  0.00    +0.023 A 
ATOM     30  C   UNL     1     -11.233   7.695  19.445  0.00  0.00    +0.005 A 
ATOM     31  C   UNL     1     -12.040   9.697  20.531  0.00  0.00    +0.005 A 
ATOM     32  C   UNL     1     -11.287   9.086  19.528  0.00  0.00    -0.050 A 
ATOM     33  C   UNL     1     -10.539   9.922  18.545  0.00  0.00    +0.044 C 
ENDBRANCH   8  22
ENDBRANCH  12   6
BRANCH  14  16
ATOM      3  O   UNL     1     -18.008   4.307  27.840  0.00  0.00    -0.271 OA
ATOM      7  N   UNL     1     -16.326   2.720  27.548  0.00  0.00    -0.300 N 
ATOM     16  C   UNL     1     -17.238   3.669  27.123  0.00  0.00    +0.241 C 
ATOM     37  H   UNL     1     -15.801   2.193  26.855  0.00  0.00    +0.150 HD
BRANCH   7  17
ATOM     17  C   UNL     1     -16.160   2.351  28.935  0.00  0.00    +0.163 C 
BRANCH  17  20
ATOM      5  O   UNL     1     -17.419   0.292  28.652  0.00  0.00    -0.274 OA
ATOM      9  N   UNL     1     -15.305   0.174  29.544  0.00  0.00    -0.328 N 
ATOM     20  C   UNL     1     -16.392   0.850  29.031  0.00  0.00    +0.231 C 
ATOM     39  H   UNL     1     -15.322  -0.835  29.649  0.00  0.00    +0.145 HD
ATOM     40  H   UNL     1     -14.454   0.647  29.832  0.00  0.00    +0.145 HD
ENDBRANCH  17  20
BRANCH  17  19
ATOM     19  C   UNL     1     -14.768   2.710  29.468  0.00  0.00    +0.067 C 
BRANCH  19  21
ATOM     21  C   UNL     1     -14.810   3.761  30.551  0.00  0.00    -0.045 A 
ATOM     23  C   UNL     1     -13.984   3.643  31.669  0.00  0.00    +0.004 A 
ATOM     24  C   UNL     1     -15.675   4.849  30.435  0.00  0.00    +0.004 A 
ATOM     25  C   UNL     1     -14.022   4.613  32.670  0.00  0.00    +0.000 A 
ATOM     26  C   UNL     1     -15.713   5.820  31.436  0.00  0.00    +0.000 A 
ATOM     29  C   UNL     1     -14.887   5.702  32.554  0.00  0.00    +0.000 A 
ENDBRANCH  19  21
ENDBRANCH  17  19
ENDBRANCH   7  17
ENDBRANCH  14  16
BRANCH  10   1
ATOM      1  O   UNL     1     -15.823   3.061  22.792  0.00  0.00    -0.387 OA
ATOM     35  H   UNL     1     -15.169   3.296  23.473  0.00  0.00    +0.210 HD
ENDBRANCH  10   1
BRANCH  11   2
ATOM      2  O   UNL     1     -19.241   4.289  23.232  0.00  0.00    -0.389 OA
ATOM     36  H   UNL     1     -20.055   3.787  23.406  0.00  0.00    +0.210 HD
ENDBRANCH  11   2
TORSDOF 9
ENDMDL
MODEL 4
REMARK VINA RESULT:      -6.9     26.302     30.430
REMARK  Name = 11866308
REMARK  10 active torsions:
REMARK  status: ('A' for Active; 'I' for Inactive)
REMARK    1  A    between atoms: O_1  and  C_10
REMARK    2  A    between atoms: O_2  and  C_11
REMARK    3  A    between atoms: N_6  and  C_12
REMARK    4  A    between atoms: N_7  and  C_17
REMARK    5  A    between atoms: N_8  and  C_22
REMARK    6  A    between atoms: C_14  and  C_16
REMARK    7  A    between atoms: C_17  and  C_19
REMARK    8  A    between atoms: C_17  and  C_20
REMARK    9  A    between atoms: C_19  and  C_21
REMARK   10  A    between atoms: C_32  and  C_33
REMARK                            x       y       z     vdW  Elec       q    Type
REMARK                         _______ _______ _______ _____ _____    ______ ____
ROOT
ATOM     10  C   UNL     1      13.232   4.878   1.405  0.00  0.00    +0.167 C 
ATOM     11  C   UNL     1      11.768   4.649   1.014  0.00  0.00    +0.149 C 
ATOM     12  C   UNL     1      13.402   6.174   2.223  0.00  0.00    +0.129 C 
ATOM     13  C   UNL     1      10.837   4.632   2.239  0.00  0.00    +0.074 C 
ATOM     14  C   UNL     1      11.209   5.645   3.284  0.00  0.00    +0.015 C 
ATOM     15  C   UNL     1      12.351   6.348   3.285  0.00  0.00    +0.006 C 
ENDROOT
BRANCH  12   6
ATOM      4  O   UNL     1      14.951   8.539   2.680  0.00  0.00    -0.252 OA
ATOM      6  N   UNL     1      14.705   6.246   2.839  0.00  0.00    -0.290 N 
ATOM      8  N   UNL     1      16.627   7.210   3.646  0.00  0.00    -0.269 N 
ATOM     18  C   UNL     1      15.397   7.449   3.026  0.00  0.00    +0.304 C 
ATOM     34  H   UNL     1      15.100   5.396   3.228  0.00  0.00    +0.151 HD
ATOM     38  H   UNL     1      16.846   6.242   3.867  0.00  0.00    +0.156 HD
BRANCH   8  22
ATOM     22  C   UNL     1      17.615   8.155   4.006  0.00  0.00    +0.035 A 
ATOM     27  C   UNL     1      18.519   8.620   3.051  0.00  0.00    +0.023 A 
ATOM     28  C   UNL     1      17.685   8.625   5.319  0.00  0.00    +0.023 A 
ATOM     30  C   UNL     1      19.493   9.553   3.407  0.00  0.00    +0.005 A 
ATOM     31  C   UNL     1      18.659   9.557   5.674  0.00  0.00    +0.005 A 
ATOM     32  C   UNL     1      19.563  10.021   4.718  0.00  0.00    -0.050 A 
ATOM     33  C   UNL     1      20.604  11.018   5.100  0.00  0.00    +0.044 C 
ENDBRANCH   8  22
ENDBRANCH  12   6
BRANCH  14  16
ATOM      3  O   UNL     1       9.165   6.424   4.141  0.00  0.00    -0.271 OA
ATOM      7  N   UNL     1      10.724   5.499   5.607  0.00  0.00    -0.300 N 
ATOM     16  C   UNL     1      10.256   5.901   4.368  0.00  0.00    +0.241 C 
ATOM     37  H   UNL     1      11.607   4.999   5.662  0.00  0.00    +0.150 HD
BRANCH   7  17
ATOM     17  C   UNL     1       9.964   5.651   6.826  0.00  0.00    +0.163 C 
BRANCH  17  20
ATOM      5  O   UNL     1      10.066   4.225   8.790  0.00  0.00    -0.274 OA
ATOM      9  N   UNL     1      10.009   3.237   6.717  0.00  0.00    -0.328 N 
ATOM     20  C   UNL     1      10.034   4.324   7.566  0.00  0.00    +0.231 C 
ATOM     39  H   UNL     1      10.038   2.291   7.082  0.00  0.00    +0.145 HD
ATOM     40  H   UNL     1       9.961   3.334   5.708  0.00  0.00    +0.145 HD
ENDBRANCH  17  20
BRANCH  17  19
ATOM     19  C   UNL     1      10.503   6.783   7.708  0.00  0.00    +0.067 C 
BRANCH  19  21
ATOM     21  C   UNL     1      11.763   7.405   7.157  0.00  0.00    -0.045 A 
ATOM     23  C   UNL     1      12.966   6.701   7.207  0.00  0.00    +0.004 A 
ATOM     24  C   UNL     1      11.725   8.683   6.598  0.00  0.00    +0.004 A 
ATOM     25  C   UNL     1      14.132   7.275   6.699  0.00  0.00    +0.000 A 
ATOM     26  C   UNL     1      12.890   9.256   6.089  0.00  0.00    +0.000 A 
ATOM     29  C   UNL     1      14.093   8.553   6.139  0.00  0.00    +0.000 A 
ENDBRANCH  19  21
ENDBRANCH  17  19
ENDBRANCH   7  17
ENDBRANCH  14  16
BRANCH  10   1
ATOM      1  O   UNL     1      13.682   3.762   2.176  0.00  0.00    -0.387 OA
ATOM     35  H   UNL     1      13.195   3.772   3.017  0.00  0.00    +0.210 HD
ENDBRANCH  10   1
BRANCH  11   2
ATOM      2  O   UNL     1      11.342   5.650   0.092  0.00  0.00    -0.389 OA
ATOM     36  H   UNL     1      10.707   6.225   0.552  0.00  0.00    +0.210 HD
ENDBRANCH  11   2
TORSDOF 9
ENDMDL
MODEL 5
REMARK VINA RESULT:      -6.9      2.504      3.781
REMARK  Name = 11866308
REMARK  10 active torsions:
REMARK  status: ('A' for Active; 'I' for Inactive)
REMARK    1  A    between atoms: O_1  and  C_10
REMARK    2  A    between atoms: O_2  and  C_11
REMARK    3  A    between atoms: N_6  and  C_12
REMARK    4  A    between atoms: N_7  and  C_17
REMARK    5  A    between atoms: N_8  and  C_22
REMARK    6  A    between atoms: C_14  and  C_16
REMARK    7  A    between atoms: C_17  and  C_19
REMARK    8  A    between atoms: C_17  and  C_20
REMARK    9  A    between atoms: C_19  and  C_21
REMARK   10  A    between atoms: C_32  and  C_33
REMARK                            x       y       z     vdW  Elec       q    Type
REMARK                         _______ _______ _______ _____ _____    ______ ____
ROOT
ATOM     10  C   UNL     1      -8.178 -10.843  18.656  0.00  0.00    +0.167 C 
ATOM     11  C   UNL     1      -6.852 -11.136  19.368  0.00  0.00    +0.149 C 
ATOM     12  C   UNL     1      -7.967  -9.951  17.416  0.00  0.00    +0.129 C 
ATOM     13  C   UNL     1      -5.816 -11.772  18.424  0.00  0.00    +0.074 C 
ATOM     14  C   UNL     1      -5.838 -11.192  17.038  0.00  0.00    +0.015 C 
ATOM     15  C   UNL     1      -6.792 -10.369  16.576  0.00  0.00    +0.006 C 
ENDROOT
BRANCH  12   6
ATOM      4  O   UNL     1      -9.634  -7.677  16.910  0.00  0.00    -0.252 OA
ATOM      6  N   UNL     1      -9.146  -9.913  16.584  0.00  0.00    -0.290 N 
ATOM      8  N   UNL     1     -10.983  -9.019  15.536  0.00  0.00    -0.269 N 
ATOM     18  C   UNL     1      -9.907  -8.754  16.388  0.00  0.00    +0.304 C 
ATOM     34  H   UNL     1      -9.385 -10.744  16.051  0.00  0.00    +0.151 HD
ATOM     38  H   UNL     1     -11.068  -9.970  15.189  0.00  0.00    +0.156 HD
BRANCH   8  22
ATOM     22  C   UNL     1     -11.980  -8.119  15.093  0.00  0.00    +0.035 A 
ATOM     27  C   UNL     1     -12.920  -7.619  15.995  0.00  0.00    +0.023 A 
ATOM     28  C   UNL     1     -12.023  -7.729  13.754  0.00  0.00    +0.023 A 
ATOM     30  C   UNL     1     -13.903  -6.731  15.557  0.00  0.00    +0.005 A 
ATOM     31  C   UNL     1     -13.006  -6.842  13.317  0.00  0.00    +0.005 A 
ATOM     32  C   UNL     1     -13.945  -6.343  14.219  0.00  0.00    -0.050 A 
ATOM     33  C   UNL     1     -14.997  -5.394  13.750  0.00  0.00    +0.044 C 
ENDBRANCH   8  22
ENDBRANCH  12   6
BRANCH  14  16
ATOM      3  O   UNL     1      -4.380 -12.695  15.975  0.00  0.00    -0.271 OA
ATOM      7  N   UNL     1      -4.187 -10.418  15.514  0.00  0.00    -0.300 N 
ATOM     16  C   UNL     1      -4.736 -11.528  16.131  0.00  0.00    +0.241 C 
ATOM     37  H   UNL     1      -4.620  -9.509  15.654  0.00  0.00    +0.150 HD
BRANCH   7  17
ATOM     17  C   UNL     1      -3.088 -10.498  14.579  0.00  0.00    +0.163 C 
BRANCH  17  20
ATOM      5  O   UNL     1      -1.383 -10.742  16.293  0.00  0.00    -0.274 OA
ATOM      9  N   UNL     1      -1.623 -12.413  14.735  0.00  0.00    -0.328 N 
ATOM     20  C   UNL     1      -1.940 -11.194  15.295  0.00  0.00    +0.231 C 
ATOM     39  H   UNL     1      -0.883 -12.988  15.124  0.00  0.00    +0.145 HD
ATOM     40  H   UNL     1      -2.107 -12.784  13.923  0.00  0.00    +0.145 HD
ENDBRANCH  17  20
BRANCH  17  19
ATOM     19  C   UNL     1      -3.465 -11.265  13.306  0.00  0.00    +0.067 C 
BRANCH  19  21
ATOM     21  C   UNL     1      -3.808 -10.352  12.154  0.00  0.00    -0.045 A 
ATOM     23  C   UNL     1      -5.085  -9.799  12.059  0.00  0.00    +0.004 A 
ATOM     24  C   UNL     1      -2.849 -10.061  11.183  0.00  0.00    +0.004 A 
ATOM     25  C   UNL     1      -5.403  -8.956  10.994  0.00  0.00    +0.000 A 
ATOM     26  C   UNL     1      -3.166  -9.218  10.119  0.00  0.00    +0.000 A 
ATOM     29  C   UNL     1      -4.443  -8.666  10.024  0.00  0.00    +0.000 A 
ENDBRANCH  19  21
ENDBRANCH  17  19
ENDBRANCH   7  17
ENDBRANCH  14  16
BRANCH  10   1
ATOM      1  O   UNL     1      -8.771 -12.081  18.261  0.00  0.00    -0.387 OA
ATOM     35  H   UNL     1      -9.242 -11.926  17.425  0.00  0.00    +0.210 HD
ENDBRANCH  10   1
BRANCH  11   2
ATOM      2  O   UNL     1      -6.324  -9.940  19.938  0.00  0.00    -0.389 OA
ATOM     36  H   UNL     1      -7.071  -9.344  20.116  0.00  0.00    +0.210 HD
ENDBRANCH  11   2
TORSDOF 9
ENDMDL
MODEL 6
REMARK VINA RESULT:      -6.6     27.140     31.480
REMARK  Name = 11866308
REMARK  10 active torsions:
REMARK  status: ('A' for Active; 'I' for Inactive)
REMARK    1  A    between atoms: O_1  and  C_10
REMARK    2  A    between atoms: O_2  and  C_11
REMARK    3  A    between atoms: N_6  and  C_12
REMARK    4  A    between atoms: N_7  and  C_17
REMARK    5  A    between atoms: N_8  and  C_22
REMARK    6  A    between atoms: C_14  and  C_16
REMARK    7  A    between atoms: C_17  and  C_19
REMARK    8  A    between atoms: C_17  and  C_20
REMARK    9  A    between atoms: C_19  and  C_21
REMARK   10  A    between atoms: C_32  and  C_33
REMARK                            x       y       z     vdW  Elec       q    Type
REMARK                         _______ _______ _______ _____ _____    ______ ____
ROOT
ATOM     10  C   UNL     1      14.745  10.108   5.663  0.00  0.00    +0.167 C 
ATOM     11  C   UNL     1      13.383  10.421   6.293  0.00  0.00    +0.149 C 
ATOM     12  C   UNL     1      15.206   8.676   5.996  0.00  0.00    +0.129 C 
ATOM     13  C   UNL     1      12.305   9.404   5.877  0.00  0.00    +0.074 C 
ATOM     14  C   UNL     1      12.816   7.994   5.798  0.00  0.00    +0.015 C 
ATOM     15  C   UNL     1      14.112   7.653   5.858  0.00  0.00    +0.006 C 
ENDROOT
BRANCH  12   6
ATOM      4  O   UNL     1      17.978   9.156   6.535  0.00  0.00    -0.252 OA
ATOM      6  N   UNL     1      16.326   8.275   5.179  0.00  0.00    -0.290 N 
ATOM      8  N   UNL     1      18.520   8.042   4.541  0.00  0.00    -0.269 N 
ATOM     18  C   UNL     1      17.657   8.550   5.516  0.00  0.00    +0.304 C 
ATOM     34  H   UNL     1      16.144   7.696   4.365  0.00  0.00    +0.151 HD
ATOM     38  H   UNL     1      18.089   7.565   3.754  0.00  0.00    +0.156 HD
BRANCH   8  22
ATOM     22  C   UNL     1      19.932   8.112   4.512  0.00  0.00    +0.035 A 
ATOM     27  C   UNL     1      20.691   6.945   4.607  0.00  0.00    +0.023 A 
ATOM     28  C   UNL     1      20.567   9.348   4.388  0.00  0.00    +0.023 A 
ATOM     30  C   UNL     1      22.084   7.014   4.578  0.00  0.00    +0.005 A 
ATOM     31  C   UNL     1      21.960   9.417   4.359  0.00  0.00    +0.005 A 
ATOM     32  C   UNL     1      22.718   8.250   4.454  0.00  0.00    -0.050 A 
ATOM     33  C   UNL     1      24.207   8.325   4.424  0.00  0.00    +0.044 C 
ENDBRANCH   8  22
ENDBRANCH  12   6
BRANCH  14  16
ATOM      3  O   UNL     1      11.764   6.246   4.634  0.00  0.00    -0.271 OA
ATOM      7  N   UNL     1      11.053   6.751   6.796  0.00  0.00    -0.300 N 
ATOM     16  C   UNL     1      11.837   6.911   5.667  0.00  0.00    +0.241 C 
ATOM     37  H   UNL     1      11.261   7.302   7.624  0.00  0.00    +0.150 HD
BRANCH   7  17
ATOM     17  C   UNL     1      10.017   5.749   6.903  0.00  0.00    +0.163 C 
BRANCH  17  20
ATOM      5  O   UNL     1      10.503   5.538   9.274  0.00  0.00    -0.274 OA
ATOM      9  N   UNL     1      10.120   3.628   8.056  0.00  0.00    -0.328 N 
ATOM     20  C   UNL     1      10.257   4.993   8.201  0.00  0.00    +0.231 C 
ATOM     39  H   UNL     1      10.240   3.006   8.849  0.00  0.00    +0.145 HD
ATOM     40  H   UNL     1       9.894   3.193   7.167  0.00  0.00    +0.145 HD
ENDBRANCH  17  20
BRANCH  17  19
ATOM     19  C   UNL     1       8.613   6.364   6.895  0.00  0.00    +0.067 C 
BRANCH  19  21
ATOM     21  C   UNL     1       8.467   7.477   5.885  0.00  0.00    -0.045 A 
ATOM     23  C   UNL     1       8.507   8.807   6.303  0.00  0.00    +0.004 A 
ATOM     24  C   UNL     1       8.291   7.175   4.534  0.00  0.00    +0.004 A 
ATOM     25  C   UNL     1       8.372   9.836   5.371  0.00  0.00    +0.000 A 
ATOM     26  C   UNL     1       8.157   8.203   3.602  0.00  0.00    +0.000 A 
ATOM     29  C   UNL     1       8.197   9.533   4.020  0.00  0.00    +0.000 A 
ENDBRANCH  19  21
ENDBRANCH  17  19
ENDBRANCH   7  17
ENDBRANCH  14  16
BRANCH  10   1
ATOM      1  O   UNL     1      14.642  10.263   4.246  0.00  0.00    -0.387 OA
ATOM     35  H   UNL     1      14.031   9.580   3.922  0.00  0.00    +0.210 HD
ENDBRANCH  10   1
BRANCH  11   2
ATOM      2  O   UNL     1      13.495  10.458   7.715  0.00  0.00    -0.389 OA
ATOM     36  H   UNL     1      12.632  10.209   8.086  0.00  0.00    +0.210 HD
ENDBRANCH  11   2
TORSDOF 9
ENDMDL
MODEL 7
REMARK VINA RESULT:      -6.6     27.201     31.567
REMARK  Name = 11866308
REMARK  10 active torsions:
REMARK  status: ('A' for Active; 'I' for Inactive)
REMARK    1  A    between atoms: O_1  and  C_10
REMARK    2  A    between atoms: O_2  and  C_11
REMARK    3  A    between atoms: N_6  and  C_12
REMARK    4  A    between atoms: N_7  and  C_17
REMARK    5  A    between atoms: N_8  and  C_22
REMARK    6  A    between atoms: C_14  and  C_16
REMARK    7  A    between atoms: C_17  and  C_19
REMARK    8  A    between atoms: C_17  and  C_20
REMARK    9  A    between atoms: C_19  and  C_21
REMARK   10  A    between atoms: C_32  and  C_33
REMARK                            x       y       z     vdW  Elec       q    Type
REMARK                         _______ _______ _______ _____ _____    ______ ____
ROOT
ATOM     10  C   UNL     1      14.699  10.243   5.570  0.00  0.00    +0.167 C 
ATOM     11  C   UNL     1      13.400  10.534   6.331  0.00  0.00    +0.149 C 
ATOM     12  C   UNL     1      15.487   9.090   6.221  0.00  0.00    +0.129 C 
ATOM     13  C   UNL     1      12.510   9.285   6.457  0.00  0.00    +0.074 C 
ATOM     14  C   UNL     1      13.287   8.024   6.707  0.00  0.00    +0.015 C 
ATOM     15  C   UNL     1      14.622   7.924   6.612  0.00  0.00    +0.006 C 
ENDROOT
BRANCH  12   6
ATOM      4  O   UNL     1      18.303   9.435   6.618  0.00  0.00    -0.252 OA
ATOM      6  N   UNL     1      16.545   8.617   5.359  0.00  0.00    -0.290 N 
ATOM      8  N   UNL     1      18.690   8.259   4.623  0.00  0.00    -0.269 N 
ATOM     18  C   UNL     1      17.902   8.829   5.628  0.00  0.00    +0.304 C 
ATOM     34  H   UNL     1      16.294   8.034   4.567  0.00  0.00    +0.151 HD
ATOM     38  H   UNL     1      18.198   7.791   3.867  0.00  0.00    +0.156 HD
BRANCH   8  22
ATOM     22  C   UNL     1      20.101   8.255   4.525  0.00  0.00    +0.035 A 
ATOM     27  C   UNL     1      20.784   9.434   4.224  0.00  0.00    +0.023 A 
ATOM     28  C   UNL     1      20.811   7.071   4.731  0.00  0.00    +0.023 A 
ATOM     30  C   UNL     1      22.176   9.428   4.129  0.00  0.00    +0.005 A 
ATOM     31  C   UNL     1      22.202   7.066   4.635  0.00  0.00    +0.005 A 
ATOM     32  C   UNL     1      22.884   8.245   4.333  0.00  0.00    -0.050 A 
ATOM     33  C   UNL     1      24.372   8.238   4.230  0.00  0.00    +0.044 C 
ENDBRANCH   8  22
ENDBRANCH  12   6
BRANCH  14  16
ATOM      3  O   UNL     1      13.083   5.935   7.763  0.00  0.00    -0.271 OA
ATOM      7  N   UNL     1      11.236   6.823   6.651  0.00  0.00    -0.300 N 
ATOM     16  C   UNL     1      12.545   6.822   7.101  0.00  0.00    +0.241 C 
ATOM     37  H   UNL     1      10.874   7.650   6.185  0.00  0.00    +0.150 HD
BRANCH   7  17
ATOM     17  C   UNL     1      10.311   5.744   6.913  0.00  0.00    +0.163 C 
BRANCH  17  20
ATOM      5  O   UNL     1       8.852   6.797   8.545  0.00  0.00    -0.274 OA
ATOM      9  N   UNL     1      10.269   5.132   9.250  0.00  0.00    -0.328 N 
ATOM     20  C   UNL     1       9.733   5.977   8.300  0.00  0.00    +0.231 C 
ATOM     39  H   UNL     1       9.962   5.173  10.216  0.00  0.00    +0.145 HD
ATOM     40  H   UNL     1      10.982   4.444   9.029  0.00  0.00    +0.145 HD
ENDBRANCH  17  20
BRANCH  17  19
ATOM     19  C   UNL     1       9.188   5.679   5.871  0.00  0.00    +0.067 C 
BRANCH  19  21
ATOM     21  C   UNL     1       9.705   5.664   4.453  0.00  0.00    -0.045 A 
ATOM     23  C   UNL     1       9.391   6.711   3.587  0.00  0.00    +0.004 A 
ATOM     24  C   UNL     1      10.495   4.604   4.009  0.00  0.00    +0.004 A 
ATOM     25  C   UNL     1       9.868   6.698   2.276  0.00  0.00    +0.000 A 
ATOM     26  C   UNL     1      10.973   4.591   2.699  0.00  0.00    +0.000 A 
ATOM     29  C   UNL     1      10.659   5.638   1.832  0.00  0.00    +0.000 A 
ENDBRANCH  19  21
ENDBRANCH  17  19
ENDBRANCH   7  17
ENDBRANCH  14  16
BRANCH  10   1
ATOM      1  O   UNL     1      14.374   9.901   4.221  0.00  0.00    -0.387 OA
ATOM     35  H   UNL     1      15.053   9.281   3.905  0.00  0.00    +0.210 HD
ENDBRANCH  10   1
BRANCH  11   2
ATOM      2  O   UNL     1      13.694  11.057   7.625  0.00  0.00    -0.389 OA
ATOM     36  H   UNL     1      13.507  12.011   7.606  0.00  0.00    +0.210 HD
ENDBRANCH  11   2
TORSDOF 9
ENDMDL
MODEL 8
REMARK VINA RESULT:      -6.6     26.526     29.149
REMARK  Name = 11866308
REMARK  10 active torsions:
REMARK  status: ('A' for Active; 'I' for Inactive)
REMARK    1  A    between atoms: O_1  and  C_10
REMARK    2  A    between atoms: O_2  and  C_11
REMARK    3  A    between atoms: N_6  and  C_12
REMARK    4  A    between atoms: N_7  and  C_17
REMARK    5  A    between atoms: N_8  and  C_22
REMARK    6  A    between atoms: C_14  and  C_16
REMARK    7  A    between atoms: C_17  and  C_19
REMARK    8  A    between atoms: C_17  and  C_20
REMARK    9  A    between atoms: C_19  and  C_21
REMARK   10  A    between atoms: C_32  and  C_33
REMARK                            x       y       z     vdW  Elec       q    Type
REMARK                         _______ _______ _______ _____ _____    ______ ____
ROOT
ATOM     10  C   UNL     1      -5.161  10.466  36.019  0.00  0.00    +0.167 C 
ATOM     11  C   UNL     1      -6.394  11.330  35.726  0.00  0.00    +0.149 C 
ATOM     12  C   UNL     1      -5.366   9.597  37.275  0.00  0.00    +0.129 C 
ATOM     13  C   UNL     1      -7.672  10.486  35.587  0.00  0.00    +0.074 C 
ATOM     14  C   UNL     1      -7.742   9.345  36.560  0.00  0.00    +0.015 C 
ATOM     15  C   UNL     1      -6.719   8.941  37.329  0.00  0.00    +0.006 C 
ENDROOT
BRANCH  12   6
ATOM      4  O   UNL     1      -3.825   8.971  39.606  0.00  0.00    -0.252 OA
ATOM      6  N   UNL     1      -4.349   8.580  37.389  0.00  0.00    -0.290 N 
ATOM      8  N   UNL     1      -2.724   7.298  38.383  0.00  0.00    -0.269 N 
ATOM     18  C   UNL     1      -3.639   8.337  38.571  0.00  0.00    +0.304 C 
ATOM     34  H   UNL     1      -4.200   7.959  36.600  0.00  0.00    +0.151 HD
ATOM     38  H   UNL     1      -2.695   6.877  37.458  0.00  0.00    +0.156 HD
BRANCH   8  22
ATOM     22  C   UNL     1      -1.823   6.754  39.328  0.00  0.00    +0.035 A 
ATOM     27  C   UNL     1      -2.112   5.540  39.951  0.00  0.00    +0.023 A 
ATOM     28  C   UNL     1      -0.642   7.432  39.636  0.00  0.00    +0.023 A 
ATOM     30  C   UNL     1      -1.222   5.005  40.882  0.00  0.00    +0.005 A 
ATOM     31  C   UNL     1       0.247   6.896  40.567  0.00  0.00    +0.005 A 
ATOM     32  C   UNL     1      -0.044   5.683  41.190  0.00  0.00    -0.050 A 
ATOM     33  C   UNL     1       0.907   5.111  42.187  0.00  0.00    +0.044 C 
ENDBRANCH   8  22
ENDBRANCH  12   6
BRANCH  14  16
ATOM      3  O   UNL     1      -9.059   7.505  37.191  0.00  0.00    -0.271 OA
ATOM      7  N   UNL     1     -10.096   9.359  36.232  0.00  0.00    -0.300 N 
ATOM     16  C   UNL     1      -9.016   8.632  36.701  0.00  0.00    +0.241 C 
ATOM     37  H   UNL     1      -9.951  10.318  35.927  0.00  0.00    +0.150 HD
BRANCH   7  17
ATOM     17  C   UNL     1     -11.453   8.865  36.263  0.00  0.00    +0.163 C 
BRANCH  17  20
ATOM      5  O   UNL     1     -12.780  10.716  37.107  0.00  0.00    -0.274 OA
ATOM      9  N   UNL     1     -12.185   9.039  38.559  0.00  0.00    -0.328 N 
ATOM     20  C   UNL     1     -12.196   9.658  37.327  0.00  0.00    +0.231 C 
ATOM     39  H   UNL     1     -12.656   9.456  39.355  0.00  0.00    +0.145 HD
ATOM     40  H   UNL     1     -11.716   8.153  38.721  0.00  0.00    +0.145 HD
ENDBRANCH  17  20
BRANCH  17  19
ATOM     19  C   UNL     1     -12.153   9.007  34.906  0.00  0.00    +0.067 C 
BRANCH  19  21
ATOM     21  C   UNL     1     -12.894   7.757  34.496  0.00  0.00    -0.045 A 
ATOM     23  C   UNL     1     -13.171   7.522  33.149  0.00  0.00    +0.004 A 
ATOM     24  C   UNL     1     -13.303   6.839  35.463  0.00  0.00    +0.004 A 
ATOM     25  C   UNL     1     -13.857   6.368  32.770  0.00  0.00    +0.000 A 
ATOM     26  C   UNL     1     -13.989   5.685  35.085  0.00  0.00    +0.000 A 
ATOM     29  C   UNL     1     -14.265   5.450  33.738  0.00  0.00    +0.000 A 
ENDBRANCH  19  21
ENDBRANCH  17  19
ENDBRANCH   7  17
ENDBRANCH  14  16
BRANCH  10   1
ATOM      1  O   UNL     1      -4.910   9.627  34.890  0.00  0.00    -0.387 OA
ATOM     35  H   UNL     1      -4.625  10.200  34.158  0.00  0.00    +0.210 HD
ENDBRANCH  10   1
BRANCH  11   2
ATOM      2  O   UNL     1      -6.563  12.308  36.750  0.00  0.00    -0.389 OA
ATOM     36  H   UNL     1      -5.711  12.762  36.869  0.00  0.00    +0.210 HD
ENDBRANCH  11   2
TORSDOF 9
ENDMDL
MODEL 9
REMARK VINA RESULT:      -6.5     26.099     30.195
REMARK  Name = 11866308
REMARK  10 active torsions:
REMARK  status: ('A' for Active; 'I' for Inactive)
REMARK    1  A    between atoms: O_1  and  C_10
REMARK    2  A    between atoms: O_2  and  C_11
REMARK    3  A    between atoms: N_6  and  C_12
REMARK    4  A    between atoms: N_7  and  C_17
REMARK    5  A    between atoms: N_8  and  C_22
REMARK    6  A    between atoms: C_14  and  C_16
REMARK    7  A    between atoms: C_17  and  C_19
REMARK    8  A    between atoms: C_17  and  C_20
REMARK    9  A    between atoms: C_19  and  C_21
REMARK   10  A    between atoms: C_32  and  C_33
REMARK                            x       y       z     vdW  Elec       q    Type
REMARK                         _______ _______ _______ _____ _____    ______ ____
ROOT
ATOM     10  C   UNL     1      12.838   5.693   1.765  0.00  0.00    +0.167 C 
ATOM     11  C   UNL     1      11.358   5.500   1.414  0.00  0.00    +0.149 C 
ATOM     12  C   UNL     1      13.013   6.620   2.984  0.00  0.00    +0.129 C 
ATOM     13  C   UNL     1      10.544   4.969   2.608  0.00  0.00    +0.074 C 
ATOM     14  C   UNL     1      10.956   5.568   3.922  0.00  0.00    +0.015 C 
ATOM     15  C   UNL     1      12.055   6.316   4.103  0.00  0.00    +0.006 C 
ENDROOT
BRANCH  12   6
ATOM      4  O   UNL     1      14.743   8.853   3.457  0.00  0.00    -0.252 OA
ATOM      6  N   UNL     1      14.360   6.573   3.498  0.00  0.00    -0.290 N 
ATOM      8  N   UNL     1      16.397   7.365   4.205  0.00  0.00    -0.269 N 
ATOM     18  C   UNL     1      15.142   7.717   3.701  0.00  0.00    +0.304 C 
ATOM     34  H   UNL     1      14.728   5.677   3.803  0.00  0.00    +0.151 HD
ATOM     38  H   UNL     1      16.569   6.374   4.350  0.00  0.00    +0.156 HD
BRANCH   8  22
ATOM     22  C   UNL     1      17.469   8.224   4.541  0.00  0.00    +0.035 A 
ATOM     27  C   UNL     1      17.386   9.035   5.673  0.00  0.00    +0.023 A 
ATOM     28  C   UNL     1      18.611   8.260   3.740  0.00  0.00    +0.023 A 
ATOM     30  C   UNL     1      18.444   9.881   6.004  0.00  0.00    +0.005 A 
ATOM     31  C   UNL     1      19.668   9.107   4.071  0.00  0.00    +0.005 A 
ATOM     32  C   UNL     1      19.584   9.917   5.203  0.00  0.00    -0.050 A 
ATOM     33  C   UNL     1      20.715  10.823   5.556  0.00  0.00    +0.044 C 
ENDBRANCH   8  22
ENDBRANCH  12   6
BRANCH  14  16
ATOM      3  O   UNL     1       9.243   4.451   5.078  0.00  0.00    -0.271 OA
ATOM      7  N   UNL     1      10.350   6.214   6.128  0.00  0.00    -0.300 N 
ATOM     16  C   UNL     1      10.092   5.341   5.085  0.00  0.00    +0.241 C 
ATOM     37  H   UNL     1      11.136   6.854   6.054  0.00  0.00    +0.150 HD
BRANCH   7  17
ATOM     17  C   UNL     1       9.625   6.185   7.378  0.00  0.00    +0.163 C 
BRANCH  17  20
ATOM      5  O   UNL     1      10.202   5.136   9.492  0.00  0.00    -0.274 OA
ATOM      9  N   UNL     1      11.897   5.714   8.052  0.00  0.00    -0.328 N 
ATOM     20  C   UNL     1      10.574   5.636   8.433  0.00  0.00    +0.231 C 
ATOM     39  H   UNL     1      12.634   5.370   8.659  0.00  0.00    +0.145 HD
ATOM     40  H   UNL     1      12.188   6.110   7.164  0.00  0.00    +0.145 HD
ENDBRANCH  17  20
BRANCH  17  19
ATOM     19  C   UNL     1       9.120   7.574   7.787  0.00  0.00    +0.067 C 
BRANCH  19  21
ATOM     21  C   UNL     1       9.032   8.530   6.622  0.00  0.00    -0.045 A 
ATOM     23  C   UNL     1       9.978   9.546   6.483  0.00  0.00    +0.004 A 
ATOM     24  C   UNL     1       8.006   8.400   5.687  0.00  0.00    +0.004 A 
ATOM     25  C   UNL     1       9.897  10.431   5.407  0.00  0.00    +0.000 A 
ATOM     26  C   UNL     1       7.925   9.284   4.611  0.00  0.00    +0.000 A 
ATOM     29  C   UNL     1       8.871  10.300   4.472  0.00  0.00    +0.000 A 
ENDBRANCH  19  21
ENDBRANCH  17  19
ENDBRANCH   7  17
ENDBRANCH  14  16
BRANCH  10   1
ATOM      1  O   UNL     1      13.414   4.416   2.046  0.00  0.00    -0.387 OA
ATOM     35  H   UNL     1      13.026   3.777   1.425  0.00  0.00    +0.210 HD
ENDBRANCH  10   1
BRANCH  11   2
ATOM      2  O   UNL     1      10.798   6.726   0.948  0.00  0.00    -0.389 OA
ATOM     36  H   UNL     1      10.192   7.053   1.635  0.00  0.00    +0.210 HD
ENDBRANCH  11   2
TORSDOF 9
ENDMDL
MODEL 10
REMARK VINA RESULT:      -6.5     20.310     22.272
REMARK  Name = 11866308
REMARK  10 active torsions:
REMARK  status: ('A' for Active; 'I' for Inactive)
REMARK    1  A    between atoms: O_1  and  C_10
REMARK    2  A    between atoms: O_2  and  C_11
REMARK    3  A    between atoms: N_6  and  C_12
REMARK    4  A    between atoms: N_7  and  C_17
REMARK    5  A    between atoms: N_8  and  C_22
REMARK    6  A    between atoms: C_14  and  C_16
REMARK    7  A    between atoms: C_17  and  C_19
REMARK    8  A    between atoms: C_17  and  C_20
REMARK    9  A    between atoms: C_19  and  C_21
REMARK   10  A    between atoms: C_32  and  C_33
REMARK                            x       y       z     vdW  Elec       q    Type
REMARK                         _______ _______ _______ _____ _____    ______ ____
ROOT
ATOM     10  C   UNL     1     -15.569   5.824  33.923  0.00  0.00    +0.167 C 
ATOM     11  C   UNL     1     -15.630   4.352  34.345  0.00  0.00    +0.149 C 
ATOM     12  C   UNL     1     -14.305   6.121  33.092  0.00  0.00    +0.129 C 
ATOM     13  C   UNL     1     -15.550   3.399  33.140  0.00  0.00    +0.074 C 
ATOM     14  C   UNL     1     -14.591   3.861  32.079  0.00  0.00    +0.015 C 
ATOM     15  C   UNL     1     -14.020   5.075  32.050  0.00  0.00    +0.006 C 
ENDROOT
BRANCH  12   6
ATOM      4  O   UNL     1     -12.203   8.055  32.871  0.00  0.00    -0.252 OA
ATOM      6  N   UNL     1     -14.384   7.411  32.449  0.00  0.00    -0.290 N 
ATOM      8  N   UNL     1     -13.673   9.464  31.704  0.00  0.00    -0.269 N 
ATOM     18  C   UNL     1     -13.304   8.300  32.385  0.00  0.00    +0.304 C 
ATOM     34  H   UNL     1     -15.235   7.648  31.950  0.00  0.00    +0.151 HD
ATOM     38  H   UNL     1     -14.630   9.509  31.363  0.00  0.00    +0.156 HD
BRANCH   8  22
ATOM     22  C   UNL     1     -12.875  10.598  31.428  0.00  0.00    +0.035 A 
ATOM     27  C   UNL     1     -12.967  11.731  32.237  0.00  0.00    +0.023 A 
ATOM     28  C   UNL     1     -11.993  10.583  30.346  0.00  0.00    +0.023 A 
ATOM     30  C   UNL     1     -12.179  12.849  31.964  0.00  0.00    +0.005 A 
ATOM     31  C   UNL     1     -11.205  11.702  30.074  0.00  0.00    +0.005 A 
ATOM     32  C   UNL     1     -11.299  12.834  30.883  0.00  0.00    -0.050 A 
ATOM     33  C   UNL     1     -10.456  14.030  30.591  0.00  0.00    +0.044 C 
ENDBRANCH   8  22
ENDBRANCH  12   6
BRANCH  14  16
ATOM      3  O   UNL     1     -13.083   2.854  30.586  0.00  0.00    -0.271 OA
ATOM      7  N   UNL     1     -15.309   2.164  30.578  0.00  0.00    -0.300 N 
ATOM     16  C   UNL     1     -14.235   2.920  31.013  0.00  0.00    +0.241 C 
ATOM     37  H   UNL     1     -16.198   2.243  31.064  0.00  0.00    +0.150 HD
BRANCH   7  17
ATOM     17  C   UNL     1     -15.204   1.171  29.534  0.00  0.00    +0.163 C 
BRANCH  17  20
ATOM      5  O   UNL     1     -15.515  -0.930  30.714  0.00  0.00    -0.274 OA
ATOM      9  N   UNL     1     -13.388  -0.322  30.093  0.00  0.00    -0.328 N 
ATOM     20  C   UNL     1     -14.750  -0.124  30.190  0.00  0.00    +0.231 C 
ATOM     39  H   UNL     1     -12.955  -1.154  30.479  0.00  0.00    +0.145 HD
ATOM     40  H   UNL     1     -12.771   0.343  29.639  0.00  0.00    +0.145 HD
ENDBRANCH  17  20
BRANCH  17  19
ATOM     19  C   UNL     1     -16.534   0.959  28.800  0.00  0.00    +0.067 C 
BRANCH  19  21
ATOM     21  C   UNL     1     -16.570   1.631  27.449  0.00  0.00    -0.045 A 
ATOM     23  C   UNL     1     -17.092   0.953  26.347  0.00  0.00    +0.004 A 
ATOM     24  C   UNL     1     -16.080   2.929  27.301  0.00  0.00    +0.004 A 
ATOM     25  C   UNL     1     -17.125   1.573  25.098  0.00  0.00    +0.000 A 
ATOM     26  C   UNL     1     -16.113   3.549  26.052  0.00  0.00    +0.000 A 
ATOM     29  C   UNL     1     -16.636   2.871  24.951  0.00  0.00    +0.000 A 
ENDBRANCH  19  21
ENDBRANCH  17  19
ENDBRANCH   7  17
ENDBRANCH  14  16
BRANCH  10   1
ATOM      1  O   UNL     1     -16.733   6.130  33.153  0.00  0.00    -0.387 OA
ATOM     35  H   UNL     1     -16.915   5.364  32.582  0.00  0.00    +0.210 HD
ENDBRANCH  10   1
BRANCH  11   2
ATOM      2  O   UNL     1     -14.582   4.061  35.268  0.00  0.00    -0.389 OA
ATOM     36  H   UNL     1     -14.581   4.760  35.944  0.00  0.00    +0.210 HD
ENDBRANCH  11   2
TORSDOF 9
ENDMDL
