MODEL 1
REMARK VINA RESULT:      -6.7      0.000      0.000
REMARK  Name = 51136975
REMARK  9 active torsions:
REMARK  status: ('A' for Active; 'I' for Inactive)
REMARK    1  A    between atoms: O_2  and  C_12
REMARK    2  A    between atoms: O_3  and  C_19
REMARK    3  A    between atoms: N_5  and  C_10
REMARK    4  A    between atoms: N_6  and  C_20
REMARK    5  A    between atoms: N_7  and  C_16
REMARK    6  A    between atoms: N_8  and  C_30
REMARK    7  A    between atoms: C_11  and  C_16
REMARK    8  A    between atoms: C_13  and  C_19
REMARK    9  A    between atoms: C_21  and  C_24
REMARK                            x       y       z     vdW  Elec       q    Type
REMARK                         _______ _______ _______ _____ _____    ______ ____
ROOT
ATOM      1  O   UNL     1     -15.651   0.483  29.247  0.00  0.00    -0.365 OA
ATOM     10  C   UNL     1     -15.140   2.138  30.880  0.00  0.00    +0.118 C 
ATOM     11  C   UNL     1     -15.995   1.829  29.645  0.00  0.00    +0.155 C 
ATOM     12  C   UNL     1     -13.936   1.226  30.700  0.00  0.00    +0.165 C 
ATOM     13  C   UNL     1     -14.605  -0.009  30.107  0.00  0.00    +0.174 C 
ENDROOT
BRANCH  10   5
ATOM      5  N   UNL     1     -14.828   3.538  31.111  0.00  0.00    -0.292 NA
ATOM      6  N   UNL     1     -14.722   5.975  32.596  0.00  0.00    -0.327 N 
ATOM     14  C   UNL     1     -13.902   3.679  32.241  0.00  0.00    +0.104 C 
ATOM     15  C   UNL     1     -16.054   4.303  31.370  0.00  0.00    +0.104 C 
ATOM     17  C   UNL     1     -13.520   5.146  32.460  0.00  0.00    +0.120 C 
ATOM     18  C   UNL     1     -15.744   5.789  31.558  0.00  0.00    +0.120 C 
BRANCH   6  20
ATOM     20  C   UNL     1     -14.635   7.226  33.217  0.00  0.00    +0.030 A 
ATOM     22  C   UNL     1     -13.537   7.532  34.022  0.00  0.00    +0.023 A 
ATOM     23  C   UNL     1     -15.646   8.168  33.030  0.00  0.00    +0.023 A 
ATOM     25  C   UNL     1     -13.451   8.779  34.640  0.00  0.00    +0.002 A 
ATOM     26  C   UNL     1     -15.559   9.416  33.648  0.00  0.00    +0.002 A 
ATOM     27  C   UNL     1     -14.462   9.721  34.454  0.00  0.00    +0.000 A 
ENDBRANCH   6  20
ENDBRANCH  10   5
BRANCH  12   2
ATOM      2  O   UNL     1     -13.001   1.773  29.779  0.00  0.00    -0.388 OA
ATOM     31  H   UNL     1     -12.601   1.034  29.292  0.00  0.00    +0.210 HD
ENDBRANCH  12   2
BRANCH  11  16
ATOM     16  C   UNL     1     -15.791   2.727  28.429  0.00  0.00    +0.137 C 
BRANCH  16   7
ATOM      4  O   UNL     1     -16.327   4.006  25.916  0.00  0.00    -0.270 OA
ATOM      7  N   UNL     1     -16.281   2.101  27.238  0.00  0.00    -0.309 N 
ATOM     21  C   UNL     1     -16.514   2.801  26.057  0.00  0.00    +0.247 C 
ATOM     32  H   UNL     1     -16.486   1.107  27.277  0.00  0.00    +0.149 HD
BRANCH  21  24
ATOM      8  N   UNL     1     -17.963   0.433  23.717  0.00  0.00    -0.274 N 
ATOM      9  N   UNL     1     -17.649   1.371  22.808  0.00  0.00    -0.179 NA
ATOM     24  C   UNL     1     -17.048   2.012  24.917  0.00  0.00    +0.074 A 
ATOM     28  C   UNL     1     -17.623   0.768  24.995  0.00  0.00    +0.121 A 
ATOM     29  C   UNL     1     -17.091   2.333  23.547  0.00  0.00    +0.147 A 
ATOM     30  C   UNL     1     -18.602  -0.791  23.294  0.00  0.00    +0.172 C 
ENDBRANCH  21  24
ENDBRANCH  16   7
ENDBRANCH  11  16
BRANCH  13  19
ATOM     19  C   UNL     1     -13.694  -0.927  29.313  0.00  0.00    +0.190 C 
BRANCH  19   3
ATOM      3  O   UNL     1     -12.485  -1.106  30.031  0.00  0.00    -0.392 OA
ATOM     33  H   UNL     1     -12.582  -1.918  30.558  0.00  0.00    +0.210 HD
ENDBRANCH  19   3
ENDBRANCH  13  19
TORSDOF 8
ENDMDL
MODEL 2
REMARK VINA RESULT:      -6.7      3.838      6.488
REMARK  Name = 51136975
REMARK  9 active torsions:
REMARK  status: ('A' for Active; 'I' for Inactive)
REMARK    1  A    between atoms: O_2  and  C_12
REMARK    2  A    between atoms: O_3  and  C_19
REMARK    3  A    between atoms: N_5  and  C_10
REMARK    4  A    between atoms: N_6  and  C_20
REMARK    5  A    between atoms: N_7  and  C_16
REMARK    6  A    between atoms: N_8  and  C_30
REMARK    7  A    between atoms: C_11  and  C_16
REMARK    8  A    between atoms: C_13  and  C_19
REMARK    9  A    between atoms: C_21  and  C_24
REMARK                            x       y       z     vdW  Elec       q    Type
REMARK                         _______ _______ _______ _____ _____    ______ ____
ROOT
ATOM      1  O   UNL     1     -17.640   3.407  23.804  0.00  0.00    -0.365 OA
ATOM     10  C   UNL     1     -17.501   2.907  26.128  0.00  0.00    +0.118 C 
ATOM     11  C   UNL     1     -16.982   3.831  25.019  0.00  0.00    +0.155 C 
ATOM     12  C   UNL     1     -17.895   1.649  25.370  0.00  0.00    +0.165 C 
ATOM     13  C   UNL     1     -18.459   2.257  24.091  0.00  0.00    +0.174 C 
ENDROOT
BRANCH  10   5
ATOM      5  N   UNL     1     -16.613   2.697  27.258  0.00  0.00    -0.292 NA
ATOM      6  N   UNL     1     -15.891   2.566  30.019  0.00  0.00    -0.327 N 
ATOM     14  C   UNL     1     -17.104   1.603  28.103  0.00  0.00    +0.104 C 
ATOM     15  C   UNL     1     -16.491   3.926  28.052  0.00  0.00    +0.104 C 
ATOM     17  C   UNL     1     -16.147   1.334  29.267  0.00  0.00    +0.120 C 
ATOM     18  C   UNL     1     -15.512   3.735  29.213  0.00  0.00    +0.120 C 
BRANCH   6  20
ATOM     20  C   UNL     1     -15.417   2.493  31.333  0.00  0.00    +0.030 A 
ATOM     22  C   UNL     1     -15.075   1.257  31.884  0.00  0.00    +0.023 A 
ATOM     23  C   UNL     1     -15.286   3.655  32.092  0.00  0.00    +0.023 A 
ATOM     25  C   UNL     1     -14.603   1.185  33.194  0.00  0.00    +0.002 A 
ATOM     26  C   UNL     1     -14.813   3.583  33.402  0.00  0.00    +0.002 A 
ATOM     27  C   UNL     1     -14.472   2.347  33.953  0.00  0.00    +0.000 A 
ENDBRANCH   6  20
ENDBRANCH  10   5
BRANCH  12   2
ATOM      2  O   UNL     1     -16.761   0.841  25.077  0.00  0.00    -0.388 OA
ATOM     31  H   UNL     1     -16.203   0.819  25.872  0.00  0.00    +0.210 HD
ENDBRANCH  12   2
BRANCH  11  16
ATOM     16  C   UNL     1     -15.480   3.803  24.753  0.00  0.00    +0.137 C 
BRANCH  16   7
ATOM      4  O   UNL     1     -14.950   4.294  21.975  0.00  0.00    -0.270 OA
ATOM      7  N   UNL     1     -15.037   5.034  24.172  0.00  0.00    -0.309 N 
ATOM     21  C   UNL     1     -14.803   5.185  22.807  0.00  0.00    +0.247 C 
ATOM     32  H   UNL     1     -14.866   5.816  24.796  0.00  0.00    +0.149 HD
BRANCH  21  24
ATOM      8  N   UNL     1     -13.236   8.111  21.335  0.00  0.00    -0.274 N 
ATOM      9  N   UNL     1     -14.060   8.778  22.162  0.00  0.00    -0.179 NA
ATOM     24  C   UNL     1     -14.320   6.518  22.365  0.00  0.00    +0.074 A 
ATOM     28  C   UNL     1     -13.353   6.754  21.419  0.00  0.00    +0.121 A 
ATOM     29  C   UNL     1     -14.719   7.800  22.787  0.00  0.00    +0.147 A 
ATOM     30  C   UNL     1     -12.341   8.841  20.470  0.00  0.00    +0.172 C 
ENDBRANCH  21  24
ENDBRANCH  16   7
ENDBRANCH  11  16
BRANCH  13  19
ATOM     19  C   UNL     1     -18.472   1.338  22.882  0.00  0.00    +0.190 C 
BRANCH  19   3
ATOM      3  O   UNL     1     -17.185   1.346  22.286  0.00  0.00    -0.392 OA
ATOM     33  H   UNL     1     -16.634   1.958  22.805  0.00  0.00    +0.210 HD
ENDBRANCH  19   3
ENDBRANCH  13  19
TORSDOF 8
ENDMDL
MODEL 3
REMARK VINA RESULT:      -6.5     17.867     20.149
REMARK  Name = 51136975
REMARK  9 active torsions:
REMARK  status: ('A' for Active; 'I' for Inactive)
REMARK    1  A    between atoms: O_2  and  C_12
REMARK    2  A    between atoms: O_3  and  C_19
REMARK    3  A    between atoms: N_5  and  C_10
REMARK    4  A    between atoms: N_6  and  C_20
REMARK    5  A    between atoms: N_7  and  C_16
REMARK    6  A    between atoms: N_8  and  C_30
REMARK    7  A    between atoms: C_11  and  C_16
REMARK    8  A    between atoms: C_13  and  C_19
REMARK    9  A    between atoms: C_21  and  C_24
REMARK                            x       y       z     vdW  Elec       q    Type
REMARK                         _______ _______ _______ _____ _____    ______ ____
ROOT
ATOM      1  O   UNL     1     -10.327 -11.436  17.434  0.00  0.00    -0.365 OA
ATOM     10  C   UNL     1     -11.521  -9.523  16.670  0.00  0.00    +0.118 C 
ATOM     11  C   UNL     1     -10.674 -10.722  16.226  0.00  0.00    +0.155 C 
ATOM     12  C   UNL     1     -11.053  -9.281  18.097  0.00  0.00    +0.165 C 
ATOM     13  C   UNL     1     -10.843 -10.716  18.570  0.00  0.00    +0.174 C 
ENDROOT
BRANCH  10   5
ATOM      5  N   UNL     1     -11.491  -8.359  15.802  0.00  0.00    -0.292 NA
ATOM      6  N   UNL     1     -12.601  -6.266  14.207  0.00  0.00    -0.327 N 
ATOM     14  C   UNL     1     -12.177  -7.227  16.435  0.00  0.00    +0.104 C 
ATOM     15  C   UNL     1     -12.117  -8.664  14.510  0.00  0.00    +0.104 C 
ATOM     17  C   UNL     1     -12.104  -5.976  15.555  0.00  0.00    +0.120 C 
ATOM     18  C   UNL     1     -12.040  -7.462  13.565  0.00  0.00    +0.120 C 
BRANCH   6  20
ATOM     20  C   UNL     1     -13.028  -5.218  13.384  0.00  0.00    +0.030 A 
ATOM     22  C   UNL     1     -12.121  -4.584  12.533  0.00  0.00    +0.023 A 
ATOM     23  C   UNL     1     -14.359  -4.805  13.415  0.00  0.00    +0.023 A 
ATOM     25  C   UNL     1     -12.547  -3.540  11.713  0.00  0.00    +0.002 A 
ATOM     26  C   UNL     1     -14.786  -3.761  12.594  0.00  0.00    +0.002 A 
ATOM     27  C   UNL     1     -13.878  -3.128  11.744  0.00  0.00    +0.000 A 
ENDBRANCH   6  20
ENDBRANCH  10   5
BRANCH  12   2
ATOM      2  O   UNL     1      -9.825  -8.565  18.127  0.00  0.00    -0.388 OA
ATOM     31  H   UNL     1      -9.413  -8.724  18.993  0.00  0.00    +0.210 HD
ENDBRANCH  12   2
BRANCH  11  16
ATOM     16  C   UNL     1      -9.372 -10.407  15.497  0.00  0.00    +0.137 C 
BRANCH  16   7
ATOM      4  O   UNL     1      -7.249  -9.250  17.045  0.00  0.00    -0.270 OA
ATOM      7  N   UNL     1      -8.269 -11.102  16.089  0.00  0.00    -0.309 N 
ATOM     21  C   UNL     1      -7.279 -10.458  16.828  0.00  0.00    +0.247 C 
ATOM     32  H   UNL     1      -8.204 -12.104  15.936  0.00  0.00    +0.149 HD
BRANCH  21  24
ATOM      8  N   UNL     1      -4.492 -12.065  18.512  0.00  0.00    -0.274 N 
ATOM      9  N   UNL     1      -4.762 -13.075  17.668  0.00  0.00    -0.179 NA
ATOM     24  C   UNL     1      -6.187 -11.316  17.354  0.00  0.00    +0.074 A 
ATOM     28  C   UNL     1      -5.316 -10.987  18.364  0.00  0.00    +0.121 A 
ATOM     29  C   UNL     1      -5.798 -12.612  16.964  0.00  0.00    +0.147 A 
ATOM     30  C   UNL     1      -3.410 -12.190  19.458  0.00  0.00    +0.172 C 
ENDBRANCH  21  24
ENDBRANCH  16   7
ENDBRANCH  11  16
BRANCH  13  19
ATOM     19  C   UNL     1      -9.894 -10.884  19.743  0.00  0.00    +0.190 C 
BRANCH  19   3
ATOM      3  O   UNL     1     -10.283  -9.996  20.778  0.00  0.00    -0.392 OA
ATOM     33  H   UNL     1     -10.753 -10.524  21.447  0.00  0.00    +0.210 HD
ENDBRANCH  19   3
ENDBRANCH  13  19
TORSDOF 8
ENDMDL
MODEL 4
REMARK VINA RESULT:      -6.2     21.523     25.820
REMARK  Name = 51136975
REMARK  9 active torsions:
REMARK  status: ('A' for Active; 'I' for Inactive)
REMARK    1  A    between atoms: O_2  and  C_12
REMARK    2  A    between atoms: O_3  and  C_19
REMARK    3  A    between atoms: N_5  and  C_10
REMARK    4  A    between atoms: N_6  and  C_20
REMARK    5  A    between atoms: N_7  and  C_16
REMARK    6  A    between atoms: N_8  and  C_30
REMARK    7  A    between atoms: C_11  and  C_16
REMARK    8  A    between atoms: C_13  and  C_19
REMARK    9  A    between atoms: C_21  and  C_24
REMARK                            x       y       z     vdW  Elec       q    Type
REMARK                         _______ _______ _______ _____ _____    ______ ____
ROOT
ATOM      1  O   UNL     1      -9.662  -8.072   5.242  0.00  0.00    -0.365 OA
ATOM     10  C   UNL     1      -7.991  -9.123   6.573  0.00  0.00    +0.118 C 
ATOM     11  C   UNL     1      -9.197  -8.177   6.606  0.00  0.00    +0.155 C 
ATOM     12  C   UNL     1      -7.471  -8.966   5.152  0.00  0.00    +0.165 C 
ATOM     13  C   UNL     1      -8.783  -8.828   4.387  0.00  0.00    +0.174 C 
ENDROOT
BRANCH  10   5
ATOM      5  N   UNL     1      -7.000  -8.938   7.619  0.00  0.00    -0.292 NA
ATOM      6  N   UNL     1      -5.306  -9.734   9.776  0.00  0.00    -0.327 N 
ATOM     14  C   UNL     1      -5.824  -9.779   7.368  0.00  0.00    +0.104 C 
ATOM     15  C   UNL     1      -7.572  -9.258   8.932  0.00  0.00    +0.104 C 
ATOM     17  C   UNL     1      -4.748  -9.551   8.433  0.00  0.00    +0.120 C 
ATOM     18  C   UNL     1      -6.556  -9.011  10.049  0.00  0.00    +0.120 C 
BRANCH   6  20
ATOM     20  C   UNL     1      -4.453 -10.001  10.852  0.00  0.00    +0.030 A 
ATOM     22  C   UNL     1      -4.984 -10.265  12.116  0.00  0.00    +0.023 A 
ATOM     23  C   UNL     1      -3.072 -10.003  10.663  0.00  0.00    +0.023 A 
ATOM     25  C   UNL     1      -4.134 -10.532  13.188  0.00  0.00    +0.002 A 
ATOM     26  C   UNL     1      -2.221 -10.269  11.736  0.00  0.00    +0.002 A 
ATOM     27  C   UNL     1      -2.752 -10.533  12.999  0.00  0.00    +0.000 A 
ENDBRANCH   6  20
ENDBRANCH  10   5
BRANCH  12   2
ATOM      2  O   UNL     1      -6.690  -7.787   5.010  0.00  0.00    -0.388 OA
ATOM     31  H   UNL     1      -5.754  -8.049   5.037  0.00  0.00    +0.210 HD
ENDBRANCH  12   2
BRANCH  11  16
ATOM     16  C   UNL     1      -8.941  -6.758   7.106  0.00  0.00    +0.137 C 
BRANCH  16   7
ATOM      4  O   UNL     1      -9.010  -4.376   8.706  0.00  0.00    -0.270 OA
ATOM      7  N   UNL     1     -10.053  -6.270   7.864  0.00  0.00    -0.309 N 
ATOM     21  C   UNL     1      -9.999  -5.099   8.616  0.00  0.00    +0.247 C 
ATOM     32  H   UNL     1     -10.904  -6.823   7.864  0.00  0.00    +0.149 HD
BRANCH  21  24
ATOM      8  N   UNL     1     -13.218  -4.802  10.268  0.00  0.00    -0.274 N 
ATOM      9  N   UNL     1     -12.745  -3.600  10.640  0.00  0.00    -0.179 NA
ATOM     24  C   UNL     1     -11.229  -4.741   9.367  0.00  0.00    +0.074 A 
ATOM     28  C   UNL     1     -12.348  -5.524   9.504  0.00  0.00    +0.121 A 
ATOM     29  C   UNL     1     -11.529  -3.569  10.087  0.00  0.00    +0.147 A 
ATOM     30  C   UNL     1     -14.538  -5.213  10.683  0.00  0.00    +0.172 C 
ENDBRANCH  21  24
ENDBRANCH  16   7
ENDBRANCH  11  16
BRANCH  13  19
ATOM     19  C   UNL     1      -8.683  -8.140   3.037  0.00  0.00    +0.190 C 
BRANCH  19   3
ATOM      3  O   UNL     1      -8.695  -6.736   3.237  0.00  0.00    -0.392 OA
ATOM     33  H   UNL     1      -9.497  -6.393   2.806  0.00  0.00    +0.210 HD
ENDBRANCH  19   3
ENDBRANCH  13  19
TORSDOF 8
ENDMDL
MODEL 5
REMARK VINA RESULT:      -6.2     18.379     22.105
REMARK  Name = 51136975
REMARK  9 active torsions:
REMARK  status: ('A' for Active; 'I' for Inactive)
REMARK    1  A    between atoms: O_2  and  C_12
REMARK    2  A    between atoms: O_3  and  C_19
REMARK    3  A    between atoms: N_5  and  C_10
REMARK    4  A    between atoms: N_6  and  C_20
REMARK    5  A    between atoms: N_7  and  C_16
REMARK    6  A    between atoms: N_8  and  C_30
REMARK    7  A    between atoms: C_11  and  C_16
REMARK    8  A    between atoms: C_13  and  C_19
REMARK    9  A    between atoms: C_21  and  C_24
REMARK                            x       y       z     vdW  Elec       q    Type
REMARK                         _______ _______ _______ _____ _____    ______ ____
ROOT
ATOM      1  O   UNL     1      -4.208 -12.619  17.180  0.00  0.00    -0.365 OA
ATOM     10  C   UNL     1      -6.349 -11.592  16.999  0.00  0.00    +0.118 C 
ATOM     11  C   UNL     1      -5.058 -11.925  16.240  0.00  0.00    +0.155 C 
ATOM     12  C   UNL     1      -5.889 -11.536  18.448  0.00  0.00    +0.165 C 
ATOM     13  C   UNL     1      -4.864 -12.665  18.461  0.00  0.00    +0.174 C 
ENDROOT
BRANCH  10   5
ATOM      5  N   UNL     1      -7.084 -10.429  16.536  0.00  0.00    -0.292 NA
ATOM      6  N   UNL     1      -9.410  -8.893  15.911  0.00  0.00    -0.327 N 
ATOM     14  C   UNL     1      -7.934  -9.897  17.608  0.00  0.00    +0.104 C 
ATOM     15  C   UNL     1      -7.907 -10.770  15.369  0.00  0.00    +0.104 C 
ATOM     17  C   UNL     1      -8.673  -8.636  17.151  0.00  0.00    +0.120 C 
ATOM     18  C   UNL     1      -8.643  -9.539  14.837  0.00  0.00    +0.120 C 
BRANCH   6  20
ATOM     20  C   UNL     1     -10.472  -8.057  15.549  0.00  0.00    +0.030 A 
ATOM     22  C   UNL     1     -11.236  -8.348  14.417  0.00  0.00    +0.023 A 
ATOM     23  C   UNL     1     -10.767  -6.932  16.318  0.00  0.00    +0.023 A 
ATOM     25  C   UNL     1     -12.294  -7.515  14.057  0.00  0.00    +0.002 A 
ATOM     26  C   UNL     1     -11.826  -6.099  15.958  0.00  0.00    +0.002 A 
ATOM     27  C   UNL     1     -12.589  -6.390  14.827  0.00  0.00    +0.000 A 
ENDBRANCH   6  20
ENDBRANCH  10   5
BRANCH  12   2
ATOM      2  O   UNL     1      -5.263 -10.295  18.747  0.00  0.00    -0.388 OA
ATOM     31  H   UNL     1      -4.426 -10.261  18.254  0.00  0.00    +0.210 HD
ENDBRANCH  12   2
BRANCH  11  16
ATOM     16  C   UNL     1      -4.260 -10.744  15.696  0.00  0.00    +0.137 C 
BRANCH  16   7
ATOM      4  O   UNL     1      -2.259 -10.613  13.642  0.00  0.00    -0.270 OA
ATOM      7  N   UNL     1      -4.486 -10.571  14.293  0.00  0.00    -0.309 N 
ATOM     21  C   UNL     1      -3.451 -10.519  13.362  0.00  0.00    +0.247 C 
ATOM     32  H   UNL     1      -5.445 -10.460  13.978  0.00  0.00    +0.149 HD
BRANCH  21  24
ATOM      8  N   UNL     1      -4.868  -9.614  10.144  0.00  0.00    -0.274 N 
ATOM      9  N   UNL     1      -3.923 -10.442   9.666  0.00  0.00    -0.179 NA
ATOM     24  C   UNL     1      -3.848 -10.310  11.946  0.00  0.00    +0.074 A 
ATOM     28  C   UNL     1      -4.866  -9.501  11.504  0.00  0.00    +0.121 A 
ATOM     29  C   UNL     1      -3.303 -10.863  10.772  0.00  0.00    +0.147 A 
ATOM     30  C   UNL     1      -5.764  -8.946   9.231  0.00  0.00    +0.172 C 
ENDBRANCH  21  24
ENDBRANCH  16   7
ENDBRANCH  11  16
BRANCH  13  19
ATOM     19  C   UNL     1      -3.821 -12.586  19.561  0.00  0.00    +0.190 C 
BRANCH  19   3
ATOM      3  O   UNL     1      -2.697 -11.870  19.076  0.00  0.00    -0.392 OA
ATOM     33  H   UNL     1      -2.017 -12.526  18.845  0.00  0.00    +0.210 HD
ENDBRANCH  19   3
ENDBRANCH  13  19
TORSDOF 8
ENDMDL
MODEL 6
REMARK VINA RESULT:      -6.1     18.347     20.767
REMARK  Name = 51136975
REMARK  9 active torsions:
REMARK  status: ('A' for Active; 'I' for Inactive)
REMARK    1  A    between atoms: O_2  and  C_12
REMARK    2  A    between atoms: O_3  and  C_19
REMARK    3  A    between atoms: N_5  and  C_10
REMARK    4  A    between atoms: N_6  and  C_20
REMARK    5  A    between atoms: N_7  and  C_16
REMARK    6  A    between atoms: N_8  and  C_30
REMARK    7  A    between atoms: C_11  and  C_16
REMARK    8  A    between atoms: C_13  and  C_19
REMARK    9  A    between atoms: C_21  and  C_24
REMARK                            x       y       z     vdW  Elec       q    Type
REMARK                         _______ _______ _______ _____ _____    ______ ____
ROOT
ATOM      1  O   UNL     1      -8.728 -11.421  17.012  0.00  0.00    -0.365 OA
ATOM     10  C   UNL     1     -10.016  -9.458  16.619  0.00  0.00    +0.118 C 
ATOM     11  C   UNL     1      -9.643 -10.836  16.059  0.00  0.00    +0.155 C 
ATOM     12  C   UNL     1      -8.817  -9.102  17.483  0.00  0.00    +0.165 C 
ATOM     13  C   UNL     1      -8.473 -10.470  18.063  0.00  0.00    +0.174 C 
ENDROOT
BRANCH  10   5
ATOM      5  N   UNL     1     -10.399  -8.450  15.645  0.00  0.00    -0.292 NA
ATOM      6  N   UNL     1     -12.084  -6.465  14.472  0.00  0.00    -0.327 N 
ATOM     14  C   UNL     1     -10.574  -7.146  16.295  0.00  0.00    +0.104 C 
ATOM     15  C   UNL     1     -11.639  -8.839  14.962  0.00  0.00    +0.104 C 
ATOM     17  C   UNL     1     -10.922  -6.063  15.271  0.00  0.00    +0.120 C 
ATOM     18  C   UNL     1     -12.022  -7.813  13.893  0.00  0.00    +0.120 C 
BRANCH   6  20
ATOM     20  C   UNL     1     -12.832  -5.494  13.797  0.00  0.00    +0.030 A 
ATOM     22  C   UNL     1     -12.185  -4.492  13.072  0.00  0.00    +0.023 A 
ATOM     23  C   UNL     1     -14.225  -5.526  13.849  0.00  0.00    +0.023 A 
ATOM     25  C   UNL     1     -12.930  -3.525  12.399  0.00  0.00    +0.002 A 
ATOM     26  C   UNL     1     -14.971  -4.559  13.176  0.00  0.00    +0.002 A 
ATOM     27  C   UNL     1     -14.323  -3.558  12.452  0.00  0.00    +0.000 A 
ENDBRANCH   6  20
ENDBRANCH  10   5
BRANCH  12   2
ATOM      2  O   UNL     1      -7.736  -8.612  16.698  0.00  0.00    -0.388 OA
ATOM     31  H   UNL     1      -7.969  -7.716  16.404  0.00  0.00    +0.210 HD
ENDBRANCH  12   2
BRANCH  11  16
ATOM     16  C   UNL     1      -8.953 -10.857  14.698  0.00  0.00    +0.137 C 
BRANCH  16   7
ATOM      4  O   UNL     1      -7.025  -9.813  12.845  0.00  0.00    -0.270 OA
ATOM      7  N   UNL     1      -7.528 -10.878  14.844  0.00  0.00    -0.309 N 
ATOM     21  C   UNL     1      -6.663 -10.347  13.891  0.00  0.00    +0.247 C 
ATOM     32  H   UNL     1      -7.145 -11.325  15.671  0.00  0.00    +0.149 HD
BRANCH  21  24
ATOM      8  N   UNL     1      -3.294 -10.664  15.206  0.00  0.00    -0.274 N 
ATOM      9  N   UNL     1      -2.948 -10.633  13.908  0.00  0.00    -0.179 NA
ATOM     24  C   UNL     1      -5.211 -10.471  14.176  0.00  0.00    +0.074 A 
ATOM     28  C   UNL     1      -4.638 -10.570  15.420  0.00  0.00    +0.121 A 
ATOM     29  C   UNL     1      -4.123 -10.515  13.284  0.00  0.00    +0.147 A 
ATOM     30  C   UNL     1      -2.273 -10.789  16.218  0.00  0.00    +0.172 C 
ENDBRANCH  21  24
ENDBRANCH  16   7
ENDBRANCH  11  16
BRANCH  13  19
ATOM     19  C   UNL     1      -7.045 -10.633  18.550  0.00  0.00    +0.190 C 
BRANCH  19   3
ATOM      3  O   UNL     1      -6.978 -10.247  19.913  0.00  0.00    -0.392 OA
ATOM     33  H   UNL     1      -6.081 -10.455  20.226  0.00  0.00    +0.210 HD
ENDBRANCH  19   3
ENDBRANCH  13  19
TORSDOF 8
ENDMDL
MODEL 7
REMARK VINA RESULT:      -6.1     22.676     25.189
REMARK  Name = 51136975
REMARK  9 active torsions:
REMARK  status: ('A' for Active; 'I' for Inactive)
REMARK    1  A    between atoms: O_2  and  C_12
REMARK    2  A    between atoms: O_3  and  C_19
REMARK    3  A    between atoms: N_5  and  C_10
REMARK    4  A    between atoms: N_6  and  C_20
REMARK    5  A    between atoms: N_7  and  C_16
REMARK    6  A    between atoms: N_8  and  C_30
REMARK    7  A    between atoms: C_11  and  C_16
REMARK    8  A    between atoms: C_13  and  C_19
REMARK    9  A    between atoms: C_21  and  C_24
REMARK                            x       y       z     vdW  Elec       q    Type
REMARK                         _______ _______ _______ _____ _____    ______ ____
ROOT
ATOM      1  O   UNL     1      -7.760  -9.791   7.520  0.00  0.00    -0.365 OA
ATOM     10  C   UNL     1      -6.197 -10.517   9.164  0.00  0.00    +0.118 C 
ATOM     11  C   UNL     1      -7.490  -9.723   8.939  0.00  0.00    +0.155 C 
ATOM     12  C   UNL     1      -5.496 -10.420   7.817  0.00  0.00    +0.165 C 
ATOM     13  C   UNL     1      -6.690 -10.505   6.873  0.00  0.00    +0.174 C 
ENDROOT
BRANCH  10   5
ATOM      5  N   UNL     1      -5.395 -10.126  10.310  0.00  0.00    -0.292 NA
ATOM      6  N   UNL     1      -3.957 -10.528  12.745  0.00  0.00    -0.327 N 
ATOM     14  C   UNL     1      -4.111 -10.838  10.306  0.00  0.00    +0.104 C 
ATOM     15  C   UNL     1      -6.115 -10.401  11.560  0.00  0.00    +0.104 C 
ATOM     17  C   UNL     1      -3.232 -10.393  11.478  0.00  0.00    +0.120 C 
ATOM     18  C   UNL     1      -5.304  -9.941  12.773  0.00  0.00    +0.120 C 
BRANCH   6  20
ATOM     20  C   UNL     1      -3.246 -10.599  13.947  0.00  0.00    +0.030 A 
ATOM     22  C   UNL     1      -3.898 -10.972  15.124  0.00  0.00    +0.023 A 
ATOM     23  C   UNL     1      -1.885 -10.296  13.971  0.00  0.00    +0.023 A 
ATOM     25  C   UNL     1      -3.189 -11.043  16.322  0.00  0.00    +0.002 A 
ATOM     26  C   UNL     1      -1.175 -10.367  15.170  0.00  0.00    +0.002 A 
ATOM     27  C   UNL     1      -1.828 -10.740  16.346  0.00  0.00    +0.000 A 
ENDBRANCH   6  20
ENDBRANCH  10   5
BRANCH  12   2
ATOM      2  O   UNL     1      -4.833  -9.171   7.665  0.00  0.00    -0.388 OA
ATOM     31  H   UNL     1      -4.244  -9.243   6.895  0.00  0.00    +0.210 HD
ENDBRANCH  12   2
BRANCH  11  16
ATOM     16  C   UNL     1      -7.462  -8.247   9.323  0.00  0.00    +0.137 C 
BRANCH  16   7
ATOM      4  O   UNL     1      -8.332  -6.172   7.540  0.00  0.00    -0.270 OA
ATOM      7  N   UNL     1      -8.771  -7.671   9.255  0.00  0.00    -0.309 N 
ATOM     21  C   UNL     1      -9.109  -6.663   8.355  0.00  0.00    +0.247 C 
ATOM     32  H   UNL     1      -9.469  -8.005   9.913  0.00  0.00    +0.149 HD
BRANCH  21  24
ATOM      8  N   UNL     1     -12.254  -4.914   8.834  0.00  0.00    -0.274 N 
ATOM      9  N   UNL     1     -12.768  -5.981   8.200  0.00  0.00    -0.179 NA
ATOM     24  C   UNL     1     -10.501  -6.154   8.428  0.00  0.00    +0.074 A 
ATOM     28  C   UNL     1     -10.900  -4.969   8.996  0.00  0.00    +0.121 A 
ATOM     29  C   UNL     1     -11.693  -6.734   7.954  0.00  0.00    +0.147 A 
ATOM     30  C   UNL     1     -13.125  -3.849   9.271  0.00  0.00    +0.172 C 
ENDBRANCH  21  24
ENDBRANCH  16   7
ENDBRANCH  11  16
BRANCH  13  19
ATOM     19  C   UNL     1      -6.469  -9.927   5.487  0.00  0.00    +0.190 C 
BRANCH  19   3
ATOM      3  O   UNL     1      -6.705  -8.529   5.531  0.00  0.00    -0.392 OA
ATOM     33  H   UNL     1      -5.994  -8.102   5.021  0.00  0.00    +0.210 HD
ENDBRANCH  19   3
ENDBRANCH  13  19
TORSDOF 8
ENDMDL
MODEL 8
REMARK VINA RESULT:      -6.0     18.229     22.399
REMARK  Name = 51136975
REMARK  9 active torsions:
REMARK  status: ('A' for Active; 'I' for Inactive)
REMARK    1  A    between atoms: O_2  and  C_12
REMARK    2  A    between atoms: O_3  and  C_19
REMARK    3  A    between atoms: N_5  and  C_10
REMARK    4  A    between atoms: N_6  and  C_20
REMARK    5  A    between atoms: N_7  and  C_16
REMARK    6  A    between atoms: N_8  and  C_30
REMARK    7  A    between atoms: C_11  and  C_16
REMARK    8  A    between atoms: C_13  and  C_19
REMARK    9  A    between atoms: C_21  and  C_24
REMARK                            x       y       z     vdW  Elec       q    Type
REMARK                         _______ _______ _______ _____ _____    ______ ____
ROOT
ATOM      1  O   UNL     1      -3.401 -11.402  17.607  0.00  0.00    -0.365 OA
ATOM     10  C   UNL     1      -5.565 -10.418  17.731  0.00  0.00    +0.118 C 
ATOM     11  C   UNL     1      -4.645 -11.485  18.337  0.00  0.00    +0.155 C 
ATOM     12  C   UNL     1      -5.028 -10.265  16.316  0.00  0.00    +0.165 C 
ATOM     13  C   UNL     1      -3.532 -10.415  16.566  0.00  0.00    +0.174 C 
ENDROOT
BRANCH  10   5
ATOM      5  N   UNL     1      -6.992 -10.670  17.828  0.00  0.00    -0.292 NA
ATOM      6  N   UNL     1      -9.689 -10.127  18.596  0.00  0.00    -0.327 N 
ATOM     14  C   UNL     1      -7.750  -9.598  17.172  0.00  0.00    +0.104 C 
ATOM     15  C   UNL     1      -7.401 -10.781  19.234  0.00  0.00    +0.104 C 
ATOM     17  C   UNL     1      -9.254  -9.880  17.218  0.00  0.00    +0.120 C 
ATOM     18  C   UNL     1      -8.892 -11.104  19.349  0.00  0.00    +0.120 C 
BRANCH   6  20
ATOM     20  C   UNL     1     -11.039  -9.979  18.935  0.00  0.00    +0.030 A 
ATOM     22  C   UNL     1     -11.437 -10.064  20.270  0.00  0.00    +0.023 A 
ATOM     23  C   UNL     1     -11.986  -9.747  17.939  0.00  0.00    +0.023 A 
ATOM     25  C   UNL     1     -12.781  -9.916  20.607  0.00  0.00    +0.002 A 
ATOM     26  C   UNL     1     -13.331  -9.599  18.276  0.00  0.00    +0.002 A 
ATOM     27  C   UNL     1     -13.729  -9.684  19.611  0.00  0.00    +0.000 A 
ENDBRANCH   6  20
ENDBRANCH  10   5
BRANCH  12   2
ATOM      2  O   UNL     1      -5.494 -11.307  15.467  0.00  0.00    -0.388 OA
ATOM     31  H   UNL     1      -5.135 -11.145  14.579  0.00  0.00    +0.210 HD
ENDBRANCH  12   2
BRANCH  11  16
ATOM     16  C   UNL     1      -5.124 -12.931  18.249  0.00  0.00    +0.137 C 
BRANCH  16   7
ATOM      4  O   UNL     1      -6.113 -15.191  16.781  0.00  0.00    -0.270 OA
ATOM      7  N   UNL     1      -4.443 -13.638  17.207  0.00  0.00    -0.309 N 
ATOM     21  C   UNL     1      -5.000 -14.729  16.544  0.00  0.00    +0.247 C 
ATOM     32  H   UNL     1      -3.505 -13.335  16.966  0.00  0.00    +0.149 HD
BRANCH  21  24
ATOM      8  N   UNL     1      -3.222 -15.886  13.598  0.00  0.00    -0.274 N 
ATOM      9  N   UNL     1      -2.640 -16.729  14.467  0.00  0.00    -0.179 NA
ATOM     24  C   UNL     1      -4.156 -15.370  15.504  0.00  0.00    +0.074 A 
ATOM     28  C   UNL     1      -4.138 -15.051  14.169  0.00  0.00    +0.121 A 
ATOM     29  C   UNL     1      -3.214 -16.409  15.630  0.00  0.00    +0.147 A 
ATOM     30  C   UNL     1      -2.854 -15.926  12.203  0.00  0.00    +0.172 C 
ENDBRANCH  21  24
ENDBRANCH  16   7
ENDBRANCH  11  16
BRANCH  13  19
ATOM     19  C   UNL     1      -2.708 -10.842  15.364  0.00  0.00    +0.190 C 
BRANCH  19   3
ATOM      3  O   UNL     1      -2.513 -12.245  15.418  0.00  0.00    -0.392 OA
ATOM     33  H   UNL     1      -1.553 -12.400  15.447  0.00  0.00    +0.210 HD
ENDBRANCH  19   3
ENDBRANCH  13  19
TORSDOF 8
ENDMDL
MODEL 9
REMARK VINA RESULT:      -5.9     36.463     39.601
REMARK  Name = 51136975
REMARK  9 active torsions:
REMARK  status: ('A' for Active; 'I' for Inactive)
REMARK    1  A    between atoms: O_2  and  C_12
REMARK    2  A    between atoms: O_3  and  C_19
REMARK    3  A    between atoms: N_5  and  C_10
REMARK    4  A    between atoms: N_6  and  C_20
REMARK    5  A    between atoms: N_7  and  C_16
REMARK    6  A    between atoms: N_8  and  C_30
REMARK    7  A    between atoms: C_11  and  C_16
REMARK    8  A    between atoms: C_13  and  C_19
REMARK    9  A    between atoms: C_21  and  C_24
REMARK                            x       y       z     vdW  Elec       q    Type
REMARK                         _______ _______ _______ _____ _____    ______ ____
ROOT
ATOM      1  O   UNL     1      13.044   7.215   3.974  0.00  0.00    -0.365 OA
ATOM     10  C   UNL     1      13.008   6.654   1.660  0.00  0.00    +0.118 C 
ATOM     11  C   UNL     1      12.179   6.674   2.950  0.00  0.00    +0.155 C 
ATOM     12  C   UNL     1      14.438   6.566   2.173  0.00  0.00    +0.165 C 
ATOM     13  C   UNL     1      14.348   7.454   3.409  0.00  0.00    +0.174 C 
ENDROOT
BRANCH  10   5
ATOM      5  N   UNL     1      12.640   5.652   0.675  0.00  0.00    -0.292 NA
ATOM      6  N   UNL     1      11.739   4.696  -1.861  0.00  0.00    -0.327 N 
ATOM     14  C   UNL     1      13.507   5.748  -0.505  0.00  0.00    +0.104 C 
ATOM     15  C   UNL     1      11.236   5.811   0.279  0.00  0.00    +0.104 C 
ATOM     17  C   UNL     1      13.166   4.660  -1.527  0.00  0.00    +0.120 C 
ATOM     18  C   UNL     1      10.819   4.726  -0.715  0.00  0.00    +0.120 C 
BRANCH   6  20
ATOM     20  C   UNL     1      11.289   4.113  -3.050  0.00  0.00    +0.030 A 
ATOM     22  C   UNL     1       9.925   3.892  -3.248  0.00  0.00    +0.023 A 
ATOM     23  C   UNL     1      12.203   3.751  -4.038  0.00  0.00    +0.023 A 
ATOM     25  C   UNL     1       9.477   3.311  -4.433  0.00  0.00    +0.002 A 
ATOM     26  C   UNL     1      11.755   3.170  -5.225  0.00  0.00    +0.002 A 
ATOM     27  C   UNL     1      10.392   2.949  -5.422  0.00  0.00    +0.000 A 
ENDBRANCH   6  20
ENDBRANCH  10   5
BRANCH  12   2
ATOM      2  O   UNL     1      14.777   5.236   2.542  0.00  0.00    -0.388 OA
ATOM     31  H   UNL     1      14.501   4.649   1.818  0.00  0.00    +0.210 HD
ENDBRANCH  12   2
BRANCH  11  16
ATOM     16  C   UNL     1      11.667   5.329   3.456  0.00  0.00    +0.137 C 
BRANCH  16   7
ATOM      4  O   UNL     1       9.050   6.094   4.353  0.00  0.00    -0.270 OA
ATOM      7  N   UNL     1      11.223   5.424   4.813  0.00  0.00    -0.309 N 
ATOM     21  C   UNL     1       9.929   5.805   5.161  0.00  0.00    +0.247 C 
ATOM     32  H   UNL     1      11.897   5.225   5.546  0.00  0.00    +0.149 HD
BRANCH  21  24
ATOM      8  N   UNL     1       9.408   5.380   8.729  0.00  0.00    -0.274 N 
ATOM      9  N   UNL     1       8.984   6.654   8.663  0.00  0.00    -0.179 NA
ATOM     24  C   UNL     1       9.631   5.880   6.613  0.00  0.00    +0.074 A 
ATOM     28  C   UNL     1       9.806   4.870   7.527  0.00  0.00    +0.121 A 
ATOM     29  C   UNL     1       9.123   6.953   7.369  0.00  0.00    +0.147 A 
ATOM     30  C   UNL     1       9.409   4.688   9.995  0.00  0.00    +0.172 C 
ENDBRANCH  21  24
ENDBRANCH  16   7
ENDBRANCH  11  16
BRANCH  13  19
ATOM     19  C   UNL     1      15.406   7.206   4.469  0.00  0.00    +0.190 C 
BRANCH  19   3
ATOM      3  O   UNL     1      16.680   7.179   3.847  0.00  0.00    -0.392 OA
ATOM     33  H   UNL     1      16.536   7.315   2.895  0.00  0.00    +0.210 HD
ENDBRANCH  19   3
ENDBRANCH  13  19
TORSDOF 8
ENDMDL
MODEL 10
REMARK VINA RESULT:      -5.9     16.679     19.114
REMARK  Name = 51136975
REMARK  9 active torsions:
REMARK  status: ('A' for Active; 'I' for Inactive)
REMARK    1  A    between atoms: O_2  and  C_12
REMARK    2  A    between atoms: O_3  and  C_19
REMARK    3  A    between atoms: N_5  and  C_10
REMARK    4  A    between atoms: N_6  and  C_20
REMARK    5  A    between atoms: N_7  and  C_16
REMARK    6  A    between atoms: N_8  and  C_30
REMARK    7  A    between atoms: C_11  and  C_16
REMARK    8  A    between atoms: C_13  and  C_19
REMARK    9  A    between atoms: C_21  and  C_24
REMARK                            x       y       z     vdW  Elec       q    Type
REMARK                         _______ _______ _______ _____ _____    ______ ____
ROOT
ATOM      1  O   UNL     1      -6.031 -11.331  17.395  0.00  0.00    -0.365 OA
ATOM     10  C   UNL     1      -8.271 -11.530  18.179  0.00  0.00    +0.118 C 
ATOM     11  C   UNL     1      -7.386 -10.948  17.069  0.00  0.00    +0.155 C 
ATOM     12  C   UNL     1      -7.318 -11.629  19.361  0.00  0.00    +0.165 C 
ATOM     13  C   UNL     1      -6.032 -12.037  18.651  0.00  0.00    +0.174 C 
ENDROOT
BRANCH  10   5
ATOM      5  N   UNL     1      -9.515 -10.828  18.443  0.00  0.00    -0.292 NA
ATOM      6  N   UNL     1     -12.257 -10.578  19.204  0.00  0.00    -0.327 N 
ATOM     14  C   UNL     1      -9.915 -11.000  19.844  0.00  0.00    +0.104 C 
ATOM     15  C   UNL     1     -10.579 -11.315  17.556  0.00  0.00    +0.104 C 
ATOM     17  C   UNL     1     -11.196 -10.218  20.151  0.00  0.00    +0.120 C 
ATOM     18  C   UNL     1     -11.880 -10.544  17.785  0.00  0.00    +0.120 C 
BRANCH   6  20
ATOM     20  C   UNL     1     -13.594 -10.336  19.536  0.00  0.00    +0.030 A 
ATOM     22  C   UNL     1     -13.908  -9.507  20.614  0.00  0.00    +0.023 A 
ATOM     23  C   UNL     1     -14.614 -10.923  18.788  0.00  0.00    +0.023 A 
ATOM     25  C   UNL     1     -15.241  -9.266  20.944  0.00  0.00    +0.002 A 
ATOM     26  C   UNL     1     -15.948 -10.681  19.118  0.00  0.00    +0.002 A 
ATOM     27  C   UNL     1     -16.261  -9.853  20.196  0.00  0.00    +0.000 A 
ENDBRANCH   6  20
ENDBRANCH  10   5
BRANCH  12   2
ATOM      2  O   UNL     1      -7.152 -10.370  20.002  0.00  0.00    -0.388 OA
ATOM     31  H   UNL     1      -6.443  -9.895  19.537  0.00  0.00    +0.210 HD
ENDBRANCH  12   2
BRANCH  11  16
ATOM     16  C   UNL     1      -7.401  -9.431  16.908  0.00  0.00    +0.137 C 
BRANCH  16   7
ATOM      4  O   UNL     1      -9.574  -7.655  17.510  0.00  0.00    -0.270 OA
ATOM      7  N   UNL     1      -8.440  -9.017  16.014  0.00  0.00    -0.309 N 
ATOM     21  C   UNL     1      -9.460  -8.148  16.391  0.00  0.00    +0.247 C 
ATOM     32  H   UNL     1      -8.434  -9.401  15.073  0.00  0.00    +0.149 HD
BRANCH  21  24
ATOM      8  N   UNL     1     -11.998  -6.822  14.158  0.00  0.00    -0.274 N 
ATOM      9  N   UNL     1     -11.868  -8.013  13.550  0.00  0.00    -0.179 NA
ATOM     24  C   UNL     1     -10.477  -7.837  15.354  0.00  0.00    +0.074 A 
ATOM     28  C   UNL     1     -11.187  -6.667  15.245  0.00  0.00    +0.121 A 
ATOM     29  C   UNL     1     -10.937  -8.628  14.285  0.00  0.00    +0.147 A 
ATOM     30  C   UNL     1     -12.933  -5.851  13.643  0.00  0.00    +0.172 C 
ENDBRANCH  21  24
ENDBRANCH  16   7
ENDBRANCH  11  16
BRANCH  13  19
ATOM     19  C   UNL     1      -4.748 -11.729  19.399  0.00  0.00    +0.190 C 
BRANCH  19   3
ATOM      3  O   UNL     1      -3.778 -12.708  19.066  0.00  0.00    -0.392 OA
ATOM     33  H   UNL     1      -2.936 -12.241  18.923  0.00  0.00    +0.210 HD
ENDBRANCH  19   3
ENDBRANCH  13  19
TORSDOF 8
ENDMDL
