MODEL 1
REMARK VINA RESULT:      -7.7      0.000      0.000
REMARK  Name = 11884100
REMARK  9 active torsions:
REMARK  status: ('A' for Active; 'I' for Inactive)
REMARK    1  A    between atoms: O_3  and  C_12
REMARK    2  A    between atoms: O_3  and  C_16
REMARK    3  A    between atoms: N_6  and  C_11
REMARK    4  A    between atoms: N_7  and  C_17
REMARK    5  A    between atoms: N_8  and  C_18
REMARK    6  A    between atoms: C_17  and  C_23
REMARK    7  A    between atoms: C_19  and  C_20
REMARK    8  A    between atoms: C_19  and  C_26
REMARK    9  A    between atoms: C_19  and  C_27
REMARK                            x       y       z     vdW  Elec       q    Type
REMARK                         _______ _______ _______ _____ _____    ______ ____
ROOT
ATOM      1  O   UNL     1      13.607   9.281  20.571  0.00  0.00    -0.368 OA
ATOM      2  O   UNL     1      11.698   6.923  20.127  0.00  0.00    -0.368 OA
ATOM      9  C   UNL     1      12.158   7.566  21.333  0.00  0.00    +0.173 C 
ATOM     10  C   UNL     1      13.607   7.946  21.104  0.00  0.00    +0.192 C 
ATOM     11  C   UNL     1      11.459   8.894  21.512  0.00  0.00    +0.131 C 
ATOM     12  C   UNL     1      14.051   6.933  20.077  0.00  0.00    +0.235 C 
ATOM     13  C   UNL     1      12.273   9.810  20.614  0.00  0.00    +0.185 C 
ATOM     14  C   UNL     1      12.809   6.770  19.231  0.00  0.00    +0.207 C 
ENDROOT
BRANCH  11   6
ATOM      4  O   UNL     1      10.812  11.516  22.530  0.00  0.00    -0.253 OA
ATOM      6  N   UNL     1      11.507   9.329  22.887  0.00  0.00    -0.292 N 
ATOM      7  N   UNL     1      11.310  10.771  24.671  0.00  0.00    -0.300 N 
ATOM     15  C   UNL     1      11.176  10.621  23.292  0.00  0.00    +0.300 C 
ATOM     28  H   UNL     1      11.731   8.645  23.603  0.00  0.00    +0.151 HD
ATOM     29  H   UNL     1      11.608   9.972  25.221  0.00  0.00    +0.150 HD
BRANCH   7  17
ATOM     17  C   UNL     1      11.031  12.011  25.354  0.00  0.00    +0.102 C 
ATOM     23  C   UNL     1      12.276  12.863  25.490  0.00  0.00    +0.024 C 
ENDBRANCH   7  17
ENDBRANCH  11   6
BRANCH  12   3
ATOM      3  O   UNL     1      15.160   7.353  19.315  0.00  0.00    -0.442 OA
BRANCH   3  16
ATOM      5  O   UNL     1      16.464   5.608  18.617  0.00  0.00    -0.226 OA
ATOM      8  N   UNL     1      17.131   7.019  20.361  0.00  0.00    -0.251 N 
ATOM     16  C   UNL     1      16.289   6.560  19.367  0.00  0.00    +0.405 C 
ATOM     30  H   UNL     1      16.810   7.832  20.882  0.00  0.00    +0.158 HD
BRANCH   8  18
ATOM     18  C   UNL     1      18.386   6.498  20.747  0.00  0.00    +0.036 A 
ATOM     20  C   UNL     1      20.866   5.471  21.510  0.00  0.00    -0.045 A 
ATOM     21  C   UNL     1      19.032   7.001  21.878  0.00  0.00    +0.024 A 
ATOM     22  C   UNL     1      18.981   5.483  19.998  0.00  0.00    +0.024 A 
ATOM     24  C   UNL     1      20.272   6.487  22.259  0.00  0.00    +0.006 A 
ATOM     25  C   UNL     1      20.220   4.969  20.380  0.00  0.00    +0.006 A 
BRANCH  20  19
ATOM     19  C   UNL     1      22.191   4.921  21.919  0.00  0.00    +0.013 C 
ATOM     26  C   UNL     1      23.305   5.261  20.911  0.00  0.00    +0.012 C 
ATOM     27  C   UNL     1      22.149   3.400  22.158  0.00  0.00    +0.012 C 
ENDBRANCH  20  19
ENDBRANCH   8  18
ENDBRANCH   3  16
ENDBRANCH  12   3
TORSDOF 6
ENDMDL
MODEL 2
REMARK VINA RESULT:      -7.7     28.059     30.928
REMARK  Name = 11884100
REMARK  9 active torsions:
REMARK  status: ('A' for Active; 'I' for Inactive)
REMARK    1  A    between atoms: O_3  and  C_12
REMARK    2  A    between atoms: O_3  and  C_16
REMARK    3  A    between atoms: N_6  and  C_11
REMARK    4  A    between atoms: N_7  and  C_17
REMARK    5  A    between atoms: N_8  and  C_18
REMARK    6  A    between atoms: C_17  and  C_23
REMARK    7  A    between atoms: C_19  and  C_20
REMARK    8  A    between atoms: C_19  and  C_26
REMARK    9  A    between atoms: C_19  and  C_27
REMARK                            x       y       z     vdW  Elec       q    Type
REMARK                         _______ _______ _______ _____ _____    ______ ____
ROOT
ATOM      1  O   UNL     1     -16.678   5.060  25.138  0.00  0.00    -0.368 OA
ATOM      2  O   UNL     1     -16.847   2.113  24.305  0.00  0.00    -0.368 OA
ATOM      9  C   UNL     1     -15.886   2.824  25.113  0.00  0.00    +0.173 C 
ATOM     10  C   UNL     1     -15.723   4.198  24.495  0.00  0.00    +0.192 C 
ATOM     11  C   UNL     1     -16.467   3.108  26.479  0.00  0.00    +0.131 C 
ATOM     12  C   UNL     1     -16.078   3.949  23.049  0.00  0.00    +0.235 C 
ATOM     13  C   UNL     1     -17.298   4.354  26.223  0.00  0.00    +0.185 C 
ATOM     14  C   UNL     1     -17.178   2.917  23.163  0.00  0.00    +0.207 C 
ENDROOT
BRANCH  11   6
ATOM      4  O   UNL     1     -16.456   2.340  29.261  0.00  0.00    -0.253 OA
ATOM      6  N   UNL     1     -15.427   3.361  27.447  0.00  0.00    -0.292 N 
ATOM      7  N   UNL     1     -14.368   3.326  29.490  0.00  0.00    -0.300 N 
ATOM     15  C   UNL     1     -15.505   2.953  28.777  0.00  0.00    +0.300 C 
ATOM     28  H   UNL     1     -14.569   3.802  27.130  0.00  0.00    +0.151 HD
ATOM     29  H   UNL     1     -13.628   3.822  29.003  0.00  0.00    +0.150 HD
BRANCH   7  17
ATOM     17  C   UNL     1     -14.189   3.027  30.891  0.00  0.00    +0.102 C 
ATOM     23  C   UNL     1     -13.731   1.597  31.099  0.00  0.00    +0.024 C 
ENDBRANCH   7  17
ENDBRANCH  11   6
BRANCH  12   3
ATOM      3  O   UNL     1     -16.507   5.107  22.367  0.00  0.00    -0.442 OA
BRANCH   3  16
ATOM      5  O   UNL     1     -16.110   5.126  20.115  0.00  0.00    -0.226 OA
ATOM      8  N   UNL     1     -14.713   6.252  21.619  0.00  0.00    -0.251 N 
ATOM     16  C   UNL     1     -15.790   5.471  21.245  0.00  0.00    +0.405 C 
ATOM     30  H   UNL     1     -14.613   6.433  22.614  0.00  0.00    +0.158 HD
BRANCH   8  18
ATOM     18  C   UNL     1     -13.730   6.832  20.786  0.00  0.00    +0.036 A 
ATOM     20  C   UNL     1     -11.789   7.978  19.142  0.00  0.00    -0.045 A 
ATOM     21  C   UNL     1     -14.113   7.615  19.696  0.00  0.00    +0.024 A 
ATOM     22  C   UNL     1     -12.377   6.622  21.054  0.00  0.00    +0.024 A 
ATOM     24  C   UNL     1     -13.142   8.188  18.874  0.00  0.00    +0.006 A 
ATOM     25  C   UNL     1     -11.407   7.196  20.232  0.00  0.00    +0.006 A 
BRANCH  20  19
ATOM     19  C   UNL     1     -10.752   8.592  18.263  0.00  0.00    +0.013 C 
ATOM     26  C   UNL     1     -10.267   9.956  18.788  0.00  0.00    +0.012 C 
ATOM     27  C   UNL     1     -11.224   8.731  16.803  0.00  0.00    +0.012 C 
ENDBRANCH  20  19
ENDBRANCH   8  18
ENDBRANCH   3  16
ENDBRANCH  12   3
TORSDOF 6
ENDMDL
MODEL 3
REMARK VINA RESULT:      -7.6      1.621      2.515
REMARK  Name = 11884100
REMARK  9 active torsions:
REMARK  status: ('A' for Active; 'I' for Inactive)
REMARK    1  A    between atoms: O_3  and  C_12
REMARK    2  A    between atoms: O_3  and  C_16
REMARK    3  A    between atoms: N_6  and  C_11
REMARK    4  A    between atoms: N_7  and  C_17
REMARK    5  A    between atoms: N_8  and  C_18
REMARK    6  A    between atoms: C_17  and  C_23
REMARK    7  A    between atoms: C_19  and  C_20
REMARK    8  A    between atoms: C_19  and  C_26
REMARK    9  A    between atoms: C_19  and  C_27
REMARK                            x       y       z     vdW  Elec       q    Type
REMARK                         _______ _______ _______ _____ _____    ______ ____
ROOT
ATOM      1  O   UNL     1      12.277  10.093  20.982  0.00  0.00    -0.368 OA
ATOM      2  O   UNL     1      10.396   7.987  22.180  0.00  0.00    -0.368 OA
ATOM      9  C   UNL     1      11.466   8.758  22.766  0.00  0.00    +0.173 C 
ATOM     10  C   UNL     1      12.546   8.884  21.712  0.00  0.00    +0.192 C 
ATOM     11  C   UNL     1      11.014  10.182  22.994  0.00  0.00    +0.131 C 
ATOM     12  C   UNL     1      12.320   7.656  20.864  0.00  0.00    +0.235 C 
ATOM     13  C   UNL     1      11.206  10.805  21.622  0.00  0.00    +0.185 C 
ATOM     14  C   UNL     1      10.813   7.527  20.886  0.00  0.00    +0.207 C 
ENDROOT
BRANCH  11   6
ATOM      4  O   UNL     1      10.333  12.523  24.539  0.00  0.00    -0.253 OA
ATOM      6  N   UNL     1      11.831  10.837  23.987  0.00  0.00    -0.292 N 
ATOM      7  N   UNL     1      12.401  12.395  25.583  0.00  0.00    -0.300 N 
ATOM     15  C   UNL     1      11.421  11.970  24.689  0.00  0.00    +0.300 C 
ATOM     28  H   UNL     1      12.722  10.417  24.233  0.00  0.00    +0.151 HD
ATOM     29  H   UNL     1      13.267  11.868  25.645  0.00  0.00    +0.150 HD
BRANCH   7  17
ATOM     17  C   UNL     1      12.235  13.547  26.436  0.00  0.00    +0.102 C 
ATOM     23  C   UNL     1      12.799  14.799  25.794  0.00  0.00    +0.024 C 
ENDBRANCH   7  17
ENDBRANCH  11   6
BRANCH  12   3
ATOM      3  O   UNL     1      12.822   7.778  19.552  0.00  0.00    -0.442 OA
BRANCH   3  16
ATOM      5  O   UNL     1      14.684   8.852  18.773  0.00  0.00    -0.226 OA
ATOM      8  N   UNL     1      14.840   6.937  20.110  0.00  0.00    -0.251 N 
ATOM     16  C   UNL     1      14.186   7.939  19.418  0.00  0.00    +0.405 C 
ATOM     30  H   UNL     1      14.249   6.263  20.590  0.00  0.00    +0.158 HD
BRANCH   8  18
ATOM     18  C   UNL     1      16.232   6.731  20.233  0.00  0.00    +0.036 A 
ATOM     20  C   UNL     1      18.981   6.323  20.475  0.00  0.00    -0.045 A 
ATOM     21  C   UNL     1      16.896   5.898  19.331  0.00  0.00    +0.024 A 
ATOM     22  C   UNL     1      16.942   7.359  21.256  0.00  0.00    +0.024 A 
ATOM     24  C   UNL     1      18.271   5.694  19.453  0.00  0.00    +0.006 A 
ATOM     25  C   UNL     1      18.317   7.155  21.377  0.00  0.00    +0.006 A 
BRANCH  20  19
ATOM     19  C   UNL     1      20.451   6.105  20.604  0.00  0.00    +0.013 C 
ATOM     26  C   UNL     1      20.840   4.620  20.480  0.00  0.00    +0.012 C 
ATOM     27  C   UNL     1      21.020   6.686  21.913  0.00  0.00    +0.012 C 
ENDBRANCH  20  19
ENDBRANCH   8  18
ENDBRANCH   3  16
ENDBRANCH  12   3
TORSDOF 6
ENDMDL
MODEL 4
REMARK VINA RESULT:      -7.0     27.629     29.999
REMARK  Name = 11884100
REMARK  9 active torsions:
REMARK  status: ('A' for Active; 'I' for Inactive)
REMARK    1  A    between atoms: O_3  and  C_12
REMARK    2  A    between atoms: O_3  and  C_16
REMARK    3  A    between atoms: N_6  and  C_11
REMARK    4  A    between atoms: N_7  and  C_17
REMARK    5  A    between atoms: N_8  and  C_18
REMARK    6  A    between atoms: C_17  and  C_23
REMARK    7  A    between atoms: C_19  and  C_20
REMARK    8  A    between atoms: C_19  and  C_26
REMARK    9  A    between atoms: C_19  and  C_27
REMARK                            x       y       z     vdW  Elec       q    Type
REMARK                         _______ _______ _______ _____ _____    ______ ____
ROOT
ATOM      1  O   UNL     1     -10.030  -8.782  14.941  0.00  0.00    -0.368 OA
ATOM      2  O   UNL     1     -11.187  -8.272  17.735  0.00  0.00    -0.368 OA
ATOM      9  C   UNL     1     -10.688  -7.368  16.727  0.00  0.00    +0.173 C 
ATOM     10  C   UNL     1      -9.510  -8.054  16.066  0.00  0.00    +0.192 C 
ATOM     11  C   UNL     1     -11.698  -7.227  15.611  0.00  0.00    +0.131 C 
ATOM     12  C   UNL     1      -9.018  -8.979  17.153  0.00  0.00    +0.235 C 
ATOM     13  C   UNL     1     -11.418  -8.457  14.765  0.00  0.00    +0.185 C 
ATOM     14  C   UNL     1     -10.308  -9.404  17.818  0.00  0.00    +0.207 C 
ENDROOT
BRANCH  11   6
ATOM      4  O   UNL     1     -13.531  -5.971  13.769  0.00  0.00    -0.253 OA
ATOM      6  N   UNL     1     -11.482  -6.013  14.861  0.00  0.00    -0.292 N 
ATOM      7  N   UNL     1     -11.960  -4.304  13.396  0.00  0.00    -0.300 N 
ATOM     15  C   UNL     1     -12.426  -5.475  13.988  0.00  0.00    +0.300 C 
ATOM     28  H   UNL     1     -10.626  -5.491  15.023  0.00  0.00    +0.151 HD
ATOM     29  H   UNL     1     -11.036  -3.965  13.646  0.00  0.00    +0.150 HD
BRANCH   7  17
ATOM     17  C   UNL     1     -12.739  -3.542  12.449  0.00  0.00    +0.102 C 
ATOM     23  C   UNL     1     -12.147  -3.614  11.057  0.00  0.00    +0.024 C 
ENDBRANCH   7  17
ENDBRANCH  11   6
BRANCH  12   3
ATOM      3  O   UNL     1      -8.285 -10.080  16.666  0.00  0.00    -0.442 OA
BRANCH   3  16
ATOM      5  O   UNL     1      -6.158  -9.257  16.504  0.00  0.00    -0.226 OA
ATOM      8  N   UNL     1      -7.244 -10.225  14.670  0.00  0.00    -0.251 N 
ATOM     16  C   UNL     1      -7.121  -9.800  15.979  0.00  0.00    +0.405 C 
ATOM     30  H   UNL     1      -8.129 -10.659  14.419  0.00  0.00    +0.158 HD
BRANCH   8  18
ATOM     18  C   UNL     1      -6.290 -10.131  13.632  0.00  0.00    +0.036 A 
ATOM     20  C   UNL     1      -4.405  -9.946  11.584  0.00  0.00    -0.045 A 
ATOM     21  C   UNL     1      -5.088 -10.834  13.724  0.00  0.00    +0.024 A 
ATOM     22  C   UNL     1      -6.549  -9.335  12.516  0.00  0.00    +0.024 A 
ATOM     24  C   UNL     1      -4.146 -10.741  12.700  0.00  0.00    +0.006 A 
ATOM     25  C   UNL     1      -5.607  -9.243  11.492  0.00  0.00    +0.006 A 
BRANCH  20  19
ATOM     19  C   UNL     1      -3.397  -9.848  10.488  0.00  0.00    +0.013 C 
ATOM     26  C   UNL     1      -2.009  -9.423  11.001  0.00  0.00    +0.012 C 
ATOM     27  C   UNL     1      -3.848  -8.905   9.356  0.00  0.00    +0.012 C 
ENDBRANCH  20  19
ENDBRANCH   8  18
ENDBRANCH   3  16
ENDBRANCH  12   3
TORSDOF 6
ENDMDL
MODEL 5
REMARK VINA RESULT:      -7.0     26.858     29.223
REMARK  Name = 11884100
REMARK  9 active torsions:
REMARK  status: ('A' for Active; 'I' for Inactive)
REMARK    1  A    between atoms: O_3  and  C_12
REMARK    2  A    between atoms: O_3  and  C_16
REMARK    3  A    between atoms: N_6  and  C_11
REMARK    4  A    between atoms: N_7  and  C_17
REMARK    5  A    between atoms: N_8  and  C_18
REMARK    6  A    between atoms: C_17  and  C_23
REMARK    7  A    between atoms: C_19  and  C_20
REMARK    8  A    between atoms: C_19  and  C_26
REMARK    9  A    between atoms: C_19  and  C_27
REMARK                            x       y       z     vdW  Elec       q    Type
REMARK                         _______ _______ _______ _____ _____    ______ ____
ROOT
ATOM      1  O   UNL     1      -7.597 -11.127  16.803  0.00  0.00    -0.368 OA
ATOM      2  O   UNL     1      -8.119 -11.593  19.789  0.00  0.00    -0.368 OA
ATOM      9  C   UNL     1      -8.002 -10.379  19.017  0.00  0.00    +0.173 C 
ATOM     10  C   UNL     1      -6.931 -10.624  17.974  0.00  0.00    +0.192 C 
ATOM     11  C   UNL     1      -9.256 -10.159  18.204  0.00  0.00    +0.131 C 
ATOM     12  C   UNL     1      -6.074 -11.681  18.627  0.00  0.00    +0.235 C 
ATOM     13  C   UNL     1      -9.018 -11.049  16.996  0.00  0.00    +0.185 C 
ATOM     14  C   UNL     1      -7.099 -12.510  19.368  0.00  0.00    +0.207 C 
ENDROOT
BRANCH  11   6
ATOM      4  O   UNL     1     -11.593  -8.888  17.082  0.00  0.00    -0.253 OA
ATOM      6  N   UNL     1      -9.393  -8.776  17.818  0.00  0.00    -0.292 N 
ATOM      7  N   UNL     1     -10.421  -6.887  16.997  0.00  0.00    -0.300 N 
ATOM     15  C   UNL     1     -10.564  -8.243  17.280  0.00  0.00    +0.300 C 
ATOM     28  H   UNL     1      -8.621  -8.144  18.003  0.00  0.00    +0.151 HD
ATOM     29  H   UNL     1      -9.536  -6.436  17.203  0.00  0.00    +0.150 HD
BRANCH   7  17
ATOM     17  C   UNL     1     -11.484  -6.090  16.432  0.00  0.00    +0.102 C 
ATOM     23  C   UNL     1     -11.387  -6.025  14.921  0.00  0.00    +0.024 C 
ENDBRANCH   7  17
ENDBRANCH  11   6
BRANCH  12   3
ATOM      3  O   UNL     1      -5.332 -12.451  17.709  0.00  0.00    -0.442 OA
BRANCH   3  16
ATOM      5  O   UNL     1      -3.536 -11.102  17.279  0.00  0.00    -0.226 OA
ATOM      8  N   UNL     1      -4.865 -11.967  15.556  0.00  0.00    -0.251 N 
ATOM     16  C   UNL     1      -4.478 -11.768  16.867  0.00  0.00    +0.405 C 
ATOM     30  H   UNL     1      -5.680 -12.558  15.412  0.00  0.00    +0.158 HD
BRANCH   8  18
ATOM     18  C   UNL     1      -4.266 -11.450  14.385  0.00  0.00    +0.036 A 
ATOM     20  C   UNL     1      -3.084 -10.429  12.073  0.00  0.00    -0.045 A 
ATOM     21  C   UNL     1      -2.937 -11.753  14.089  0.00  0.00    +0.024 A 
ATOM     22  C   UNL     1      -5.005 -10.636  13.525  0.00  0.00    +0.024 A 
ATOM     24  C   UNL     1      -2.346 -11.242  12.933  0.00  0.00    +0.006 A 
ATOM     25  C   UNL     1      -4.413 -10.126  12.369  0.00  0.00    +0.006 A 
BRANCH  20  19
ATOM     19  C   UNL     1      -2.452  -9.884  10.837  0.00  0.00    +0.013 C 
ATOM     26  C   UNL     1      -1.164  -9.092  11.133  0.00  0.00    +0.012 C 
ATOM     27  C   UNL     1      -3.422  -9.015  10.013  0.00  0.00    +0.012 C 
ENDBRANCH  20  19
ENDBRANCH   8  18
ENDBRANCH   3  16
ENDBRANCH  12   3
TORSDOF 6
ENDMDL
MODEL 6
REMARK VINA RESULT:      -7.0     27.631     29.543
REMARK  Name = 11884100
REMARK  9 active torsions:
REMARK  status: ('A' for Active; 'I' for Inactive)
REMARK    1  A    between atoms: O_3  and  C_12
REMARK    2  A    between atoms: O_3  and  C_16
REMARK    3  A    between atoms: N_6  and  C_11
REMARK    4  A    between atoms: N_7  and  C_17
REMARK    5  A    between atoms: N_8  and  C_18
REMARK    6  A    between atoms: C_17  and  C_23
REMARK    7  A    between atoms: C_19  and  C_20
REMARK    8  A    between atoms: C_19  and  C_26
REMARK    9  A    between atoms: C_19  and  C_27
REMARK                            x       y       z     vdW  Elec       q    Type
REMARK                         _______ _______ _______ _____ _____    ______ ____
ROOT
ATOM      1  O   UNL     1      -6.397 -12.130  17.502  0.00  0.00    -0.368 OA
ATOM      2  O   UNL     1      -4.994 -11.738  20.201  0.00  0.00    -0.368 OA
ATOM      9  C   UNL     1      -5.998 -10.955  19.523  0.00  0.00    +0.173 C 
ATOM     10  C   UNL     1      -5.675 -11.011  18.044  0.00  0.00    +0.192 C 
ATOM     11  C   UNL     1      -7.343 -11.635  19.626  0.00  0.00    +0.131 C 
ATOM     12  C   UNL     1      -4.185 -11.254  18.044  0.00  0.00    +0.235 C 
ATOM     13  C   UNL     1      -7.272 -12.662  18.509  0.00  0.00    +0.185 C 
ATOM     14  C   UNL     1      -4.009 -12.157  19.244  0.00  0.00    +0.207 C 
ENDROOT
BRANCH  11   6
ATOM      4  O   UNL     1     -10.112 -11.967  20.370  0.00  0.00    -0.253 OA
ATOM      6  N   UNL     1      -8.420 -10.699  19.411  0.00  0.00    -0.292 N 
ATOM      7  N   UNL     1     -10.569  -9.876  19.474  0.00  0.00    -0.300 N 
ATOM     15  C   UNL     1      -9.735 -10.942  19.804  0.00  0.00    +0.300 C 
ATOM     28  H   UNL     1      -8.199  -9.792  19.010  0.00  0.00    +0.151 HD
ATOM     29  H   UNL     1     -10.165  -9.065  19.015  0.00  0.00    +0.150 HD
BRANCH   7  17
ATOM     17  C   UNL     1     -11.982  -9.867  19.768  0.00  0.00    +0.102 C 
ATOM     23  C   UNL     1     -12.807  -9.624  18.521  0.00  0.00    +0.024 C 
ENDBRANCH   7  17
ENDBRANCH  11   6
BRANCH  12   3
ATOM      3  O   UNL     1      -3.712 -11.851  16.858  0.00  0.00    -0.442 OA
BRANCH   3  16
ATOM      5  O   UNL     1      -2.557 -10.223  15.742  0.00  0.00    -0.226 OA
ATOM      8  N   UNL     1      -4.461 -11.227  14.823  0.00  0.00    -0.251 N 
ATOM     16  C   UNL     1      -3.490 -11.014  15.783  0.00  0.00    +0.405 C 
ATOM     30  H   UNL     1      -5.160 -11.934  15.040  0.00  0.00    +0.158 HD
BRANCH   8  18
ATOM     18  C   UNL     1      -4.605 -10.584  13.574  0.00  0.00    +0.036 A 
ATOM     20  C   UNL     1      -4.891  -9.313  11.107  0.00  0.00    -0.045 A 
ATOM     21  C   UNL     1      -5.797  -9.930  13.260  0.00  0.00    +0.024 A 
ATOM     22  C   UNL     1      -3.557 -10.603  12.654  0.00  0.00    +0.024 A 
ATOM     24  C   UNL     1      -5.940  -9.295  12.026  0.00  0.00    +0.006 A 
ATOM     25  C   UNL     1      -3.699  -9.967  11.421  0.00  0.00    +0.006 A 
BRANCH  20  19
ATOM     19  C   UNL     1      -5.044  -8.633   9.788  0.00  0.00    +0.013 C 
ATOM     26  C   UNL     1      -6.508  -8.266   9.480  0.00  0.00    +0.012 C 
ATOM     27  C   UNL     1      -4.457  -9.460   8.627  0.00  0.00    +0.012 C 
ENDBRANCH  20  19
ENDBRANCH   8  18
ENDBRANCH   3  16
ENDBRANCH  12   3
TORSDOF 6
ENDMDL
MODEL 7
REMARK VINA RESULT:      -6.9     26.978     29.917
REMARK  Name = 11884100
REMARK  9 active torsions:
REMARK  status: ('A' for Active; 'I' for Inactive)
REMARK    1  A    between atoms: O_3  and  C_12
REMARK    2  A    between atoms: O_3  and  C_16
REMARK    3  A    between atoms: N_6  and  C_11
REMARK    4  A    between atoms: N_7  and  C_17
REMARK    5  A    between atoms: N_8  and  C_18
REMARK    6  A    between atoms: C_17  and  C_23
REMARK    7  A    between atoms: C_19  and  C_20
REMARK    8  A    between atoms: C_19  and  C_26
REMARK    9  A    between atoms: C_19  and  C_27
REMARK                            x       y       z     vdW  Elec       q    Type
REMARK                         _______ _______ _______ _____ _____    ______ ____
ROOT
ATOM      1  O   UNL     1     -11.825  -8.607  14.924  0.00  0.00    -0.368 OA
ATOM      2  O   UNL     1     -11.015  -6.135  16.547  0.00  0.00    -0.368 OA
ATOM      9  C   UNL     1     -10.976  -6.403  15.130  0.00  0.00    +0.173 C 
ATOM     10  C   UNL     1     -10.597  -7.861  14.968  0.00  0.00    +0.192 C 
ATOM     11  C   UNL     1     -12.368  -6.324  14.549  0.00  0.00    +0.131 C 
ATOM     12  C   UNL     1      -9.819  -8.138  16.232  0.00  0.00    +0.235 C 
ATOM     13  C   UNL     1     -12.933  -7.695  14.877  0.00  0.00    +0.185 C 
ATOM     14  C   UNL     1     -10.557  -7.299  17.251  0.00  0.00    +0.207 C 
ENDROOT
BRANCH  11   6
ATOM      4  O   UNL     1     -12.488  -3.783  13.183  0.00  0.00    -0.253 OA
ATOM      6  N   UNL     1     -12.328  -6.099  13.124  0.00  0.00    -0.292 N 
ATOM      7  N   UNL     1     -12.335  -4.903  11.157  0.00  0.00    -0.300 N 
ATOM     15  C   UNL     1     -12.393  -4.832  12.547  0.00  0.00    +0.300 C 
ATOM     28  H   UNL     1     -12.182  -6.897  12.513  0.00  0.00    +0.151 HD
ATOM     29  H   UNL     1     -12.246  -5.815  10.719  0.00  0.00    +0.150 HD
BRANCH   7  17
ATOM     17  C   UNL     1     -12.382  -3.735  10.311  0.00  0.00    +0.102 C 
ATOM     23  C   UNL     1     -11.124  -3.603   9.476  0.00  0.00    +0.024 C 
ENDBRANCH   7  17
ENDBRANCH  11   6
BRANCH  12   3
ATOM      3  O   UNL     1      -9.792  -9.502  16.589  0.00  0.00    -0.442 OA
BRANCH   3  16
ATOM      5  O   UNL     1      -8.814 -11.293  15.557  0.00  0.00    -0.226 OA
ATOM      8  N   UNL     1      -7.539  -9.590  16.532  0.00  0.00    -0.251 N 
ATOM     16  C   UNL     1      -8.703 -10.236  16.165  0.00  0.00    +0.405 C 
ATOM     30  H   UNL     1      -7.651  -8.713  17.035  0.00  0.00    +0.158 HD
BRANCH   8  18
ATOM     18  C   UNL     1      -6.206  -9.996  16.296  0.00  0.00    +0.036 A 
ATOM     20  C   UNL     1      -3.575 -10.799  15.830  0.00  0.00    -0.045 A 
ATOM     21  C   UNL     1      -5.386 -10.353  17.366  0.00  0.00    +0.024 A 
ATOM     22  C   UNL     1      -5.711 -10.040  14.992  0.00  0.00    +0.024 A 
ATOM     24  C   UNL     1      -4.070 -10.755  17.133  0.00  0.00    +0.006 A 
ATOM     25  C   UNL     1      -4.396 -10.442  14.759  0.00  0.00    +0.006 A 
BRANCH  20  19
ATOM     19  C   UNL     1      -2.169 -11.229  15.580  0.00  0.00    +0.013 C 
ATOM     26  C   UNL     1      -1.191 -10.040  15.526  0.00  0.00    +0.012 C 
ATOM     27  C   UNL     1      -2.030 -12.079  14.303  0.00  0.00    +0.012 C 
ENDBRANCH  20  19
ENDBRANCH   8  18
ENDBRANCH   3  16
ENDBRANCH  12   3
TORSDOF 6
ENDMDL
MODEL 8
REMARK VINA RESULT:      -6.9     28.212     31.069
REMARK  Name = 11884100
REMARK  9 active torsions:
REMARK  status: ('A' for Active; 'I' for Inactive)
REMARK    1  A    between atoms: O_3  and  C_12
REMARK    2  A    between atoms: O_3  and  C_16
REMARK    3  A    between atoms: N_6  and  C_11
REMARK    4  A    between atoms: N_7  and  C_17
REMARK    5  A    between atoms: N_8  and  C_18
REMARK    6  A    between atoms: C_17  and  C_23
REMARK    7  A    between atoms: C_19  and  C_20
REMARK    8  A    between atoms: C_19  and  C_26
REMARK    9  A    between atoms: C_19  and  C_27
REMARK                            x       y       z     vdW  Elec       q    Type
REMARK                         _______ _______ _______ _____ _____    ______ ____
ROOT
ATOM      1  O   UNL     1      -6.815 -12.070  17.114  0.00  0.00    -0.368 OA
ATOM      2  O   UNL     1      -5.207 -10.416  19.134  0.00  0.00    -0.368 OA
ATOM      9  C   UNL     1      -4.866 -11.597  18.380  0.00  0.00    +0.173 C 
ATOM     10  C   UNL     1      -6.116 -12.451  18.312  0.00  0.00    +0.192 C 
ATOM     11  C   UNL     1      -4.597 -11.233  16.938  0.00  0.00    +0.131 C 
ATOM     12  C   UNL     1      -6.865 -12.033  19.554  0.00  0.00    +0.235 C 
ATOM     13  C   UNL     1      -5.999 -11.164  16.356  0.00  0.00    +0.185 C 
ATOM     14  C   UNL     1      -6.542 -10.558  19.640  0.00  0.00    +0.207 C 
ENDROOT
BRANCH  11   6
ATOM      4  O   UNL     1      -3.261 -11.014  14.388  0.00  0.00    -0.253 OA
ATOM      6  N   UNL     1      -3.805 -12.244  16.282  0.00  0.00    -0.292 N 
ATOM      7  N   UNL     1      -2.493 -13.189  14.643  0.00  0.00    -0.300 N 
ATOM     15  C   UNL     1      -3.193 -12.053  15.044  0.00  0.00    +0.300 C 
ATOM     28  H   UNL     1      -3.632 -13.116  16.772  0.00  0.00    +0.151 HD
ATOM     29  H   UNL     1      -2.485 -13.999  15.255  0.00  0.00    +0.150 HD
BRANCH   7  17
ATOM     17  C   UNL     1      -1.767 -13.261  13.398  0.00  0.00    +0.102 C 
ATOM     23  C   UNL     1      -2.538 -14.037  12.350  0.00  0.00    +0.024 C 
ENDBRANCH   7  17
ENDBRANCH  11   6
BRANCH  12   3
ATOM      3  O   UNL     1      -8.253 -12.268  19.480  0.00  0.00    -0.442 OA
BRANCH   3  16
ATOM      5  O   UNL     1      -9.572 -10.647  20.407  0.00  0.00    -0.226 OA
ATOM      8  N   UNL     1      -9.206 -10.762  18.098  0.00  0.00    -0.251 N 
ATOM     16  C   UNL     1      -9.071 -11.159  19.415  0.00  0.00    +0.405 C 
ATOM     30  H   UNL     1      -8.708 -11.317  17.408  0.00  0.00    +0.158 HD
BRANCH   8  18
ATOM     18  C   UNL     1      -9.954  -9.676  17.590  0.00  0.00    +0.036 A 
ATOM     20  C   UNL     1     -11.430  -7.532  16.586  0.00  0.00    -0.045 A 
ATOM     21  C   UNL     1     -11.347  -9.697  17.655  0.00  0.00    +0.024 A 
ATOM     22  C   UNL     1      -9.298  -8.583  17.022  0.00  0.00    +0.024 A 
ATOM     24  C   UNL     1     -12.085  -8.624  17.153  0.00  0.00    +0.006 A 
ATOM     25  C   UNL     1     -10.036  -7.511  16.521  0.00  0.00    +0.006 A 
BRANCH  20  19
ATOM     19  C   UNL     1     -12.220  -6.385  16.050  0.00  0.00    +0.013 C 
ATOM     26  C   UNL     1     -13.669  -6.778  15.706  0.00  0.00    +0.012 C 
ATOM     27  C   UNL     1     -11.550  -5.730  14.827  0.00  0.00    +0.012 C 
ENDBRANCH  20  19
ENDBRANCH   8  18
ENDBRANCH   3  16
ENDBRANCH  12   3
TORSDOF 6
ENDMDL
MODEL 9
REMARK VINA RESULT:      -6.6     26.963     29.720
REMARK  Name = 11884100
REMARK  9 active torsions:
REMARK  status: ('A' for Active; 'I' for Inactive)
REMARK    1  A    between atoms: O_3  and  C_12
REMARK    2  A    between atoms: O_3  and  C_16
REMARK    3  A    between atoms: N_6  and  C_11
REMARK    4  A    between atoms: N_7  and  C_17
REMARK    5  A    between atoms: N_8  and  C_18
REMARK    6  A    between atoms: C_17  and  C_23
REMARK    7  A    between atoms: C_19  and  C_20
REMARK    8  A    between atoms: C_19  and  C_26
REMARK    9  A    between atoms: C_19  and  C_27
REMARK                            x       y       z     vdW  Elec       q    Type
REMARK                         _______ _______ _______ _____ _____    ______ ____
ROOT
ATOM      1  O   UNL     1      -7.604 -13.222  18.514  0.00  0.00    -0.368 OA
ATOM      2  O   UNL     1      -7.062 -10.646  20.088  0.00  0.00    -0.368 OA
ATOM      9  C   UNL     1      -7.986 -10.936  19.018  0.00  0.00    +0.173 C 
ATOM     10  C   UNL     1      -7.282 -11.891  18.076  0.00  0.00    +0.192 C 
ATOM     11  C   UNL     1      -9.152 -11.741  19.545  0.00  0.00    +0.131 C 
ATOM     12  C   UNL     1      -5.826 -11.564  18.306  0.00  0.00    +0.235 C 
ATOM     13  C   UNL     1      -8.591 -13.152  19.555  0.00  0.00    +0.185 C 
ATOM     14  C   UNL     1      -5.799 -11.258  19.787  0.00  0.00    +0.207 C 
ENDROOT
BRANCH  11   6
ATOM      4  O   UNL     1     -11.253  -9.765  19.659  0.00  0.00    -0.253 OA
ATOM      6  N   UNL     1     -10.296 -11.636  18.671  0.00  0.00    -0.292 N 
ATOM      7  N   UNL     1     -12.258 -10.778  17.829  0.00  0.00    -0.300 N 
ATOM     15  C   UNL     1     -11.268 -10.646  18.799  0.00  0.00    +0.300 C 
ATOM     28  H   UNL     1     -10.365 -12.277  17.887  0.00  0.00    +0.151 HD
ATOM     29  H   UNL     1     -12.182 -11.532  17.154  0.00  0.00    +0.150 HD
BRANCH   7  17
ATOM     17  C   UNL     1     -13.386  -9.882  17.734  0.00  0.00    +0.102 C 
ATOM     23  C   UNL     1     -13.106  -8.737  16.782  0.00  0.00    +0.024 C 
ENDBRANCH   7  17
ENDBRANCH  11   6
BRANCH  12   3
ATOM      3  O   UNL     1      -4.952 -12.615  17.966  0.00  0.00    -0.442 OA
BRANCH   3  16
ATOM      5  O   UNL     1      -4.524 -13.726  16.013  0.00  0.00    -0.226 OA
ATOM      8  N   UNL     1      -4.165 -11.422  16.220  0.00  0.00    -0.251 N 
ATOM     16  C   UNL     1      -4.537 -12.681  16.651  0.00  0.00    +0.405 C 
ATOM     30  H   UNL     1      -4.248 -10.671  16.901  0.00  0.00    +0.158 HD
BRANCH   8  18
ATOM     18  C   UNL     1      -3.682 -11.046  14.947  0.00  0.00    +0.036 A 
ATOM     20  C   UNL     1      -2.728 -10.303  12.433  0.00  0.00    -0.045 A 
ATOM     21  C   UNL     1      -2.309 -11.030  14.698  0.00  0.00    +0.024 A 
ATOM     22  C   UNL     1      -4.578 -10.691  13.938  0.00  0.00    +0.024 A 
ATOM     24  C   UNL     1      -1.832 -10.658  13.441  0.00  0.00    +0.006 A 
ATOM     25  C   UNL     1      -4.101 -10.320  12.681  0.00  0.00    +0.006 A 
BRANCH  20  19
ATOM     19  C   UNL     1      -2.217  -9.907  11.088  0.00  0.00    +0.013 C 
ATOM     26  C   UNL     1      -0.935  -9.057  11.172  0.00  0.00    +0.012 C 
ATOM     27  C   UNL     1      -3.279  -9.171  10.249  0.00  0.00    +0.012 C 
ENDBRANCH  20  19
ENDBRANCH   8  18
ENDBRANCH   3  16
ENDBRANCH  12   3
TORSDOF 6
ENDMDL
MODEL 10
REMARK VINA RESULT:      -6.6     26.893     29.422
REMARK  Name = 11884100
REMARK  9 active torsions:
REMARK  status: ('A' for Active; 'I' for Inactive)
REMARK    1  A    between atoms: O_3  and  C_12
REMARK    2  A    between atoms: O_3  and  C_16
REMARK    3  A    between atoms: N_6  and  C_11
REMARK    4  A    between atoms: N_7  and  C_17
REMARK    5  A    between atoms: N_8  and  C_18
REMARK    6  A    between atoms: C_17  and  C_23
REMARK    7  A    between atoms: C_19  and  C_20
REMARK    8  A    between atoms: C_19  and  C_26
REMARK    9  A    between atoms: C_19  and  C_27
REMARK                            x       y       z     vdW  Elec       q    Type
REMARK                         _______ _______ _______ _____ _____    ______ ____
ROOT
ATOM      1  O   UNL     1      -4.196 -12.180  14.383  0.00  0.00    -0.368 OA
ATOM      2  O   UNL     1      -2.722 -10.732  16.649  0.00  0.00    -0.368 OA
ATOM      9  C   UNL     1      -3.997 -10.479  16.023  0.00  0.00    +0.173 C 
ATOM     10  C   UNL     1      -3.835 -10.798  14.551  0.00  0.00    +0.192 C 
ATOM     11  C   UNL     1      -5.018 -11.484  16.502  0.00  0.00    +0.131 C 
ATOM     12  C   UNL     1      -2.359 -10.575  14.329  0.00  0.00    +0.235 C 
ATOM     13  C   UNL     1      -4.729 -12.684  15.617  0.00  0.00    +0.185 C 
ATOM     14  C   UNL     1      -1.763 -11.058  15.632  0.00  0.00    +0.207 C 
ENDROOT
BRANCH  11   6
ATOM      4  O   UNL     1      -6.751 -10.305  18.486  0.00  0.00    -0.253 OA
ATOM      6  N   UNL     1      -6.362 -10.998  16.304  0.00  0.00    -0.292 N 
ATOM      7  N   UNL     1      -8.388 -10.057  16.860  0.00  0.00    -0.300 N 
ATOM     15  C   UNL     1      -7.132 -10.441  17.324  0.00  0.00    +0.300 C 
ATOM     28  H   UNL     1      -6.745 -11.004  15.364  0.00  0.00    +0.151 HD
ATOM     29  H   UNL     1      -8.611 -10.200  15.880  0.00  0.00    +0.150 HD
BRANCH   7  17
ATOM     17  C   UNL     1      -9.385  -9.452  17.711  0.00  0.00    +0.102 C 
ATOM     23  C   UNL     1      -9.724  -8.047  17.256  0.00  0.00    +0.024 C 
ENDBRANCH   7  17
ENDBRANCH  11   6
BRANCH  12   3
ATOM      3  O   UNL     1      -1.844 -11.275  13.219  0.00  0.00    -0.442 OA
BRANCH   3  16
ATOM      5  O   UNL     1      -1.504  -9.811  11.495  0.00  0.00    -0.226 OA
ATOM      8  N   UNL     1      -3.160 -11.462  11.396  0.00  0.00    -0.251 N 
ATOM     16  C   UNL     1      -2.121 -10.756  11.970  0.00  0.00    +0.405 C 
ATOM     30  H   UNL     1      -3.548 -12.222  11.951  0.00  0.00    +0.158 HD
BRANCH   8  18
ATOM     18  C   UNL     1      -3.754 -11.261  10.130  0.00  0.00    +0.036 A 
ATOM     20  C   UNL     1      -4.927 -10.863   7.630  0.00  0.00    -0.045 A 
ATOM     21  C   UNL     1      -3.943 -12.342   9.268  0.00  0.00    +0.024 A 
ATOM     22  C   UNL     1      -4.151  -9.981   9.742  0.00  0.00    +0.024 A 
ATOM     24  C   UNL     1      -4.529 -12.142   8.018  0.00  0.00    +0.006 A 
ATOM     25  C   UNL     1      -4.738  -9.782   8.492  0.00  0.00    +0.006 A 
BRANCH  20  19
ATOM     19  C   UNL     1      -5.554 -10.651   6.294  0.00  0.00    +0.013 C 
ATOM     26  C   UNL     1      -6.525  -9.455   6.282  0.00  0.00    +0.012 C 
ATOM     27  C   UNL     1      -6.272 -11.911   5.773  0.00  0.00    +0.012 C 
ENDBRANCH  20  19
ENDBRANCH   8  18
ENDBRANCH   3  16
ENDBRANCH  12   3
TORSDOF 6
ENDMDL
