MODEL 1
REMARK VINA RESULT:      -6.6      0.000      0.000
REMARK  Name = 28990967
REMARK  10 active torsions:
REMARK  status: ('A' for Active; 'I' for Inactive)
REMARK    1  A    between atoms: N_3  and  C_19
REMARK    2  A    between atoms: N_4  and  C_14
REMARK    3  A    between atoms: N_4  and  C_18
REMARK    4  A    between atoms: N_6  and  C_30
REMARK    5  A    between atoms: N_6  and  C_32
REMARK    6  A    between atoms: N_6  and  C_33
REMARK    7  A    between atoms: C_8  and  C_15
REMARK    8  A    between atoms: C_9  and  C_14
REMARK    9  A    between atoms: C_17  and  C_20
REMARK   10  A    between atoms: C_18  and  C_21
REMARK                            x       y       z     vdW  Elec       q    Type
REMARK                         _______ _______ _______ _____ _____    ______ ____
ROOT
ATOM      2  N   UNL     1      12.504   6.287   0.213  0.00  0.00    -0.298 NA
ATOM      7  C   UNL     1      11.053   4.371   1.215  0.00  0.00    +0.002 C 
ATOM      8  C   UNL     1      10.466   5.757   1.602  0.00  0.00    +0.055 C 
ATOM      9  C   UNL     1      13.372   5.310   0.923  0.00  0.00    +0.071 C 
ATOM     10  C   UNL     1      12.516   4.284   1.697  0.00  0.00    +0.024 C 
ATOM     11  C   UNL     1      11.078   4.314  -0.328  0.00  0.00    +0.019 C 
ATOM     12  C   UNL     1      11.488   6.837   1.144  0.00  0.00    +0.094 C 
ATOM     13  C   UNL     1      11.795   5.563  -0.869  0.00  0.00    +0.085 C 
ENDROOT
BRANCH   8  15
ATOM      3  N   UNL     1       9.202   7.001   3.416  0.00  0.00    -0.270 N 
ATOM      5  N   UNL     1       8.911   7.009   4.729  0.00  0.00    -0.171 NA
ATOM     15  C   UNL     1      10.007   5.967   3.037  0.00  0.00    +0.044 A 
ATOM     16  C   UNL     1      10.262   5.251   4.182  0.00  0.00    +0.053 A 
ATOM     17  C   UNL     1       9.562   5.938   5.190  0.00  0.00    +0.093 A 
ATOM     19  C   UNL     1       8.663   8.038   2.567  0.00  0.00    +0.172 C 
BRANCH  17  20
ATOM      1  F   UNL     1       9.335   4.605  10.593  0.00  0.00    -0.205 F 
ATOM     20  C   UNL     1       9.503   5.593   6.586  0.00  0.00    +0.002 A 
ATOM     22  C   UNL     1       9.098   6.544   7.523  0.00  0.00    +0.013 A 
ATOM     23  C   UNL     1       9.850   4.307   7.003  0.00  0.00    +0.013 A 
ATOM     26  C   UNL     1       9.042   6.210   8.877  0.00  0.00    +0.039 A 
ATOM     27  C   UNL     1       9.794   3.974   8.356  0.00  0.00    +0.039 A 
ATOM     31  C   UNL     1       9.389   4.925   9.293  0.00  0.00    +0.123 A 
ENDBRANCH  17  20
ENDBRANCH   8  15
BRANCH   9  14
ATOM     14  C   UNL     1      14.399   5.994   1.828  0.00  0.00    +0.100 C 
BRANCH  14   4
ATOM      4  N   UNL     1      13.915   6.063   3.197  0.00  0.00    -0.311 NA
ATOM     34  H   UNL     1      14.248   5.243   3.706  0.00  0.00    +0.122 HD
BRANCH   4  18
ATOM     18  C   UNL     1      14.401   7.265   3.864  0.00  0.00    +0.116 C 
BRANCH  18  21
ATOM     21  C   UNL     1      13.316   7.940   4.661  0.00  0.00    -0.033 A 
ATOM     24  C   UNL     1      12.497   8.894   4.056  0.00  0.00    +0.007 A 
ATOM     25  C   UNL     1      13.129   7.611   6.004  0.00  0.00    +0.007 A 
ATOM     28  C   UNL     1      11.492   9.519   4.795  0.00  0.00    +0.023 A 
ATOM     29  C   UNL     1      12.125   8.238   6.743  0.00  0.00    +0.023 A 
ATOM     30  C   UNL     1      11.306   9.190   6.138  0.00  0.00    +0.029 A 
BRANCH  30   6
ATOM      6  N   UNL     1      10.290   9.823   6.883  0.00  0.00    -0.336 N 
ATOM     32  C   UNL     1      10.481  10.103   8.293  0.00  0.00    +0.129 C 
ATOM     33  C   UNL     1       9.039  10.197   6.253  0.00  0.00    +0.129 C 
ENDBRANCH  30   6
ENDBRANCH  18  21
ENDBRANCH   4  18
ENDBRANCH  14   4
ENDBRANCH   9  14
TORSDOF 7
ENDMDL
MODEL 2
REMARK VINA RESULT:      -6.3     22.921     26.521
REMARK  Name = 28990967
REMARK  10 active torsions:
REMARK  status: ('A' for Active; 'I' for Inactive)
REMARK    1  A    between atoms: N_3  and  C_19
REMARK    2  A    between atoms: N_4  and  C_14
REMARK    3  A    between atoms: N_4  and  C_18
REMARK    4  A    between atoms: N_6  and  C_30
REMARK    5  A    between atoms: N_6  and  C_32
REMARK    6  A    between atoms: N_6  and  C_33
REMARK    7  A    between atoms: C_8  and  C_15
REMARK    8  A    between atoms: C_9  and  C_14
REMARK    9  A    between atoms: C_17  and  C_20
REMARK   10  A    between atoms: C_18  and  C_21
REMARK                            x       y       z     vdW  Elec       q    Type
REMARK                         _______ _______ _______ _____ _____    ______ ____
ROOT
ATOM      2  N   UNL     1      -5.941 -10.518  18.067  0.00  0.00    -0.298 NA
ATOM      7  C   UNL     1      -4.490 -12.429  17.053  0.00  0.00    +0.002 C 
ATOM      8  C   UNL     1      -3.952 -11.042  16.606  0.00  0.00    +0.055 C 
ATOM      9  C   UNL     1      -6.816 -11.532  17.421  0.00  0.00    +0.071 C 
ATOM     10  C   UNL     1      -5.970 -12.560  16.638  0.00  0.00    +0.024 C 
ATOM     11  C   UNL     1      -4.449 -12.445  18.597  0.00  0.00    +0.019 C 
ATOM     12  C   UNL     1      -4.979  -9.972  17.079  0.00  0.00    +0.094 C 
ATOM     13  C   UNL     1      -5.171 -11.198  19.136  0.00  0.00    +0.085 C 
ENDROOT
BRANCH   8  15
ATOM      3  N   UNL     1      -2.288 -10.567  14.751  0.00  0.00    -0.270 N 
ATOM      5  N   UNL     1      -2.149 -10.446  13.419  0.00  0.00    -0.171 NA
ATOM     15  C   UNL     1      -3.560 -10.860  15.147  0.00  0.00    +0.044 A 
ATOM     16  C   UNL     1      -4.304 -10.934  13.995  0.00  0.00    +0.053 A 
ATOM     17  C   UNL     1      -3.384 -10.672  12.964  0.00  0.00    +0.093 A 
ATOM     19  C   UNL     1      -1.134 -10.383  15.600  0.00  0.00    +0.172 C 
BRANCH  17  20
ATOM      1  F   UNL     1      -4.457 -10.508   7.501  0.00  0.00    -0.205 F 
ATOM     20  C   UNL     1      -3.661 -10.630  11.552  0.00  0.00    +0.002 A 
ATOM     22  C   UNL     1      -3.565  -9.423  10.857  0.00  0.00    +0.013 A 
ATOM     23  C   UNL     1      -4.026 -11.796  10.877  0.00  0.00    +0.013 A 
ATOM     26  C   UNL     1      -3.834  -9.383   9.489  0.00  0.00    +0.039 A 
ATOM     27  C   UNL     1      -4.295 -11.754   9.509  0.00  0.00    +0.039 A 
ATOM     31  C   UNL     1      -4.199 -10.548   8.815  0.00  0.00    +0.123 A 
ENDBRANCH  17  20
ENDBRANCH   8  15
BRANCH   9  14
ATOM     14  C   UNL     1      -7.896 -10.895  16.543  0.00  0.00    +0.100 C 
BRANCH  14   4
ATOM      4  N   UNL     1      -7.644 -11.166  15.137  0.00  0.00    -0.311 NA
ATOM     34  H   UNL     1      -8.409 -11.731  14.768  0.00  0.00    +0.122 HD
BRANCH   4  18
ATOM     18  C   UNL     1      -7.557  -9.928  14.374  0.00  0.00    +0.116 C 
BRANCH  18  21
ATOM     21  C   UNL     1      -7.610 -10.180  12.890  0.00  0.00    -0.033 A 
ATOM     24  C   UNL     1      -8.020 -11.424  12.408  0.00  0.00    +0.007 A 
ATOM     25  C   UNL     1      -7.249  -9.172  11.997  0.00  0.00    +0.007 A 
ATOM     28  C   UNL     1      -8.069 -11.658  11.034  0.00  0.00    +0.023 A 
ATOM     29  C   UNL     1      -7.296  -9.406  10.623  0.00  0.00    +0.023 A 
ATOM     30  C   UNL     1      -7.707 -10.649  10.142  0.00  0.00    +0.029 A 
BRANCH  30   6
ATOM      6  N   UNL     1      -7.757 -10.887   8.752  0.00  0.00    -0.336 N 
ATOM     32  C   UNL     1      -7.806 -12.243   8.242  0.00  0.00    +0.129 C 
ATOM     33  C   UNL     1      -7.752  -9.780   7.816  0.00  0.00    +0.129 C 
ENDBRANCH  30   6
ENDBRANCH  18  21
ENDBRANCH   4  18
ENDBRANCH  14   4
ENDBRANCH   9  14
TORSDOF 7
ENDMDL
MODEL 3
REMARK VINA RESULT:      -6.3     23.348     27.235
REMARK  Name = 28990967
REMARK  10 active torsions:
REMARK  status: ('A' for Active; 'I' for Inactive)
REMARK    1  A    between atoms: N_3  and  C_19
REMARK    2  A    between atoms: N_4  and  C_14
REMARK    3  A    between atoms: N_4  and  C_18
REMARK    4  A    between atoms: N_6  and  C_30
REMARK    5  A    between atoms: N_6  and  C_32
REMARK    6  A    between atoms: N_6  and  C_33
REMARK    7  A    between atoms: C_8  and  C_15
REMARK    8  A    between atoms: C_9  and  C_14
REMARK    9  A    between atoms: C_17  and  C_20
REMARK   10  A    between atoms: C_18  and  C_21
REMARK                            x       y       z     vdW  Elec       q    Type
REMARK                         _______ _______ _______ _____ _____    ______ ____
ROOT
ATOM      2  N   UNL     1      -5.823 -10.393  18.154  0.00  0.00    -0.298 NA
ATOM      7  C   UNL     1      -4.834 -12.429  16.866  0.00  0.00    +0.002 C 
ATOM      8  C   UNL     1      -4.039 -11.136  16.532  0.00  0.00    +0.055 C 
ATOM      9  C   UNL     1      -6.910 -11.132  17.459  0.00  0.00    +0.071 C 
ATOM     10  C   UNL     1      -6.323 -12.213  16.527  0.00  0.00    +0.024 C 
ATOM     11  C   UNL     1      -4.740 -12.627  18.394  0.00  0.00    +0.019 C 
ATOM     12  C   UNL     1      -4.805  -9.943  17.172  0.00  0.00    +0.094 C 
ATOM     13  C   UNL     1      -5.170 -11.329  19.101  0.00  0.00    +0.085 C 
ENDROOT
BRANCH   8  15
ATOM      3  N   UNL     1      -2.400 -10.591  14.675  0.00  0.00    -0.270 N 
ATOM      5  N   UNL     1      -2.284 -10.390  13.350  0.00  0.00    -0.171 NA
ATOM     15  C   UNL     1      -3.670 -10.874  15.080  0.00  0.00    +0.044 A 
ATOM     16  C   UNL     1      -4.440 -10.856  13.941  0.00  0.00    +0.053 A 
ATOM     17  C   UNL     1      -3.534 -10.554  12.909  0.00  0.00    +0.093 A 
ATOM     19  C   UNL     1      -1.224 -10.491  15.508  0.00  0.00    +0.172 C 
BRANCH  17  20
ATOM      1  F   UNL     1      -4.712 -10.022   7.491  0.00  0.00    -0.205 F 
ATOM     20  C   UNL     1      -3.838 -10.417  11.508  0.00  0.00    +0.002 A 
ATOM     22  C   UNL     1      -3.827  -9.155  10.913  0.00  0.00    +0.013 A 
ATOM     23  C   UNL     1      -4.144 -11.545  10.747  0.00  0.00    +0.013 A 
ATOM     26  C   UNL     1      -4.123  -9.022   9.556  0.00  0.00    +0.039 A 
ATOM     27  C   UNL     1      -4.440 -11.411   9.390  0.00  0.00    +0.039 A 
ATOM     31  C   UNL     1      -4.429 -10.150   8.794  0.00  0.00    +0.123 A 
ENDBRANCH  17  20
ENDBRANCH   8  15
BRANCH   9  14
ATOM     14  C   UNL     1      -7.868 -10.197  16.717  0.00  0.00    +0.100 C 
BRANCH  14   4
ATOM      4  N   UNL     1      -8.361  -9.155  17.603  0.00  0.00    -0.311 NA
ATOM     34  H   UNL     1      -8.222  -8.248  17.156  0.00  0.00    +0.122 HD
BRANCH   4  18
ATOM     18  C   UNL     1      -9.781  -9.335  17.880  0.00  0.00    +0.116 C 
BRANCH  18  21
ATOM     21  C   UNL     1     -10.637  -8.451  17.012  0.00  0.00    -0.033 A 
ATOM     24  C   UNL     1     -11.969  -8.791  16.769  0.00  0.00    +0.007 A 
ATOM     25  C   UNL     1     -10.100  -7.293  16.451  0.00  0.00    +0.007 A 
ATOM     28  C   UNL     1     -12.762  -7.973  15.965  0.00  0.00    +0.023 A 
ATOM     29  C   UNL     1     -10.893  -6.475  15.646  0.00  0.00    +0.023 A 
ATOM     30  C   UNL     1     -12.224  -6.814  15.404  0.00  0.00    +0.029 A 
BRANCH  30   6
ATOM      6  N   UNL     1     -13.027  -5.987  14.591  0.00  0.00    -0.336 N 
ATOM     32  C   UNL     1     -14.465  -6.167  14.557  0.00  0.00    +0.129 C 
ATOM     33  C   UNL     1     -12.425  -4.951  13.775  0.00  0.00    +0.129 C 
ENDBRANCH  30   6
ENDBRANCH  18  21
ENDBRANCH   4  18
ENDBRANCH  14   4
ENDBRANCH   9  14
TORSDOF 7
ENDMDL
MODEL 4
REMARK VINA RESULT:      -6.1     29.743     33.533
REMARK  Name = 28990967
REMARK  10 active torsions:
REMARK  status: ('A' for Active; 'I' for Inactive)
REMARK    1  A    between atoms: N_3  and  C_19
REMARK    2  A    between atoms: N_4  and  C_14
REMARK    3  A    between atoms: N_4  and  C_18
REMARK    4  A    between atoms: N_6  and  C_30
REMARK    5  A    between atoms: N_6  and  C_32
REMARK    6  A    between atoms: N_6  and  C_33
REMARK    7  A    between atoms: C_8  and  C_15
REMARK    8  A    between atoms: C_9  and  C_14
REMARK    9  A    between atoms: C_17  and  C_20
REMARK   10  A    between atoms: C_18  and  C_21
REMARK                            x       y       z     vdW  Elec       q    Type
REMARK                         _______ _______ _______ _____ _____    ______ ____
ROOT
ATOM      2  N   UNL     1     -18.088   4.833  23.510  0.00  0.00    -0.298 NA
ATOM      7  C   UNL     1     -17.320   2.345  23.500  0.00  0.00    +0.002 C 
ATOM      8  C   UNL     1     -18.096   2.669  24.807  0.00  0.00    +0.055 C 
ATOM      9  C   UNL     1     -16.642   4.749  23.175  0.00  0.00    +0.071 C 
ATOM     10  C   UNL     1     -16.122   3.308  23.366  0.00  0.00    +0.024 C 
ATOM     11  C   UNL     1     -18.278   2.646  22.327  0.00  0.00    +0.019 C 
ATOM     12  C   UNL     1     -18.341   4.205  24.831  0.00  0.00    +0.094 C 
ATOM     13  C   UNL     1     -18.838   4.071  22.484  0.00  0.00    +0.085 C 
ENDROOT
BRANCH   8  15
ATOM      3  N   UNL     1     -17.957   0.998  26.711  0.00  0.00    -0.270 N 
ATOM      5  N   UNL     1     -17.336   0.718  27.869  0.00  0.00    -0.171 NA
ATOM     15  C   UNL     1     -17.533   2.153  26.123  0.00  0.00    +0.044 A 
ATOM     16  C   UNL     1     -16.568   2.665  26.956  0.00  0.00    +0.053 A 
ATOM     17  C   UNL     1     -16.488   1.741  28.013  0.00  0.00    +0.093 A 
ATOM     19  C   UNL     1     -18.971   0.093  26.218  0.00  0.00    +0.172 C 
BRANCH  17  20
ATOM      1  F   UNL     1     -13.132   2.026  32.448  0.00  0.00    -0.205 F 
ATOM     20  C   UNL     1     -15.620   1.815  29.159  0.00  0.00    +0.002 A 
ATOM     22  C   UNL     1     -15.433   0.692  29.966  0.00  0.00    +0.013 A 
ATOM     23  C   UNL     1     -14.967   3.009  29.463  0.00  0.00    +0.013 A 
ATOM     26  C   UNL     1     -14.593   0.764  31.077  0.00  0.00    +0.039 A 
ATOM     27  C   UNL     1     -14.126   3.080  30.574  0.00  0.00    +0.039 A 
ATOM     31  C   UNL     1     -13.939   1.958  31.381  0.00  0.00    +0.123 A 
ENDBRANCH  17  20
ENDBRANCH   8  15
BRANCH   9  14
ATOM     14  C   UNL     1     -15.803   5.766  23.953  0.00  0.00    +0.100 C 
BRANCH  14   4
ATOM      4  N   UNL     1     -14.693   6.244  23.146  0.00  0.00    -0.311 NA
ATOM     34  H   UNL     1     -13.889   5.634  23.296  0.00  0.00    +0.122 HD
BRANCH   4  18
ATOM     18  C   UNL     1     -15.036   6.236  21.729  0.00  0.00    +0.116 C 
BRANCH  18  21
ATOM     21  C   UNL     1     -13.950   6.853  20.886  0.00  0.00    -0.033 A 
ATOM     24  C   UNL     1     -12.610   6.671  21.234  0.00  0.00    +0.007 A 
ATOM     25  C   UNL     1     -14.282   7.604  19.760  0.00  0.00    +0.007 A 
ATOM     28  C   UNL     1     -11.605   7.241  20.455  0.00  0.00    +0.023 A 
ATOM     29  C   UNL     1     -13.276   8.176  18.981  0.00  0.00    +0.023 A 
ATOM     30  C   UNL     1     -11.937   7.993  19.328  0.00  0.00    +0.029 A 
BRANCH  30   6
ATOM      6  N   UNL     1     -10.919   8.570  18.540  0.00  0.00    -0.336 N 
ATOM     32  C   UNL     1     -10.188   9.727  19.019  0.00  0.00    +0.129 C 
ATOM     33  C   UNL     1     -10.594   8.018  17.239  0.00  0.00    +0.129 C 
ENDBRANCH  30   6
ENDBRANCH  18  21
ENDBRANCH   4  18
ENDBRANCH  14   4
ENDBRANCH   9  14
TORSDOF 7
ENDMDL
MODEL 5
REMARK VINA RESULT:      -6.1     22.903     25.405
REMARK  Name = 28990967
REMARK  10 active torsions:
REMARK  status: ('A' for Active; 'I' for Inactive)
REMARK    1  A    between atoms: N_3  and  C_19
REMARK    2  A    between atoms: N_4  and  C_14
REMARK    3  A    between atoms: N_4  and  C_18
REMARK    4  A    between atoms: N_6  and  C_30
REMARK    5  A    between atoms: N_6  and  C_32
REMARK    6  A    between atoms: N_6  and  C_33
REMARK    7  A    between atoms: C_8  and  C_15
REMARK    8  A    between atoms: C_9  and  C_14
REMARK    9  A    between atoms: C_17  and  C_20
REMARK   10  A    between atoms: C_18  and  C_21
REMARK                            x       y       z     vdW  Elec       q    Type
REMARK                         _______ _______ _______ _____ _____    ______ ____
ROOT
ATOM      2  N   UNL     1      -5.936 -10.306   9.406  0.00  0.00    -0.298 NA
ATOM      7  C   UNL     1      -4.060  -8.984  10.636  0.00  0.00    +0.002 C 
ATOM      8  C   UNL     1      -4.172 -10.424  11.206  0.00  0.00    +0.055 C 
ATOM      9  C   UNL     1      -6.454  -8.987   9.854  0.00  0.00    +0.071 C 
ATOM     10  C   UNL     1      -5.426  -8.277  10.761  0.00  0.00    +0.024 C 
ATOM     11  C   UNL     1      -3.757  -9.124   9.129  0.00  0.00    +0.019 C 
ATOM     12  C   UNL     1      -5.434 -11.078  10.570  0.00  0.00    +0.094 C 
ATOM     13  C   UNL     1      -4.797 -10.059   8.488  0.00  0.00    +0.085 C 
ENDROOT
BRANCH   8  15
ATOM      3  N   UNL     1      -3.046 -11.111  13.373  0.00  0.00    -0.270 N 
ATOM      5  N   UNL     1      -3.207 -11.191  14.706  0.00  0.00    -0.171 NA
ATOM     15  C   UNL     1      -4.128 -10.605  12.716  0.00  0.00    +0.044 A 
ATOM     16  C   UNL     1      -5.064 -10.337  13.686  0.00  0.00    +0.053 A 
ATOM     17  C   UNL     1      -4.442 -10.716  14.890  0.00  0.00    +0.093 A 
ATOM     19  C   UNL     1      -1.800 -11.548  12.786  0.00  0.00    +0.172 C 
BRANCH  17  20
ATOM      1  F   UNL     1      -6.616 -10.410  20.008  0.00  0.00    -0.205 F 
ATOM     20  C   UNL     1      -5.004 -10.636  16.212  0.00  0.00    +0.002 A 
ATOM     22  C   UNL     1      -4.296 -11.144  17.303  0.00  0.00    +0.013 A 
ATOM     23  C   UNL     1      -6.257 -10.053  16.404  0.00  0.00    +0.013 A 
ATOM     26  C   UNL     1      -4.841 -11.068  18.585  0.00  0.00    +0.039 A 
ATOM     27  C   UNL     1      -6.801  -9.976  17.687  0.00  0.00    +0.039 A 
ATOM     31  C   UNL     1      -6.094 -10.484  18.777  0.00  0.00    +0.123 A 
ENDBRANCH  17  20
ENDBRANCH   8  15
BRANCH   9  14
ATOM     14  C   UNL     1      -7.826  -9.097  10.524  0.00  0.00    +0.100 C 
BRANCH  14   4
ATOM      4  N   UNL     1      -8.847  -9.451   9.552  0.00  0.00    -0.311 NA
ATOM     34  H   UNL     1      -9.751  -9.496  10.024  0.00  0.00    +0.122 HD
BRANCH   4  18
ATOM     18  C   UNL     1      -8.919  -8.461   8.484  0.00  0.00    +0.116 C 
BRANCH  18  21
ATOM     21  C   UNL     1      -9.772  -7.282   8.871  0.00  0.00    -0.033 A 
ATOM     24  C   UNL     1     -10.939  -7.478   9.612  0.00  0.00    +0.007 A 
ATOM     25  C   UNL     1      -9.397  -5.994   8.490  0.00  0.00    +0.007 A 
ATOM     28  C   UNL     1     -11.729  -6.386   9.970  0.00  0.00    +0.023 A 
ATOM     29  C   UNL     1     -10.188  -4.902   8.847  0.00  0.00    +0.023 A 
ATOM     30  C   UNL     1     -11.353  -5.098   9.588  0.00  0.00    +0.029 A 
BRANCH  30   6
ATOM      6  N   UNL     1     -12.153  -3.994   9.951  0.00  0.00    -0.336 N 
ATOM     32  C   UNL     1     -12.936  -3.296   8.950  0.00  0.00    +0.129 C 
ATOM     33  C   UNL     1     -12.198  -3.540  11.326  0.00  0.00    +0.129 C 
ENDBRANCH  30   6
ENDBRANCH  18  21
ENDBRANCH   4  18
ENDBRANCH  14   4
ENDBRANCH   9  14
TORSDOF 7
ENDMDL
MODEL 6
REMARK VINA RESULT:      -6.1     23.168     26.547
REMARK  Name = 28990967
REMARK  10 active torsions:
REMARK  status: ('A' for Active; 'I' for Inactive)
REMARK    1  A    between atoms: N_3  and  C_19
REMARK    2  A    between atoms: N_4  and  C_14
REMARK    3  A    between atoms: N_4  and  C_18
REMARK    4  A    between atoms: N_6  and  C_30
REMARK    5  A    between atoms: N_6  and  C_32
REMARK    6  A    between atoms: N_6  and  C_33
REMARK    7  A    between atoms: C_8  and  C_15
REMARK    8  A    between atoms: C_9  and  C_14
REMARK    9  A    between atoms: C_17  and  C_20
REMARK   10  A    between atoms: C_18  and  C_21
REMARK                            x       y       z     vdW  Elec       q    Type
REMARK                         _______ _______ _______ _____ _____    ______ ____
ROOT
ATOM      2  N   UNL     1      -5.832 -10.643   9.363  0.00  0.00    -0.298 NA
ATOM      7  C   UNL     1      -4.480  -8.892  10.737  0.00  0.00    +0.002 C 
ATOM      8  C   UNL     1      -4.129 -10.333  11.199  0.00  0.00    +0.055 C 
ATOM      9  C   UNL     1      -6.746  -9.596   9.890  0.00  0.00    +0.071 C 
ATOM     10  C   UNL     1      -6.000  -8.668  10.875  0.00  0.00    +0.024 C 
ATOM     11  C   UNL     1      -4.144  -8.812   9.232  0.00  0.00    +0.019 C 
ATOM     12  C   UNL     1      -5.114 -11.302  10.482  0.00  0.00    +0.094 C 
ATOM     13  C   UNL     1      -4.829  -9.977   8.497  0.00  0.00    +0.085 C 
ENDROOT
BRANCH   8  15
ATOM      3  N   UNL     1      -2.985 -11.263  13.263  0.00  0.00    -0.270 N 
ATOM      5  N   UNL     1      -3.091 -11.403  14.596  0.00  0.00    -0.171 NA
ATOM     15  C   UNL     1      -4.035 -10.606  12.692  0.00  0.00    +0.044 A 
ATOM     16  C   UNL     1      -4.888 -10.297  13.723  0.00  0.00    +0.053 A 
ATOM     17  C   UNL     1      -4.256 -10.811  14.870  0.00  0.00    +0.093 A 
ATOM     19  C   UNL     1      -1.824 -11.797  12.588  0.00  0.00    +0.172 C 
BRANCH  17  20
ATOM      1  F   UNL     1      -6.143 -10.569  20.105  0.00  0.00    -0.205 F 
ATOM     20  C   UNL     1      -4.744 -10.749  16.223  0.00  0.00    +0.002 A 
ATOM     22  C   UNL     1      -5.871  -9.982  16.524  0.00  0.00    +0.013 A 
ATOM     23  C   UNL     1      -4.090 -11.454  17.233  0.00  0.00    +0.013 A 
ATOM     26  C   UNL     1      -6.343  -9.921  17.835  0.00  0.00    +0.039 A 
ATOM     27  C   UNL     1      -4.563 -11.393  18.545  0.00  0.00    +0.039 A 
ATOM     31  C   UNL     1      -5.689 -10.627  18.846  0.00  0.00    +0.123 A 
ENDBRANCH  17  20
ENDBRANCH   8  15
BRANCH   9  14
ATOM     14  C   UNL     1      -8.013 -10.187  10.512  0.00  0.00    +0.100 C 
BRANCH  14   4
ATOM      4  N   UNL     1      -8.077  -9.889  11.934  0.00  0.00    -0.311 NA
ATOM     34  H   UNL     1      -8.917  -9.339  12.117  0.00  0.00    +0.122 HD
BRANCH   4  18
ATOM     18  C   UNL     1      -8.129 -11.113  12.723  0.00  0.00    +0.116 C 
BRANCH  18  21
ATOM     21  C   UNL     1      -8.668 -10.864  14.108  0.00  0.00    -0.033 A 
ATOM     24  C   UNL     1      -9.086  -9.583  14.473  0.00  0.00    +0.007 A 
ATOM     25  C   UNL     1      -8.749 -11.912  15.024  0.00  0.00    +0.007 A 
ATOM     28  C   UNL     1      -9.585  -9.352  15.754  0.00  0.00    +0.023 A 
ATOM     29  C   UNL     1      -9.247 -11.680  16.306  0.00  0.00    +0.023 A 
ATOM     30  C   UNL     1      -9.666 -10.401  16.671  0.00  0.00    +0.029 A 
BRANCH  30   6
ATOM      6  N   UNL     1     -10.170 -10.166  17.967  0.00  0.00    -0.336 N 
ATOM     32  C   UNL     1      -9.668 -10.922  19.097  0.00  0.00    +0.129 C 
ATOM     33  C   UNL     1     -11.202  -9.171  18.185  0.00  0.00    +0.129 C 
ENDBRANCH  30   6
ENDBRANCH  18  21
ENDBRANCH   4  18
ENDBRANCH  14   4
ENDBRANCH   9  14
TORSDOF 7
ENDMDL
MODEL 7
REMARK VINA RESULT:      -6.0     23.532     26.185
REMARK  Name = 28990967
REMARK  10 active torsions:
REMARK  status: ('A' for Active; 'I' for Inactive)
REMARK    1  A    between atoms: N_3  and  C_19
REMARK    2  A    between atoms: N_4  and  C_14
REMARK    3  A    between atoms: N_4  and  C_18
REMARK    4  A    between atoms: N_6  and  C_30
REMARK    5  A    between atoms: N_6  and  C_32
REMARK    6  A    between atoms: N_6  and  C_33
REMARK    7  A    between atoms: C_8  and  C_15
REMARK    8  A    between atoms: C_9  and  C_14
REMARK    9  A    between atoms: C_17  and  C_20
REMARK   10  A    between atoms: C_18  and  C_21
REMARK                            x       y       z     vdW  Elec       q    Type
REMARK                         _______ _______ _______ _____ _____    ______ ____
ROOT
ATOM      2  N   UNL     1      -4.387 -12.365  17.027  0.00  0.00    -0.298 NA
ATOM      7  C   UNL     1      -5.940 -10.274  17.089  0.00  0.00    +0.002 C 
ATOM      8  C   UNL     1      -6.405 -11.264  15.985  0.00  0.00    +0.055 C 
ATOM      9  C   UNL     1      -3.570 -11.123  17.007  0.00  0.00    +0.071 C 
ATOM     10  C   UNL     1      -4.470  -9.881  16.834  0.00  0.00    +0.024 C 
ATOM     11  C   UNL     1      -5.978 -11.047  18.425  0.00  0.00    +0.019 C 
ATOM     12  C   UNL     1      -5.322 -12.376  15.874  0.00  0.00    +0.094 C 
ATOM     13  C   UNL     1      -5.190 -12.360  18.273  0.00  0.00    +0.085 C 
ENDROOT
BRANCH   8  15
ATOM      3  N   UNL     1      -7.929  -9.974  14.421  0.00  0.00    -0.270 N 
ATOM      5  N   UNL     1      -8.088  -9.563  13.150  0.00  0.00    -0.171 NA
ATOM     15  C   UNL     1      -6.791 -10.696  14.628  0.00  0.00    +0.044 A 
ATOM     16  C   UNL     1      -6.163 -10.764  13.408  0.00  0.00    +0.053 A 
ATOM     17  C   UNL     1      -7.006 -10.049  12.537  0.00  0.00    +0.093 A 
ATOM     19  C   UNL     1      -8.931  -9.630  15.404  0.00  0.00    +0.172 C 
BRANCH  17  20
ATOM      1  F   UNL     1      -6.206  -9.169   7.096  0.00  0.00    -0.205 F 
ATOM     20  C   UNL     1      -6.799  -9.823  11.131  0.00  0.00    +0.002 A 
ATOM     22  C   UNL     1      -6.174  -8.652  10.698  0.00  0.00    +0.013 A 
ATOM     23  C   UNL     1      -7.223 -10.772  10.201  0.00  0.00    +0.013 A 
ATOM     26  C   UNL     1      -5.974  -8.431   9.335  0.00  0.00    +0.039 A 
ATOM     27  C   UNL     1      -7.022 -10.551   8.838  0.00  0.00    +0.039 A 
ATOM     31  C   UNL     1      -6.398  -9.381   8.405  0.00  0.00    +0.123 A 
ENDBRANCH  17  20
ENDBRANCH   8  15
BRANCH   9  14
ATOM     14  C   UNL     1      -2.459 -11.174  15.954  0.00  0.00    +0.100 C 
BRANCH  14   4
ATOM      4  N   UNL     1      -2.769 -10.297  14.837  0.00  0.00    -0.311 NA
ATOM     34  H   UNL     1      -2.707  -9.328  15.151  0.00  0.00    +0.122 HD
BRANCH   4  18
ATOM     18  C   UNL     1      -1.832 -10.500  13.738  0.00  0.00    +0.116 C 
BRANCH  18  21
ATOM     21  C   UNL     1      -2.493 -11.154  12.553  0.00  0.00    -0.033 A 
ATOM     24  C   UNL     1      -2.860 -10.385  11.448  0.00  0.00    +0.007 A 
ATOM     25  C   UNL     1      -2.738 -12.527  12.560  0.00  0.00    +0.007 A 
ATOM     28  C   UNL     1      -3.472 -10.990  10.350  0.00  0.00    +0.023 A 
ATOM     29  C   UNL     1      -3.351 -13.132  11.462  0.00  0.00    +0.023 A 
ATOM     30  C   UNL     1      -3.717 -12.363  10.357  0.00  0.00    +0.029 A 
BRANCH  30   6
ATOM      6  N   UNL     1      -4.336 -12.974   9.247  0.00  0.00    -0.336 N 
ATOM     32  C   UNL     1      -4.081 -12.486   7.905  0.00  0.00    +0.129 C 
ATOM     33  C   UNL     1      -5.239 -14.093   9.432  0.00  0.00    +0.129 C 
ENDBRANCH  30   6
ENDBRANCH  18  21
ENDBRANCH   4  18
ENDBRANCH  14   4
ENDBRANCH   9  14
TORSDOF 7
ENDMDL
MODEL 8
REMARK VINA RESULT:      -5.9     23.696     27.439
REMARK  Name = 28990967
REMARK  10 active torsions:
REMARK  status: ('A' for Active; 'I' for Inactive)
REMARK    1  A    between atoms: N_3  and  C_19
REMARK    2  A    between atoms: N_4  and  C_14
REMARK    3  A    between atoms: N_4  and  C_18
REMARK    4  A    between atoms: N_6  and  C_30
REMARK    5  A    between atoms: N_6  and  C_32
REMARK    6  A    between atoms: N_6  and  C_33
REMARK    7  A    between atoms: C_8  and  C_15
REMARK    8  A    between atoms: C_9  and  C_14
REMARK    9  A    between atoms: C_17  and  C_20
REMARK   10  A    between atoms: C_18  and  C_21
REMARK                            x       y       z     vdW  Elec       q    Type
REMARK                         _______ _______ _______ _____ _____    ______ ____
ROOT
ATOM      2  N   UNL     1      -4.992 -12.646  16.957  0.00  0.00    -0.298 NA
ATOM      7  C   UNL     1      -5.538 -10.724  18.627  0.00  0.00    +0.002 C 
ATOM      8  C   UNL     1      -6.836 -11.477  18.223  0.00  0.00    +0.055 C 
ATOM      9  C   UNL     1      -4.361 -11.380  16.499  0.00  0.00    +0.071 C 
ATOM     10  C   UNL     1      -4.842 -10.190  17.358  0.00  0.00    +0.024 C 
ATOM     11  C   UNL     1      -4.594 -11.770  19.258  0.00  0.00    +0.019 C 
ATOM     12  C   UNL     1      -6.460 -12.467  17.082  0.00  0.00    +0.094 C 
ATOM     13  C   UNL     1      -4.450 -12.965  18.300  0.00  0.00    +0.085 C 
ENDROOT
BRANCH   8  15
ATOM      3  N   UNL     1      -9.236 -10.744  18.592  0.00  0.00    -0.270 N 
ATOM      5  N   UNL     1     -10.208  -9.933  18.139  0.00  0.00    -0.171 NA
ATOM     15  C   UNL     1      -8.071 -10.653  17.890  0.00  0.00    +0.044 A 
ATOM     16  C   UNL     1      -8.297  -9.720  16.907  0.00  0.00    +0.053 A 
ATOM     17  C   UNL     1      -9.627  -9.311  17.110  0.00  0.00    +0.093 A 
ATOM     19  C   UNL     1      -9.502 -11.597  19.728  0.00  0.00    +0.172 C 
BRANCH  17  20
ATOM      1  F   UNL     1     -12.446  -5.549  14.123  0.00  0.00    -0.205 F 
ATOM     20  C   UNL     1     -10.356  -8.338  16.338  0.00  0.00    +0.002 A 
ATOM     22  C   UNL     1     -10.889  -8.690  15.097  0.00  0.00    +0.013 A 
ATOM     23  C   UNL     1     -10.530  -7.045  16.831  0.00  0.00    +0.013 A 
ATOM     26  C   UNL     1     -11.595  -7.747  14.349  0.00  0.00    +0.039 A 
ATOM     27  C   UNL     1     -11.236  -6.103  16.082  0.00  0.00    +0.039 A 
ATOM     31  C   UNL     1     -11.768  -6.453  14.841  0.00  0.00    +0.123 A 
ENDBRANCH  17  20
ENDBRANCH   8  15
BRANCH   9  14
ATOM     14  C   UNL     1      -4.577 -11.129  15.005  0.00  0.00    +0.100 C 
BRANCH  14   4
ATOM      4  N   UNL     1      -3.483 -10.350  14.449  0.00  0.00    -0.311 NA
ATOM     34  H   UNL     1      -2.915  -9.987  15.216  0.00  0.00    +0.122 HD
BRANCH   4  18
ATOM     18  C   UNL     1      -2.644 -11.170  13.584  0.00  0.00    +0.116 C 
BRANCH  18  21
ATOM     21  C   UNL     1      -3.145 -11.180  12.164  0.00  0.00    -0.033 A 
ATOM     24  C   UNL     1      -3.606 -12.368  11.595  0.00  0.00    +0.007 A 
ATOM     25  C   UNL     1      -3.150 -10.002  11.417  0.00  0.00    +0.007 A 
ATOM     28  C   UNL     1      -4.071 -12.377  10.280  0.00  0.00    +0.023 A 
ATOM     29  C   UNL     1      -3.613 -10.012  10.101  0.00  0.00    +0.023 A 
ATOM     30  C   UNL     1      -4.075 -11.199   9.534  0.00  0.00    +0.029 A 
BRANCH  30   6
ATOM      6  N   UNL     1      -4.545 -11.209   8.204  0.00  0.00    -0.336 N 
ATOM     32  C   UNL     1      -4.379 -12.389   7.377  0.00  0.00    +0.129 C 
ATOM     33  C   UNL     1      -5.194 -10.040   7.644  0.00  0.00    +0.129 C 
ENDBRANCH  30   6
ENDBRANCH  18  21
ENDBRANCH   4  18
ENDBRANCH  14   4
ENDBRANCH   9  14
TORSDOF 7
ENDMDL
MODEL 9
REMARK VINA RESULT:      -5.8     23.802     27.597
REMARK  Name = 28990967
REMARK  10 active torsions:
REMARK  status: ('A' for Active; 'I' for Inactive)
REMARK    1  A    between atoms: N_3  and  C_19
REMARK    2  A    between atoms: N_4  and  C_14
REMARK    3  A    between atoms: N_4  and  C_18
REMARK    4  A    between atoms: N_6  and  C_30
REMARK    5  A    between atoms: N_6  and  C_32
REMARK    6  A    between atoms: N_6  and  C_33
REMARK    7  A    between atoms: C_8  and  C_15
REMARK    8  A    between atoms: C_9  and  C_14
REMARK    9  A    between atoms: C_17  and  C_20
REMARK   10  A    between atoms: C_18  and  C_21
REMARK                            x       y       z     vdW  Elec       q    Type
REMARK                         _______ _______ _______ _____ _____    ______ ____
ROOT
ATOM      2  N   UNL     1     -11.350 -10.005  17.187  0.00  0.00    -0.298 NA
ATOM      7  C   UNL     1     -10.795  -7.970  15.660  0.00  0.00    +0.002 C 
ATOM      8  C   UNL     1     -10.874  -9.274  14.819  0.00  0.00    +0.055 C 
ATOM      9  C   UNL     1     -10.221  -9.230  17.764  0.00  0.00    +0.071 C 
ATOM     10  C   UNL     1      -9.743  -8.145  16.775  0.00  0.00    +0.024 C 
ATOM     11  C   UNL     1     -12.165  -7.802  16.351  0.00  0.00    +0.019 C 
ATOM     12  C   UNL     1     -11.006 -10.461  15.817  0.00  0.00    +0.094 C 
ATOM     13  C   UNL     1     -12.522  -9.102  17.093  0.00  0.00    +0.085 C 
ENDROOT
BRANCH   8  15
ATOM      3  N   UNL     1     -10.052  -9.489  12.429  0.00  0.00    -0.270 N 
ATOM      5  N   UNL     1      -8.970  -9.731  11.668  0.00  0.00    -0.171 NA
ATOM     15  C   UNL     1      -9.801  -9.518  13.769  0.00  0.00    +0.044 A 
ATOM     16  C   UNL     1      -8.462  -9.801  13.894  0.00  0.00    +0.053 A 
ATOM     17  C   UNL     1      -8.002  -9.920  12.570  0.00  0.00    +0.093 A 
ATOM     19  C   UNL     1     -11.321  -9.233  11.788  0.00  0.00    +0.172 C 
BRANCH  17  20
ATOM      1  F   UNL     1      -2.800 -11.057  10.939  0.00  0.00    -0.205 F 
ATOM     20  C   UNL     1      -6.658 -10.213  12.148  0.00  0.00    +0.002 A 
ATOM     22  C   UNL     1      -6.192 -11.529  12.166  0.00  0.00    +0.013 A 
ATOM     23  C   UNL     1      -5.820  -9.183  11.721  0.00  0.00    +0.013 A 
ATOM     26  C   UNL     1      -4.889 -11.814  11.758  0.00  0.00    +0.039 A 
ATOM     27  C   UNL     1      -4.516  -9.469  11.313  0.00  0.00    +0.039 A 
ATOM     31  C   UNL     1      -4.051 -10.784  11.332  0.00  0.00    +0.123 A 
ENDBRANCH  17  20
ENDBRANCH   8  15
BRANCH   9  14
ATOM     14  C   UNL     1      -9.071 -10.129  18.224  0.00  0.00    +0.100 C 
BRANCH  14   4
ATOM      4  N   UNL     1      -7.799  -9.435  18.117  0.00  0.00    -0.311 NA
ATOM     34  H   UNL     1      -7.860  -8.554  18.629  0.00  0.00    +0.122 HD
BRANCH   4  18
ATOM     18  C   UNL     1      -6.717 -10.235  18.677  0.00  0.00    +0.116 C 
BRANCH  18  21
ATOM     21  C   UNL     1      -5.643 -10.515  17.659  0.00  0.00    -0.033 A 
ATOM     24  C   UNL     1      -4.493 -11.212  18.032  0.00  0.00    +0.007 A 
ATOM     25  C   UNL     1      -5.797 -10.079  16.343  0.00  0.00    +0.007 A 
ATOM     28  C   UNL     1      -3.498 -11.472  17.090  0.00  0.00    +0.023 A 
ATOM     29  C   UNL     1      -4.801 -10.337  15.401  0.00  0.00    +0.023 A 
ATOM     30  C   UNL     1      -3.653 -11.035  15.774  0.00  0.00    +0.029 A 
BRANCH  30   6
ATOM      6  N   UNL     1      -2.646 -11.297  14.822  0.00  0.00    -0.336 N 
ATOM     32  C   UNL     1      -1.848 -10.214  14.281  0.00  0.00    +0.129 C 
ATOM     33  C   UNL     1      -2.401 -12.651  14.366  0.00  0.00    +0.129 C 
ENDBRANCH  30   6
ENDBRANCH  18  21
ENDBRANCH   4  18
ENDBRANCH  14   4
ENDBRANCH   9  14
TORSDOF 7
ENDMDL
MODEL 10
REMARK VINA RESULT:      -5.8     12.882     16.759
REMARK  Name = 28990967
REMARK  10 active torsions:
REMARK  status: ('A' for Active; 'I' for Inactive)
REMARK    1  A    between atoms: N_3  and  C_19
REMARK    2  A    between atoms: N_4  and  C_14
REMARK    3  A    between atoms: N_4  and  C_18
REMARK    4  A    between atoms: N_6  and  C_30
REMARK    5  A    between atoms: N_6  and  C_32
REMARK    6  A    between atoms: N_6  and  C_33
REMARK    7  A    between atoms: C_8  and  C_15
REMARK    8  A    between atoms: C_9  and  C_14
REMARK    9  A    between atoms: C_17  and  C_20
REMARK   10  A    between atoms: C_18  and  C_21
REMARK                            x       y       z     vdW  Elec       q    Type
REMARK                         _______ _______ _______ _____ _____    ______ ____
ROOT
ATOM      2  N   UNL     1      11.951   9.156  19.723  0.00  0.00    -0.298 NA
ATOM      7  C   UNL     1      12.768   7.164  21.188  0.00  0.00    +0.002 C 
ATOM      8  C   UNL     1      13.687   8.400  21.390  0.00  0.00    +0.055 C 
ATOM      9  C   UNL     1      12.060   7.927  18.894  0.00  0.00    +0.071 C 
ATOM     10  C   UNL     1      12.737   6.791  19.692  0.00  0.00    +0.024 C 
ATOM     11  C   UNL     1      11.339   7.604  21.576  0.00  0.00    +0.019 C 
ATOM     12  C   UNL     1      13.263   9.470  20.342  0.00  0.00    +0.094 C 
ATOM     13  C   UNL     1      10.979   8.888  20.809  0.00  0.00    +0.085 C 
ENDROOT
BRANCH   8  15
ATOM      3  N   UNL     1      16.079   9.140  21.802  0.00  0.00    -0.270 N 
ATOM      5  N   UNL     1      17.363   8.747  21.750  0.00  0.00    -0.171 NA
ATOM     15  C   UNL     1      15.192   8.179  21.413  0.00  0.00    +0.044 A 
ATOM     16  C   UNL     1      15.950   7.081  21.083  0.00  0.00    +0.053 A 
ATOM     17  C   UNL     1      17.277   7.488  21.311  0.00  0.00    +0.093 A 
ATOM     19  C   UNL     1      15.769  10.481  22.241  0.00  0.00    +0.172 C 
BRANCH  17  20
ATOM      1  F   UNL     1      21.874   4.436  20.553  0.00  0.00    -0.205 F 
ATOM     20  C   UNL     1      18.466   6.700  21.115  0.00  0.00    +0.002 A 
ATOM     22  C   UNL     1      18.513   5.753  20.091  0.00  0.00    +0.013 A 
ATOM     23  C   UNL     1      19.569   6.881  21.949  0.00  0.00    +0.013 A 
ATOM     26  C   UNL     1      19.665   4.988  19.901  0.00  0.00    +0.039 A 
ATOM     27  C   UNL     1      20.720   6.116  21.759  0.00  0.00    +0.039 A 
ATOM     31  C   UNL     1      20.768   5.170  20.735  0.00  0.00    +0.123 A 
ENDBRANCH  17  20
ENDBRANCH   8  15
BRANCH   9  14
ATOM     14  C   UNL     1      12.764   8.184  17.559  0.00  0.00    +0.100 C 
BRANCH  14   4
ATOM      4  N   UNL     1      12.344   9.455  16.992  0.00  0.00    -0.311 NA
ATOM     34  H   UNL     1      12.561  10.199  17.656  0.00  0.00    +0.122 HD
BRANCH   4  18
ATOM     18  C   UNL     1      13.036   9.722  15.737  0.00  0.00    +0.116 C 
BRANCH  18  21
ATOM     21  C   UNL     1      14.196  10.665  15.927  0.00  0.00    -0.033 A 
ATOM     24  C   UNL     1      15.176  10.771  14.940  0.00  0.00    +0.007 A 
ATOM     25  C   UNL     1      14.288  11.432  17.087  0.00  0.00    +0.007 A 
ATOM     28  C   UNL     1      16.250  11.644  15.115  0.00  0.00    +0.023 A 
ATOM     29  C   UNL     1      15.363  12.304  17.263  0.00  0.00    +0.023 A 
ATOM     30  C   UNL     1      16.342  12.411  16.277  0.00  0.00    +0.029 A 
BRANCH  30   6
ATOM      6  N   UNL     1      17.428  13.294  16.453  0.00  0.00    -0.336 N 
ATOM     32  C   UNL     1      18.650  13.114  15.692  0.00  0.00    +0.129 C 
ATOM     33  C   UNL     1      17.340  14.387  17.400  0.00  0.00    +0.129 C 
ENDBRANCH  30   6
ENDBRANCH  18  21
ENDBRANCH   4  18
ENDBRANCH  14   4
ENDBRANCH   9  14
TORSDOF 7
ENDMDL
