MODEL 1
REMARK VINA RESULT:      -7.4      0.000      0.000
REMARK  Name = 40467553
REMARK  6 active torsions:
REMARK  status: ('A' for Active; 'I' for Inactive)
REMARK    1  A    between atoms: S_1  and  N_7
REMARK    2  A    between atoms: S_1  and  C_26
REMARK    3  A    between atoms: N_5  and  C_14
REMARK    4  A    between atoms: N_7  and  C_24
REMARK    5  A    between atoms: C_14  and  C_15
REMARK    6  A    between atoms: C_31  and  C_32
REMARK                            x       y       z     vdW  Elec       q    Type
REMARK                         _______ _______ _______ _____ _____    ______ ____
ROOT
ATOM      2  O   UNL     1      -8.839  -9.288  14.002  0.00  0.00    -0.266 OA
ATOM      5  N   UNL     1     -12.532  -5.889  13.976  0.00  0.00    -0.301 NA
ATOM      6  N   UNL     1     -10.894  -8.497  14.804  0.00  0.00    -0.310 N 
ATOM      8  C   UNL     1     -12.981  -8.272  13.336  0.00  0.00    +0.024 C 
ATOM      9  C   UNL     1     -13.079  -7.617  15.695  0.00  0.00    +0.050 C 
ATOM     10  C   UNL     1     -13.740  -8.498  14.638  0.00  0.00    +0.017 C 
ATOM     11  C   UNL     1     -13.054  -6.783  12.934  0.00  0.00    +0.089 C 
ATOM     12  C   UNL     1     -13.184  -6.134  15.271  0.00  0.00    +0.094 C 
ATOM     13  C   UNL     1     -11.538  -8.765  13.511  0.00  0.00    +0.130 C 
ATOM     16  C   UNL     1     -11.627  -8.011  15.895  0.00  0.00    +0.026 A 
ATOM     22  C   UNL     1     -11.047  -7.876  17.101  0.00  0.00    +0.024 A 
ATOM     23  C   UNL     1      -9.531  -8.844  14.917  0.00  0.00    +0.274 A 
ATOM     24  C   UNL     1      -8.940  -8.652  16.266  0.00  0.00    +0.112 A 
ATOM     25  C   UNL     1      -9.660  -8.205  17.297  0.00  0.00    +0.031 A 
ENDROOT
BRANCH  24   7
ATOM      7  N   UNL     1      -7.588  -8.958  16.497  0.00  0.00    -0.211 N 
ATOM     33  H   UNL     1      -6.971  -8.647  15.734  0.00  0.00    +0.174 HD
BRANCH   7   1
ATOM      1  S   UNL     1      -7.241 -10.500  17.102  0.00  0.00    +0.072 S 
ATOM      3  O   UNL     1      -7.275 -10.475  18.552  0.00  0.00    -0.150 OA
ATOM      4  O   UNL     1      -8.001 -11.495  16.370  0.00  0.00    -0.150 OA
BRANCH   1  26
ATOM     26  C   UNL     1      -5.548 -10.668  16.618  0.00  0.00    +0.109 A 
ATOM     27  C   UNL     1      -4.570 -10.925  17.578  0.00  0.00    +0.029 A 
ATOM     28  C   UNL     1      -5.190 -10.544  15.275  0.00  0.00    +0.029 A 
ATOM     29  C   UNL     1      -3.234 -11.057  17.197  0.00  0.00    +0.005 A 
ATOM     30  C   UNL     1      -3.855 -10.676  14.893  0.00  0.00    +0.005 A 
ATOM     31  C   UNL     1      -2.877 -10.933  15.855  0.00  0.00    -0.050 A 
ATOM     32  C   UNL     1      -1.449 -11.075  15.447  0.00  0.00    +0.044 C 
ENDBRANCH   1  26
ENDBRANCH   7   1
ENDBRANCH  24   7
BRANCH   5  14
ATOM     14  C   UNL     1     -12.665  -4.489  13.579  0.00  0.00    +0.088 C 
BRANCH  14  15
ATOM     15  C   UNL     1     -13.432  -4.358  12.266  0.00  0.00    +0.003 C 
ATOM     17  C   UNL     1     -14.714  -3.538  12.467  0.00  0.00    +0.005 C 
ATOM     18  C   UNL     1     -12.546  -3.731  11.180  0.00  0.00    +0.005 C 
ATOM     19  C   UNL     1     -15.472  -3.347  11.155  0.00  0.00    +0.000 C 
ATOM     20  C   UNL     1     -13.309  -3.540   9.872  0.00  0.00    +0.000 C 
ATOM     21  C   UNL     1     -14.586  -2.731  10.076  0.00  0.00    +0.000 C 
ENDBRANCH  14  15
ENDBRANCH   5  14
TORSDOF 5
ENDMDL
MODEL 2
REMARK VINA RESULT:      -7.4      4.041      6.455
REMARK  Name = 40467553
REMARK  6 active torsions:
REMARK  status: ('A' for Active; 'I' for Inactive)
REMARK    1  A    between atoms: S_1  and  N_7
REMARK    2  A    between atoms: S_1  and  C_26
REMARK    3  A    between atoms: N_5  and  C_14
REMARK    4  A    between atoms: N_7  and  C_24
REMARK    5  A    between atoms: C_14  and  C_15
REMARK    6  A    between atoms: C_31  and  C_32
REMARK                            x       y       z     vdW  Elec       q    Type
REMARK                         _______ _______ _______ _____ _____    ______ ____
ROOT
ATOM      2  O   UNL     1      -6.765 -11.564  15.161  0.00  0.00    -0.266 OA
ATOM      5  N   UNL     1     -10.210 -11.337  18.803  0.00  0.00    -0.301 NA
ATOM      6  N   UNL     1      -7.507 -12.132  17.309  0.00  0.00    -0.310 N 
ATOM      8  C   UNL     1      -9.610 -13.530  17.744  0.00  0.00    +0.024 C 
ATOM      9  C   UNL     1      -8.290 -12.702  19.635  0.00  0.00    +0.050 C 
ATOM     10  C   UNL     1      -8.880 -13.963  19.010  0.00  0.00    +0.017 C 
ATOM     11  C   UNL     1     -10.722 -12.518  18.095  0.00  0.00    +0.089 C 
ATOM     12  C   UNL     1      -9.429 -11.718  19.989  0.00  0.00    +0.094 C 
ATOM     13  C   UNL     1      -8.586 -12.959  16.753  0.00  0.00    +0.130 C 
ATOM     16  C   UNL     1      -7.296 -12.047  18.692  0.00  0.00    +0.026 A 
ATOM     22  C   UNL     1      -6.238 -11.376  19.180  0.00  0.00    +0.024 A 
ATOM     23  C   UNL     1      -6.641 -11.513  16.384  0.00  0.00    +0.274 A 
ATOM     24  C   UNL     1      -5.505 -10.768  16.983  0.00  0.00    +0.112 A 
ATOM     25  C   UNL     1      -5.312 -10.714  18.302  0.00  0.00    +0.031 A 
ENDROOT
BRANCH  24   7
ATOM      7  N   UNL     1      -4.579 -10.105  16.159  0.00  0.00    -0.211 N 
ATOM     33  H   UNL     1      -5.029  -9.487  15.469  0.00  0.00    +0.174 HD
BRANCH   7   1
ATOM      1  S   UNL     1      -3.292 -11.022  15.553  0.00  0.00    +0.072 S 
ATOM      3  O   UNL     1      -2.040 -10.515  16.082  0.00  0.00    -0.150 OA
ATOM      4  O   UNL     1      -3.609 -12.434  15.652  0.00  0.00    -0.150 OA
BRANCH   1  26
ATOM     26  C   UNL     1      -3.356 -10.585  13.840  0.00  0.00    +0.109 A 
ATOM     27  C   UNL     1      -2.184 -10.546  13.086  0.00  0.00    +0.029 A 
ATOM     28  C   UNL     1      -4.580 -10.280  13.243  0.00  0.00    +0.029 A 
ATOM     29  C   UNL     1      -2.233 -10.201  11.736  0.00  0.00    +0.005 A 
ATOM     30  C   UNL     1      -4.629  -9.934  11.893  0.00  0.00    +0.005 A 
ATOM     31  C   UNL     1      -3.456  -9.896  11.139  0.00  0.00    -0.050 A 
ATOM     32  C   UNL     1      -3.509  -9.527   9.694  0.00  0.00    +0.044 C 
ENDBRANCH   1  26
ENDBRANCH   7   1
ENDBRANCH  24   7
BRANCH   5  14
ATOM     14  C   UNL     1     -11.297 -10.430  19.162  0.00  0.00    +0.088 C 
BRANCH  14  15
ATOM     15  C   UNL     1     -11.275  -9.173  18.295  0.00  0.00    +0.003 C 
ATOM     17  C   UNL     1      -9.892  -8.977  17.660  0.00  0.00    +0.005 C 
ATOM     18  C   UNL     1     -12.367  -9.238  17.218  0.00  0.00    +0.005 C 
ATOM     19  C   UNL     1      -9.860  -7.754  16.745  0.00  0.00    +0.000 C 
ATOM     20  C   UNL     1     -12.331  -8.015  16.305  0.00  0.00    +0.000 C 
ATOM     21  C   UNL     1     -10.952  -7.818  15.681  0.00  0.00    +0.000 C 
ENDBRANCH  14  15
ENDBRANCH   5  14
TORSDOF 5
ENDMDL
MODEL 3
REMARK VINA RESULT:      -7.4     27.931     30.981
REMARK  Name = 40467553
REMARK  6 active torsions:
REMARK  status: ('A' for Active; 'I' for Inactive)
REMARK    1  A    between atoms: S_1  and  N_7
REMARK    2  A    between atoms: S_1  and  C_26
REMARK    3  A    between atoms: N_5  and  C_14
REMARK    4  A    between atoms: N_7  and  C_24
REMARK    5  A    between atoms: C_14  and  C_15
REMARK    6  A    between atoms: C_31  and  C_32
REMARK                            x       y       z     vdW  Elec       q    Type
REMARK                         _______ _______ _______ _____ _____    ______ ____
ROOT
ATOM      2  O   UNL     1      12.004   9.228  16.696  0.00  0.00    -0.266 OA
ATOM      5  N   UNL     1      12.099   8.483  21.659  0.00  0.00    -0.301 NA
ATOM      6  N   UNL     1      13.160   8.673  18.657  0.00  0.00    -0.310 N 
ATOM      8  C   UNL     1      12.612   6.609  20.073  0.00  0.00    +0.024 C 
ATOM      9  C   UNL     1      14.408   8.121  20.775  0.00  0.00    +0.050 C 
ATOM     10  C   UNL     1      14.086   6.664  20.456  0.00  0.00    +0.017 C 
ATOM     11  C   UNL     1      11.743   7.120  21.243  0.00  0.00    +0.089 C 
ATOM     12  C   UNL     1      13.534   8.596  21.959  0.00  0.00    +0.094 C 
ATOM     13  C   UNL     1      12.404   7.420  18.787  0.00  0.00    +0.130 C 
ATOM     16  C   UNL     1      14.181   9.002  19.560  0.00  0.00    +0.026 A 
ATOM     22  C   UNL     1      14.937  10.097  19.364  0.00  0.00    +0.024 A 
ATOM     23  C   UNL     1      12.876   9.472  17.531  0.00  0.00    +0.274 A 
ATOM     24  C   UNL     1      13.728  10.678  17.380  0.00  0.00    +0.112 A 
ATOM     25  C   UNL     1      14.706  10.965  18.241  0.00  0.00    +0.031 A 
ENDROOT
BRANCH  24   7
ATOM      7  N   UNL     1      13.532  11.554  16.298  0.00  0.00    -0.211 N 
ATOM     33  H   UNL     1      12.546  11.821  16.173  0.00  0.00    +0.174 HD
BRANCH   7   1
ATOM      1  S   UNL     1      14.356  11.201  14.863  0.00  0.00    +0.072 S 
ATOM      3  O   UNL     1      14.756   9.806  14.860  0.00  0.00    -0.150 OA
ATOM      4  O   UNL     1      13.634  11.757  13.735  0.00  0.00    -0.150 OA
BRANCH   1  26
ATOM     26  C   UNL     1      15.821  12.168  15.080  0.00  0.00    +0.109 A 
ATOM     27  C   UNL     1      17.058  11.659  14.686  0.00  0.00    +0.029 A 
ATOM     28  C   UNL     1      15.740  13.442  15.645  0.00  0.00    +0.029 A 
ATOM     29  C   UNL     1      18.214  12.421  14.857  0.00  0.00    +0.005 A 
ATOM     30  C   UNL     1      16.895  14.204  15.817  0.00  0.00    +0.005 A 
ATOM     31  C   UNL     1      18.132  13.693  15.422  0.00  0.00    -0.050 A 
ATOM     32  C   UNL     1      19.368  14.509  15.605  0.00  0.00    +0.044 C 
ENDBRANCH   1  26
ENDBRANCH   7   1
ENDBRANCH  24   7
BRANCH   5  14
ATOM     14  C   UNL     1      11.291   8.911  22.798  0.00  0.00    +0.088 C 
BRANCH  14  15
ATOM     15  C   UNL     1      10.880  10.375  22.664  0.00  0.00    +0.003 C 
ATOM     17  C   UNL     1      11.017  11.101  24.010  0.00  0.00    +0.005 C 
ATOM     18  C   UNL     1      11.711  11.075  21.579  0.00  0.00    +0.005 C 
ATOM     19  C   UNL     1      10.664  12.582  23.890  0.00  0.00    +0.000 C 
ATOM     20  C   UNL     1      11.356  12.555  21.464  0.00  0.00    +0.000 C 
ATOM     21  C   UNL     1      11.486  13.272  22.805  0.00  0.00    +0.000 C 
ENDBRANCH  14  15
ENDBRANCH   5  14
TORSDOF 5
ENDMDL
MODEL 4
REMARK VINA RESULT:      -7.3     25.663     28.412
REMARK  Name = 40467553
REMARK  6 active torsions:
REMARK  status: ('A' for Active; 'I' for Inactive)
REMARK    1  A    between atoms: S_1  and  N_7
REMARK    2  A    between atoms: S_1  and  C_26
REMARK    3  A    between atoms: N_5  and  C_14
REMARK    4  A    between atoms: N_7  and  C_24
REMARK    5  A    between atoms: C_14  and  C_15
REMARK    6  A    between atoms: C_31  and  C_32
REMARK                            x       y       z     vdW  Elec       q    Type
REMARK                         _______ _______ _______ _____ _____    ______ ____
ROOT
ATOM      2  O   UNL     1      11.340   7.552   1.929  0.00  0.00    -0.266 OA
ATOM      5  N   UNL     1      11.715   4.083  -1.679  0.00  0.00    -0.301 NA
ATOM      6  N   UNL     1      12.232   5.547   1.107  0.00  0.00    -0.310 N 
ATOM      8  C   UNL     1      13.717   5.421  -0.976  0.00  0.00    +0.024 C 
ATOM      9  C   UNL     1      13.151   3.369   0.237  0.00  0.00    +0.050 C 
ATOM     10  C   UNL     1      14.317   4.199  -0.293  0.00  0.00    +0.017 C 
ATOM     11  C   UNL     1      12.788   4.979  -2.128  0.00  0.00    +0.089 C 
ATOM     12  C   UNL     1      12.252   2.930  -0.941  0.00  0.00    +0.094 C 
ATOM     13  C   UNL     1      12.988   6.269   0.075  0.00  0.00    +0.130 C 
ATOM     16  C   UNL     1      12.347   4.158   1.255  0.00  0.00    +0.026 A 
ATOM     22  C   UNL     1      11.735   3.527   2.273  0.00  0.00    +0.024 A 
ATOM     23  C   UNL     1      11.467   6.330   1.997  0.00  0.00    +0.274 A 
ATOM     24  C   UNL     1      10.797   5.576   3.087  0.00  0.00    +0.112 A 
ATOM     25  C   UNL     1      10.934   4.255   3.220  0.00  0.00    +0.031 A 
ENDROOT
BRANCH  24   7
ATOM      7  N   UNL     1      10.003   6.249   4.031  0.00  0.00    -0.211 N 
ATOM     33  H   UNL     1       9.187   6.714   3.608  0.00  0.00    +0.174 HD
BRANCH   7   1
ATOM      1  S   UNL     1      10.810   7.166   5.203  0.00  0.00    +0.072 S 
ATOM      3  O   UNL     1      12.236   6.907   5.128  0.00  0.00    -0.150 OA
ATOM      4  O   UNL     1      10.313   8.528   5.185  0.00  0.00    -0.150 OA
BRANCH   1  26
ATOM     26  C   UNL     1      10.212   6.404   6.683  0.00  0.00    +0.109 A 
ATOM     27  C   UNL     1       9.608   7.181   7.671  0.00  0.00    +0.029 A 
ATOM     28  C   UNL     1      10.345   5.027   6.862  0.00  0.00    +0.029 A 
ATOM     29  C   UNL     1       9.137   6.581   8.839  0.00  0.00    +0.005 A 
ATOM     30  C   UNL     1       9.874   4.427   8.030  0.00  0.00    +0.005 A 
ATOM     31  C   UNL     1       9.269   5.205   9.018  0.00  0.00    -0.050 A 
ATOM     32  C   UNL     1       8.765   4.563  10.267  0.00  0.00    +0.044 C 
ENDBRANCH   1  26
ENDBRANCH   7   1
ENDBRANCH  24   7
BRANCH   5  14
ATOM     14  C   UNL     1      10.891   3.648  -2.803  0.00  0.00    +0.088 C 
BRANCH  14  15
ATOM     15  C   UNL     1       9.980   4.773  -3.288  0.00  0.00    +0.003 C 
ATOM     17  C   UNL     1       8.990   4.254  -4.339  0.00  0.00    +0.005 C 
ATOM     18  C   UNL     1       9.237   5.416  -2.108  0.00  0.00    +0.005 C 
ATOM     19  C   UNL     1       8.031   5.350  -4.801  0.00  0.00    +0.000 C 
ATOM     20  C   UNL     1       8.279   6.510  -2.574  0.00  0.00    +0.000 C 
ATOM     21  C   UNL     1       7.301   5.992  -3.625  0.00  0.00    +0.000 C 
ENDBRANCH  14  15
ENDBRANCH   5  14
TORSDOF 5
ENDMDL
MODEL 5
REMARK VINA RESULT:      -7.3     25.918     28.388
REMARK  Name = 40467553
REMARK  6 active torsions:
REMARK  status: ('A' for Active; 'I' for Inactive)
REMARK    1  A    between atoms: S_1  and  N_7
REMARK    2  A    between atoms: S_1  and  C_26
REMARK    3  A    between atoms: N_5  and  C_14
REMARK    4  A    between atoms: N_7  and  C_24
REMARK    5  A    between atoms: C_14  and  C_15
REMARK    6  A    between atoms: C_31  and  C_32
REMARK                            x       y       z     vdW  Elec       q    Type
REMARK                         _______ _______ _______ _____ _____    ______ ____
ROOT
ATOM      2  O   UNL     1      10.381   4.394   2.528  0.00  0.00    -0.266 OA
ATOM      5  N   UNL     1       9.152   7.958   5.841  0.00  0.00    -0.301 NA
ATOM      6  N   UNL     1      10.869   5.670   4.432  0.00  0.00    -0.310 N 
ATOM      8  C   UNL     1       9.471   5.582   6.576  0.00  0.00    +0.024 C 
ATOM      9  C   UNL     1      11.409   7.076   6.451  0.00  0.00    +0.050 C 
ATOM     10  C   UNL     1      10.778   5.952   7.267  0.00  0.00    +0.017 C 
ATOM     11  C   UNL     1       8.538   6.811   6.520  0.00  0.00    +0.089 C 
ATOM     12  C   UNL     1      10.458   8.295   6.428  0.00  0.00    +0.094 C 
ATOM     13  C   UNL     1       9.788   5.019   5.184  0.00  0.00    +0.130 C 
ATOM     16  C   UNL     1      11.712   6.612   5.037  0.00  0.00    +0.026 A 
ATOM     22  C   UNL     1      12.764   7.115   4.368  0.00  0.00    +0.024 A 
ATOM     23  C   UNL     1      11.076   5.228   3.108  0.00  0.00    +0.274 A 
ATOM     24  C   UNL     1      12.239   5.835   2.413  0.00  0.00    +0.112 A 
ATOM     25  C   UNL     1      13.039   6.718   3.013  0.00  0.00    +0.031 A 
ENDROOT
BRANCH  24   7
ATOM      7  N   UNL     1      12.539   5.476   1.088  0.00  0.00    -0.211 N 
ATOM     33  H   UNL     1      11.704   5.423   0.488  0.00  0.00    +0.174 HD
BRANCH   7   1
ATOM      1  S   UNL     1      13.650   4.219   0.864  0.00  0.00    +0.072 S 
ATOM      3  O   UNL     1      15.001   4.737   0.968  0.00  0.00    -0.150 OA
ATOM      4  O   UNL     1      13.248   3.066   1.646  0.00  0.00    -0.150 OA
BRANCH   1  26
ATOM     26  C   UNL     1      13.365   3.829  -0.837  0.00  0.00    +0.109 A 
ATOM     27  C   UNL     1      14.058   4.512  -1.836  0.00  0.00    +0.029 A 
ATOM     28  C   UNL     1      12.446   2.836  -1.181  0.00  0.00    +0.029 A 
ATOM     29  C   UNL     1      13.833   4.206  -3.178  0.00  0.00    +0.005 A 
ATOM     30  C   UNL     1      12.221   2.529  -2.522  0.00  0.00    +0.005 A 
ATOM     31  C   UNL     1      12.915   3.214  -3.521  0.00  0.00    -0.050 A 
ATOM     32  C   UNL     1      12.674   2.885  -4.956  0.00  0.00    +0.044 C 
ENDBRANCH   1  26
ENDBRANCH   7   1
ENDBRANCH  24   7
BRANCH   5  14
ATOM     14  C   UNL     1       8.260   9.114   5.853  0.00  0.00    +0.088 C 
BRANCH  14  15
ATOM     15  C   UNL     1       8.013   9.636   4.439  0.00  0.00    +0.003 C 
ATOM     17  C   UNL     1       8.330   8.553   3.399  0.00  0.00    +0.005 C 
ATOM     18  C   UNL     1       6.569  10.133   4.288  0.00  0.00    +0.005 C 
ATOM     19  C   UNL     1       8.040   9.033   1.978  0.00  0.00    +0.000 C 
ATOM     20  C   UNL     1       6.282  10.610   2.867  0.00  0.00    +0.000 C 
ATOM     21  C   UNL     1       6.606   9.534   1.835  0.00  0.00    +0.000 C 
ENDBRANCH  14  15
ENDBRANCH   5  14
TORSDOF 5
ENDMDL
MODEL 6
REMARK VINA RESULT:      -7.1     25.998     29.266
REMARK  Name = 40467553
REMARK  6 active torsions:
REMARK  status: ('A' for Active; 'I' for Inactive)
REMARK    1  A    between atoms: S_1  and  N_7
REMARK    2  A    between atoms: S_1  and  C_26
REMARK    3  A    between atoms: N_5  and  C_14
REMARK    4  A    between atoms: N_7  and  C_24
REMARK    5  A    between atoms: C_14  and  C_15
REMARK    6  A    between atoms: C_31  and  C_32
REMARK                            x       y       z     vdW  Elec       q    Type
REMARK                         _______ _______ _______ _____ _____    ______ ____
ROOT
ATOM      2  O   UNL     1      10.960   4.200   3.721  0.00  0.00    -0.266 OA
ATOM      5  N   UNL     1      14.474   5.574   0.411  0.00  0.00    -0.301 NA
ATOM      6  N   UNL     1      11.607   4.744   1.536  0.00  0.00    -0.310 N 
ATOM      8  C   UNL     1      13.298   3.370   0.189  0.00  0.00    +0.024 C 
ATOM      9  C   UNL     1      12.299   5.375  -0.803  0.00  0.00    +0.050 C 
ATOM     10  C   UNL     1      12.527   3.881  -1.021  0.00  0.00    +0.017 C 
ATOM     11  C   UNL     1      14.643   4.118   0.314  0.00  0.00    +0.089 C 
ATOM     12  C   UNL     1      13.663   6.096  -0.698  0.00  0.00    +0.094 C 
ATOM     13  C   UNL     1      12.420   3.524   1.438  0.00  0.00    +0.130 C 
ATOM     16  C   UNL     1      11.473   5.617   0.448  0.00  0.00    +0.026 A 
ATOM     22  C   UNL     1      10.638   6.669   0.517  0.00  0.00    +0.024 A 
ATOM     23  C   UNL     1      10.896   4.938   2.739  0.00  0.00    +0.274 A 
ATOM     24  C   UNL     1      10.008   6.127   2.763  0.00  0.00    +0.112 A 
ATOM     25  C   UNL     1       9.881   6.937   1.710  0.00  0.00    +0.031 A 
ENDROOT
BRANCH  24   7
ATOM      7  N   UNL     1       9.254   6.426   3.911  0.00  0.00    -0.211 N 
ATOM     33  H   UNL     1       8.256   6.570   3.708  0.00  0.00    +0.174 HD
BRANCH   7   1
ATOM      1  S   UNL     1       9.920   7.534   5.003  0.00  0.00    +0.072 S 
ATOM      3  O   UNL     1      11.352   7.632   4.788  0.00  0.00    -0.150 OA
ATOM      4  O   UNL     1       9.103   8.733   5.042  0.00  0.00    -0.150 OA
BRANCH   1  26
ATOM     26  C   UNL     1       9.674   6.677   6.531  0.00  0.00    +0.109 A 
ATOM     27  C   UNL     1       9.111   7.342   7.620  0.00  0.00    +0.029 A 
ATOM     28  C   UNL     1      10.043   5.337   6.646  0.00  0.00    +0.029 A 
ATOM     29  C   UNL     1       8.917   6.667   8.826  0.00  0.00    +0.005 A 
ATOM     30  C   UNL     1       9.849   4.662   7.851  0.00  0.00    +0.005 A 
ATOM     31  C   UNL     1       9.286   5.327   8.941  0.00  0.00    -0.050 A 
ATOM     32  C   UNL     1       9.078   4.605  10.230  0.00  0.00    +0.044 C 
ENDBRANCH   1  26
ENDBRANCH   7   1
ENDBRANCH  24   7
BRANCH   5  14
ATOM     14  C   UNL     1      15.768   6.248   0.477  0.00  0.00    +0.088 C 
BRANCH  14  15
ATOM     15  C   UNL     1      15.854   7.160   1.698  0.00  0.00    +0.003 C 
ATOM     17  C   UNL     1      15.662   8.628   1.293  0.00  0.00    +0.005 C 
ATOM     18  C   UNL     1      14.823   6.746   2.758  0.00  0.00    +0.005 C 
ATOM     19  C   UNL     1      15.690   9.556   2.506  0.00  0.00    +0.000 C 
ATOM     20  C   UNL     1      14.853   7.677   3.967  0.00  0.00    +0.000 C 
ATOM     21  C   UNL     1      14.670   9.136   3.560  0.00  0.00    +0.000 C 
ENDBRANCH  14  15
ENDBRANCH   5  14
TORSDOF 5
ENDMDL
MODEL 7
REMARK VINA RESULT:      -7.0      7.071     11.209
REMARK  Name = 40467553
REMARK  6 active torsions:
REMARK  status: ('A' for Active; 'I' for Inactive)
REMARK    1  A    between atoms: S_1  and  N_7
REMARK    2  A    between atoms: S_1  and  C_26
REMARK    3  A    between atoms: N_5  and  C_14
REMARK    4  A    between atoms: N_7  and  C_24
REMARK    5  A    between atoms: C_14  and  C_15
REMARK    6  A    between atoms: C_31  and  C_32
REMARK                            x       y       z     vdW  Elec       q    Type
REMARK                         _______ _______ _______ _____ _____    ______ ____
ROOT
ATOM      2  O   UNL     1      -4.239 -12.875   9.496  0.00  0.00    -0.266 OA
ATOM      5  N   UNL     1      -4.024 -13.415  14.481  0.00  0.00    -0.301 NA
ATOM      6  N   UNL     1      -3.068 -12.718  11.520  0.00  0.00    -0.310 N 
ATOM      8  C   UNL     1      -2.517 -14.747  12.984  0.00  0.00    +0.024 C 
ATOM      9  C   UNL     1      -1.830 -12.508  13.703  0.00  0.00    +0.050 C 
ATOM     10  C   UNL     1      -1.317 -13.917  13.423  0.00  0.00    +0.017 C 
ATOM     11  C   UNL     1      -3.584 -14.763  14.099  0.00  0.00    +0.089 C 
ATOM     12  C   UNL     1      -2.884 -12.557  14.834  0.00  0.00    +0.094 C 
ATOM     13  C   UNL     1      -3.054 -14.180  11.662  0.00  0.00    +0.130 C 
ATOM     16  C   UNL     1      -2.424 -11.891  12.450  0.00  0.00    +0.026 A 
ATOM     22  C   UNL     1      -2.352 -10.563  12.246  0.00  0.00    +0.024 A 
ATOM     23  C   UNL     1      -3.673 -12.200  10.355  0.00  0.00    +0.274 A 
ATOM     24  C   UNL     1      -3.580 -10.727  10.197  0.00  0.00    +0.112 A 
ATOM     25  C   UNL     1      -2.947  -9.958  11.086  0.00  0.00    +0.031 A 
ENDROOT
BRANCH  24   7
ATOM      7  N   UNL     1      -4.152 -10.097   9.078  0.00  0.00    -0.211 N 
ATOM     33  H   UNL     1      -3.479  -9.516   8.558  0.00  0.00    +0.174 HD
BRANCH   7   1
ATOM      1  S   UNL     1      -5.677  -9.394   9.287  0.00  0.00    +0.072 S 
ATOM      3  O   UNL     1      -6.510 -10.265  10.095  0.00  0.00    -0.150 OA
ATOM      4  O   UNL     1      -5.527  -7.994   9.638  0.00  0.00    -0.150 OA
BRANCH   1  26
ATOM     26  C   UNL     1      -6.297  -9.459   7.631  0.00  0.00    +0.109 A 
ATOM     27  C   UNL     1      -7.357  -8.636   7.251  0.00  0.00    +0.029 A 
ATOM     28  C   UNL     1      -5.726 -10.333   6.706  0.00  0.00    +0.029 A 
ATOM     29  C   UNL     1      -7.847  -8.688   5.945  0.00  0.00    +0.005 A 
ATOM     30  C   UNL     1      -6.215 -10.385   5.401  0.00  0.00    +0.005 A 
ATOM     31  C   UNL     1      -7.276  -9.562   5.021  0.00  0.00    -0.050 A 
ATOM     32  C   UNL     1      -7.799  -9.616   3.625  0.00  0.00    +0.044 C 
ENDBRANCH   1  26
ENDBRANCH   7   1
ENDBRANCH  24   7
BRANCH   5  14
ATOM     14  C   UNL     1      -4.995 -13.471  15.571  0.00  0.00    +0.088 C 
BRANCH  14  15
ATOM     15  C   UNL     1      -4.728 -12.377  16.603  0.00  0.00    +0.003 C 
ATOM     17  C   UNL     1      -5.755 -11.245  16.470  0.00  0.00    +0.005 C 
ATOM     18  C   UNL     1      -4.736 -12.958  18.024  0.00  0.00    +0.005 C 
ATOM     19  C   UNL     1      -5.543 -10.163  17.527  0.00  0.00    +0.000 C 
ATOM     20  C   UNL     1      -4.525 -11.874  19.077  0.00  0.00    +0.000 C 
ATOM     21  C   UNL     1      -5.543 -10.746  18.937  0.00  0.00    +0.000 C 
ENDBRANCH  14  15
ENDBRANCH   5  14
TORSDOF 5
ENDMDL
MODEL 8
REMARK VINA RESULT:      -7.0     26.795     29.154
REMARK  Name = 40467553
REMARK  6 active torsions:
REMARK  status: ('A' for Active; 'I' for Inactive)
REMARK    1  A    between atoms: S_1  and  N_7
REMARK    2  A    between atoms: S_1  and  C_26
REMARK    3  A    between atoms: N_5  and  C_14
REMARK    4  A    between atoms: N_7  and  C_24
REMARK    5  A    between atoms: C_14  and  C_15
REMARK    6  A    between atoms: C_31  and  C_32
REMARK                            x       y       z     vdW  Elec       q    Type
REMARK                         _______ _______ _______ _____ _____    ______ ____
ROOT
ATOM      2  O   UNL     1      12.453   7.665   3.086  0.00  0.00    -0.266 OA
ATOM      5  N   UNL     1      13.206   4.562  -0.786  0.00  0.00    -0.301 NA
ATOM      6  N   UNL     1      12.904   5.528   2.239  0.00  0.00    -0.310 N 
ATOM      8  C   UNL     1      15.016   4.963   0.903  0.00  0.00    +0.024 C 
ATOM      9  C   UNL     1      13.342   3.223   1.320  0.00  0.00    +0.050 C 
ATOM     10  C   UNL     1      14.823   3.564   1.472  0.00  0.00    +0.017 C 
ATOM     11  C   UNL     1      14.595   4.993  -0.582  0.00  0.00    +0.089 C 
ATOM     12  C   UNL     1      12.958   3.246  -0.177  0.00  0.00    +0.094 C 
ATOM     13  C   UNL     1      14.224   5.960   1.760  0.00  0.00    +0.130 C 
ATOM     16  C   UNL     1      12.482   4.198   2.105  0.00  0.00    +0.026 A 
ATOM     22  C   UNL     1      11.319   3.793   2.646  0.00  0.00    +0.024 A 
ATOM     23  C   UNL     1      12.131   6.489   2.922  0.00  0.00    +0.274 A 
ATOM     24  C   UNL     1      10.848   5.989   3.478  0.00  0.00    +0.112 A 
ATOM     25  C   UNL     1      10.472   4.715   3.354  0.00  0.00    +0.031 A 
ENDROOT
BRANCH  24   7
ATOM      7  N   UNL     1       9.990   6.858   4.174  0.00  0.00    -0.211 N 
ATOM     33  H   UNL     1      10.093   7.840   3.883  0.00  0.00    +0.174 HD
BRANCH   7   1
ATOM      1  S   UNL     1       9.852   6.628   5.846  0.00  0.00    +0.072 S 
ATOM      3  O   UNL     1       8.627   5.910   6.140  0.00  0.00    -0.150 OA
ATOM      4  O   UNL     1      11.118   6.164   6.381  0.00  0.00    -0.150 OA
BRANCH   1  26
ATOM     26  C   UNL     1       9.630   8.297   6.389  0.00  0.00    +0.109 A 
ATOM     27  C   UNL     1       9.244   9.280   5.479  0.00  0.00    +0.029 A 
ATOM     28  C   UNL     1       9.840   8.629   7.728  0.00  0.00    +0.029 A 
ATOM     29  C   UNL     1       9.069  10.597   5.906  0.00  0.00    +0.005 A 
ATOM     30  C   UNL     1       9.665   9.945   8.155  0.00  0.00    +0.005 A 
ATOM     31  C   UNL     1       9.279  10.929   7.244  0.00  0.00    -0.050 A 
ATOM     32  C   UNL     1       9.091  12.336   7.702  0.00  0.00    +0.044 C 
ENDBRANCH   1  26
ENDBRANCH   7   1
ENDBRANCH  24   7
BRANCH   5  14
ATOM     14  C   UNL     1      12.863   4.555  -2.205  0.00  0.00    +0.088 C 
BRANCH  14  15
ATOM     15  C   UNL     1      11.416   4.117  -2.420  0.00  0.00    +0.003 C 
ATOM     17  C   UNL     1      10.548   5.306  -2.852  0.00  0.00    +0.005 C 
ATOM     18  C   UNL     1      11.341   2.982  -3.452  0.00  0.00    +0.005 C 
ATOM     19  C   UNL     1       9.106   4.882  -3.126  0.00  0.00    +0.000 C 
ATOM     20  C   UNL     1       9.898   2.563  -3.724  0.00  0.00    +0.000 C 
ATOM     21  C   UNL     1       9.036   3.750  -4.145  0.00  0.00    +0.000 C 
ENDBRANCH  14  15
ENDBRANCH   5  14
TORSDOF 5
ENDMDL
MODEL 9
REMARK VINA RESULT:      -6.9     26.257     29.174
REMARK  Name = 40467553
REMARK  6 active torsions:
REMARK  status: ('A' for Active; 'I' for Inactive)
REMARK    1  A    between atoms: S_1  and  N_7
REMARK    2  A    between atoms: S_1  and  C_26
REMARK    3  A    between atoms: N_5  and  C_14
REMARK    4  A    between atoms: N_7  and  C_24
REMARK    5  A    between atoms: C_14  and  C_15
REMARK    6  A    between atoms: C_31  and  C_32
REMARK                            x       y       z     vdW  Elec       q    Type
REMARK                         _______ _______ _______ _____ _____    ______ ____
ROOT
ATOM      2  O   UNL     1      10.120   6.809   1.490  0.00  0.00    -0.266 OA
ATOM      5  N   UNL     1      11.170   8.162   6.208  0.00  0.00    -0.301 NA
ATOM      6  N   UNL     1       9.770   6.610   3.799  0.00  0.00    -0.310 N 
ATOM      8  C   UNL     1       8.879   8.522   5.253  0.00  0.00    +0.024 C 
ATOM      9  C   UNL     1       9.432   6.369   6.283  0.00  0.00    +0.050 C 
ATOM     10  C   UNL     1       8.321   7.403   6.122  0.00  0.00    +0.017 C 
ATOM     11  C   UNL     1      10.118   9.148   5.929  0.00  0.00    +0.089 C 
ATOM     12  C   UNL     1      10.649   7.023   6.977  0.00  0.00    +0.094 C 
ATOM     13  C   UNL     1       9.191   7.959   3.859  0.00  0.00    +0.130 C 
ATOM     16  C   UNL     1       9.833   5.795   4.936  0.00  0.00    +0.026 A 
ATOM     22  C   UNL     1      10.264   4.524   4.841  0.00  0.00    +0.024 A 
ATOM     23  C   UNL     1      10.166   6.147   2.527  0.00  0.00    +0.274 A 
ATOM     24  C   UNL     1      10.653   4.745   2.489  0.00  0.00    +0.112 A 
ATOM     25  C   UNL     1      10.688   3.978   3.581  0.00  0.00    +0.031 A 
ENDROOT
BRANCH  24   7
ATOM      7  N   UNL     1      11.080   4.175   1.276  0.00  0.00    -0.211 N 
ATOM     33  H   UNL     1      10.552   3.329   1.024  0.00  0.00    +0.174 HD
BRANCH   7   1
ATOM      1  S   UNL     1      12.750   4.068   1.023  0.00  0.00    +0.072 S 
ATOM      3  O   UNL     1      13.364   5.360   1.263  0.00  0.00    -0.150 OA
ATOM      4  O   UNL     1      13.268   2.880   1.674  0.00  0.00    -0.150 OA
BRANCH   1  26
ATOM     26  C   UNL     1      12.798   3.777  -0.722  0.00  0.00    +0.109 A 
ATOM     27  C   UNL     1      13.782   4.383  -1.502  0.00  0.00    +0.029 A 
ATOM     28  C   UNL     1      11.853   2.941  -1.316  0.00  0.00    +0.029 A 
ATOM     29  C   UNL     1      13.820   4.155  -2.878  0.00  0.00    +0.005 A 
ATOM     30  C   UNL     1      11.890   2.712  -2.691  0.00  0.00    +0.005 A 
ATOM     31  C   UNL     1      12.875   3.319  -3.472  0.00  0.00    -0.050 A 
ATOM     32  C   UNL     1      12.916   3.074  -4.943  0.00  0.00    +0.044 C 
ENDBRANCH   1  26
ENDBRANCH   7   1
ENDBRANCH  24   7
BRANCH   5  14
ATOM     14  C   UNL     1      12.302   8.782   6.892  0.00  0.00    +0.088 C 
BRANCH  14  15
ATOM     15  C   UNL     1      13.629   8.254   6.354  0.00  0.00    +0.003 C 
ATOM     17  C   UNL     1      13.468   7.751   4.913  0.00  0.00    +0.005 C 
ATOM     18  C   UNL     1      14.717   9.335   6.437  0.00  0.00    +0.005 C 
ATOM     19  C   UNL     1      14.795   7.266   4.333  0.00  0.00    +0.000 C 
ATOM     20  C   UNL     1      16.041   8.847   5.854  0.00  0.00    +0.000 C 
ATOM     21  C   UNL     1      15.875   8.340   4.424  0.00  0.00    +0.000 C 
ENDBRANCH  14  15
ENDBRANCH   5  14
TORSDOF 5
ENDMDL
MODEL 10
REMARK VINA RESULT:      -6.8      5.269      7.202
REMARK  Name = 40467553
REMARK  6 active torsions:
REMARK  status: ('A' for Active; 'I' for Inactive)
REMARK    1  A    between atoms: S_1  and  N_7
REMARK    2  A    between atoms: S_1  and  C_26
REMARK    3  A    between atoms: N_5  and  C_14
REMARK    4  A    between atoms: N_7  and  C_24
REMARK    5  A    between atoms: C_14  and  C_15
REMARK    6  A    between atoms: C_31  and  C_32
REMARK                            x       y       z     vdW  Elec       q    Type
REMARK                         _______ _______ _______ _____ _____    ______ ____
ROOT
ATOM      2  O   UNL     1      -6.211 -13.360  15.356  0.00  0.00    -0.266 OA
ATOM      5  N   UNL     1      -9.574 -11.237  18.418  0.00  0.00    -0.301 NA
ATOM      6  N   UNL     1      -7.175 -13.116  17.478  0.00  0.00    -0.310 N 
ATOM      8  C   UNL     1      -9.615 -13.707  17.988  0.00  0.00    +0.024 C 
ATOM      9  C   UNL     1      -8.184 -12.816  19.766  0.00  0.00    +0.050 C 
ATOM     10  C   UNL     1      -9.099 -13.979  19.396  0.00  0.00    +0.017 C 
ATOM     11  C   UNL     1     -10.386 -12.370  17.958  0.00  0.00    +0.089 C 
ATOM     12  C   UNL     1      -8.990 -11.496  19.742  0.00  0.00    +0.094 C 
ATOM     13  C   UNL     1      -8.429 -13.725  17.014  0.00  0.00    +0.130 C 
ATOM     16  C   UNL     1      -7.003 -12.735  18.815  0.00  0.00    +0.026 A 
ATOM     22  C   UNL     1      -5.813 -12.282  19.248  0.00  0.00    +0.024 A 
ATOM     23  C   UNL     1      -6.127 -13.028  16.538  0.00  0.00    +0.274 A 
ATOM     24  C   UNL     1      -4.845 -12.500  17.069  0.00  0.00    +0.112 A 
ATOM     25  C   UNL     1      -4.697 -12.158  18.350  0.00  0.00    +0.031 A 
ENDROOT
BRANCH  24   7
ATOM      7  N   UNL     1      -3.731 -12.361  16.222  0.00  0.00    -0.211 N 
ATOM     33  H   UNL     1      -3.008 -13.074  16.392  0.00  0.00    +0.174 HD
BRANCH   7   1
ATOM      1  S   UNL     1      -3.137 -10.794  15.984  0.00  0.00    +0.072 S 
ATOM      3  O   UNL     1      -4.041  -9.832  16.584  0.00  0.00    -0.150 OA
ATOM      4  O   UNL     1      -1.720 -10.757  16.292  0.00  0.00    -0.150 OA
BRANCH   1  26
ATOM     26  C   UNL     1      -3.299 -10.646  14.228  0.00  0.00    +0.109 A 
ATOM     27  C   UNL     1      -2.161 -10.598  13.424  0.00  0.00    +0.029 A 
ATOM     28  C   UNL     1      -4.566 -10.579  13.648  0.00  0.00    +0.029 A 
ATOM     29  C   UNL     1      -2.288 -10.481  12.040  0.00  0.00    +0.005 A 
ATOM     30  C   UNL     1      -4.694 -10.462  12.264  0.00  0.00    +0.005 A 
ATOM     31  C   UNL     1      -3.554 -10.413  11.460  0.00  0.00    -0.050 A 
ATOM     32  C   UNL     1      -3.691 -10.288   9.980  0.00  0.00    +0.044 C 
ENDBRANCH   1  26
ENDBRANCH   7   1
ENDBRANCH  24   7
BRANCH   5  14
ATOM     14  C   UNL     1     -10.352 -10.001  18.422  0.00  0.00    +0.088 C 
BRANCH  14  15
ATOM     15  C   UNL     1     -11.803 -10.265  18.819  0.00  0.00    +0.003 C 
ATOM     17  C   UNL     1     -12.028  -9.939  20.301  0.00  0.00    +0.005 C 
ATOM     18  C   UNL     1     -12.763  -9.461  17.930  0.00  0.00    +0.005 C 
ATOM     19  C   UNL     1     -13.485 -10.144  20.709  0.00  0.00    +0.000 C 
ATOM     20  C   UNL     1     -14.218  -9.667  18.343  0.00  0.00    +0.000 C 
ATOM     21  C   UNL     1     -14.437  -9.349  19.819  0.00  0.00    +0.000 C 
ENDBRANCH  14  15
ENDBRANCH   5  14
TORSDOF 5
ENDMDL
