MODEL 1
REMARK VINA RESULT:      -7.0      0.000      0.000
REMARK  Name = 9424316
REMARK  4 active torsions:
REMARK  status: ('A' for Active; 'I' for Inactive)
REMARK    1  A    between atoms: N_6  and  C_10
REMARK    2  A    between atoms: N_8  and  C_24
REMARK    3  A    between atoms: C_21  and  C_23
REMARK    4  A    between atoms: C_24  and  C_27
REMARK                            x       y       z     vdW  Elec       q    Type
REMARK                         _______ _______ _______ _____ _____    ______ ____
ROOT
ATOM      2  O   UNL     1       8.818   7.868   2.949  0.00  0.00    -0.273 OA
ATOM      3  O   UNL     1       8.529   7.334   8.129  0.00  0.00    -0.270 OA
ATOM      5  N   UNL     1       9.470   7.016   6.032  0.00  0.00    -0.286 N 
ATOM      7  N   UNL     1       8.633   9.457   4.583  0.00  0.00    -0.283 N 
ATOM      9  C   UNL     1      10.200   7.592   4.909  0.00  0.00    +0.164 C 
ATOM     10  C   UNL     1      10.426   5.230   3.930  0.00  0.00    +0.078 C 
ATOM     11  C   UNL     1      11.074   6.598   4.135  0.00  0.00    +0.054 C 
ATOM     12  C   UNL     1       9.948   4.689   5.272  0.00  0.00    +0.041 C 
ATOM     13  C   UNL     1       8.958   5.650   5.908  0.00  0.00    +0.111 C 
ATOM     14  C   UNL     1       9.148   8.285   4.061  0.00  0.00    +0.238 C 
ATOM     15  C   UNL     1       9.055   7.792   7.114  0.00  0.00    +0.249 C 
ATOM     16  C   UNL     1       9.182   9.271   7.022  0.00  0.00    +0.059 A 
ATOM     17  C   UNL     1       8.868  10.007   5.865  0.00  0.00    +0.046 A 
ATOM     19  C   UNL     1       9.433   9.947   8.228  0.00  0.00    +0.023 A 
ATOM     20  C   UNL     1       8.747  11.404   5.961  0.00  0.00    +0.024 A 
ATOM     21  C   UNL     1       9.358  11.337   8.292  0.00  0.00    -0.017 A 
ATOM     22  C   UNL     1       9.002  12.065   7.162  0.00  0.00    +0.010 A 
ATOM     33  H   UNL     1       8.107  10.037   3.935  0.00  0.00    +0.155 HD
ENDROOT
BRANCH  21  23
ATOM      1 CL   UNL     1      10.452  14.155  13.426  0.00  0.00    -0.084 Cl
ATOM     23  C   UNL     1       9.624  12.021   9.539  0.00  0.00    -0.018 A 
ATOM     25  C   UNL     1       8.884  11.707  10.678  0.00  0.00    +0.010 A 
ATOM     26  C   UNL     1      10.621  12.995   9.602  0.00  0.00    +0.010 A 
ATOM     28  C   UNL     1       9.140  12.367  11.881  0.00  0.00    +0.020 A 
ATOM     29  C   UNL     1      10.877  13.655  10.804  0.00  0.00    +0.020 A 
ATOM     30  C   UNL     1      10.137  13.340  11.943  0.00  0.00    +0.041 A 
ENDBRANCH  21  23
BRANCH  10   6
ATOM      4  O   UNL     1      11.132   5.101   1.134  0.00  0.00    -0.253 OA
ATOM      6  N   UNL     1      11.352   4.314   3.307  0.00  0.00    -0.296 N 
ATOM      8  N   UNL     1      12.560   3.335   1.610  0.00  0.00    -0.296 N 
ATOM     18  C   UNL     1      11.635   4.322   1.943  0.00  0.00    +0.300 C 
ATOM     32  H   UNL     1      11.875   3.677   3.901  0.00  0.00    +0.151 HD
ATOM     34  H   UNL     1      12.935   2.750   2.350  0.00  0.00    +0.151 HD
BRANCH   8  24
ATOM     24  C   UNL     1      13.029   3.125   0.262  0.00  0.00    +0.132 C 
BRANCH  24  27
ATOM     27  C   UNL     1      14.338   3.821   0.086  0.00  0.00    -0.016 C 
ATOM     31  C   UNL     1      15.306   3.833   1.008  0.00  0.00    +0.005 C 
ENDBRANCH  24  27
ENDBRANCH   8  24
ENDBRANCH  10   6
TORSDOF 4
ENDMDL
MODEL 2
REMARK VINA RESULT:      -6.9      4.039     10.360
REMARK  Name = 9424316
REMARK  4 active torsions:
REMARK  status: ('A' for Active; 'I' for Inactive)
REMARK    1  A    between atoms: N_6  and  C_10
REMARK    2  A    between atoms: N_8  and  C_24
REMARK    3  A    between atoms: C_21  and  C_23
REMARK    4  A    between atoms: C_24  and  C_27
REMARK                            x       y       z     vdW  Elec       q    Type
REMARK                         _______ _______ _______ _____ _____    ______ ____
ROOT
ATOM      2  O   UNL     1       8.668   7.397   8.466  0.00  0.00    -0.273 OA
ATOM      3  O   UNL     1       8.706   8.436   3.355  0.00  0.00    -0.270 OA
ATOM      5  N   UNL     1       9.328   8.748   5.569  0.00  0.00    -0.286 N 
ATOM      7  N   UNL     1       9.084   6.020   6.689  0.00  0.00    -0.283 N 
ATOM      9  C   UNL     1      10.086   8.264   6.716  0.00  0.00    +0.164 C 
ATOM     10  C   UNL     1       9.550  10.468   7.919  0.00  0.00    +0.078 C 
ATOM     11  C   UNL     1      10.573   9.359   7.672  0.00  0.00    +0.054 C 
ATOM     12  C   UNL     1       9.062  11.012   6.581  0.00  0.00    +0.041 C 
ATOM     13  C   UNL     1       8.443   9.901   5.750  0.00  0.00    +0.111 C 
ATOM     14  C   UNL     1       9.200   7.219   7.369  0.00  0.00    +0.238 C 
ATOM     15  C   UNL     1       9.246   8.022   4.381  0.00  0.00    +0.249 C 
ATOM     16  C   UNL     1       9.775   6.632   4.358  0.00  0.00    +0.059 A 
ATOM     17  C   UNL     1       9.578   5.708   5.401  0.00  0.00    +0.046 A 
ATOM     19  C   UNL     1      10.313   6.194   3.136  0.00  0.00    +0.023 A 
ATOM     20  C   UNL     1       9.864   4.352   5.169  0.00  0.00    +0.024 A 
ATOM     21  C   UNL     1      10.638   4.853   2.942  0.00  0.00    -0.017 A 
ATOM     22  C   UNL     1      10.401   3.930   3.953  0.00  0.00    +0.010 A 
ATOM     33  H   UNL     1       8.686   5.248   7.216  0.00  0.00    +0.155 HD
ENDROOT
BRANCH  21  23
ATOM      1 CL   UNL     1      12.935   3.058  -2.254  0.00  0.00    -0.084 Cl
ATOM     23  C   UNL     1      11.196   4.418   1.680  0.00  0.00    -0.018 A 
ATOM     25  C   UNL     1      10.543   4.723   0.486  0.00  0.00    +0.010 A 
ATOM     26  C   UNL     1      12.388   3.693   1.656  0.00  0.00    +0.010 A 
ATOM     28  C   UNL     1      11.080   4.301  -0.731  0.00  0.00    +0.020 A 
ATOM     29  C   UNL     1      12.926   3.273   0.440  0.00  0.00    +0.020 A 
ATOM     30  C   UNL     1      12.273   3.578  -0.753  0.00  0.00    +0.041 A 
ENDBRANCH  21  23
BRANCH  10   6
ATOM      4  O   UNL     1       8.269  11.902  10.072  0.00  0.00    -0.253 OA
ATOM      6  N   UNL     1      10.122  11.520   8.725  0.00  0.00    -0.296 N 
ATOM      8  N   UNL     1      10.213  13.135  10.362  0.00  0.00    -0.296 N 
ATOM     18  C   UNL     1       9.428  12.161   9.749  0.00  0.00    +0.300 C 
ATOM     32  H   UNL     1      11.099  11.760   8.585  0.00  0.00    +0.151 HD
ATOM     34  H   UNL     1      11.167  13.266  10.039  0.00  0.00    +0.151 HD
BRANCH   8  24
ATOM     24  C   UNL     1       9.739  13.949  11.455  0.00  0.00    +0.132 C 
BRANCH  24  27
ATOM     27  C   UNL     1       9.988  13.233  12.741  0.00  0.00    -0.016 C 
ATOM     31  C   UNL     1       9.043  12.578  13.425  0.00  0.00    +0.005 C 
ENDBRANCH  24  27
ENDBRANCH   8  24
ENDBRANCH  10   6
TORSDOF 4
ENDMDL
MODEL 3
REMARK VINA RESULT:      -6.8     39.906     42.306
REMARK  Name = 9424316
REMARK  4 active torsions:
REMARK  status: ('A' for Active; 'I' for Inactive)
REMARK    1  A    between atoms: N_6  and  C_10
REMARK    2  A    between atoms: N_8  and  C_24
REMARK    3  A    between atoms: C_21  and  C_23
REMARK    4  A    between atoms: C_24  and  C_27
REMARK                            x       y       z     vdW  Elec       q    Type
REMARK                         _______ _______ _______ _____ _____    ______ ____
ROOT
ATOM      2  O   UNL     1      -6.239  -9.732  41.492  0.00  0.00    -0.273 OA
ATOM      3  O   UNL     1     -10.284  -7.947  38.724  0.00  0.00    -0.270 OA
ATOM      5  N   UNL     1      -8.042  -8.115  39.304  0.00  0.00    -0.286 N 
ATOM      7  N   UNL     1      -7.864 -10.874  40.359  0.00  0.00    -0.283 N 
ATOM      9  C   UNL     1      -6.825  -8.917  39.297  0.00  0.00    +0.164 C 
ATOM     10  C   UNL     1      -5.545  -6.862  40.152  0.00  0.00    +0.078 C 
ATOM     11  C   UNL     1      -5.524  -8.106  39.265  0.00  0.00    +0.054 C 
ATOM     12  C   UNL     1      -6.779  -6.029  39.825  0.00  0.00    +0.041 C 
ATOM     13  C   UNL     1      -8.042  -6.846  40.036  0.00  0.00    +0.111 C 
ATOM     14  C   UNL     1      -6.950  -9.845  40.491  0.00  0.00    +0.238 C 
ATOM     15  C   UNL     1      -9.256  -8.617  38.834  0.00  0.00    +0.249 C 
ATOM     16  C   UNL     1      -9.351 -10.066  38.510  0.00  0.00    +0.059 A 
ATOM     17  C   UNL     1      -8.786 -11.079  39.307  0.00  0.00    +0.046 A 
ATOM     19  C   UNL     1     -10.227 -10.410  37.466  0.00  0.00    +0.023 A 
ATOM     20  C   UNL     1      -9.166 -12.412  39.079  0.00  0.00    +0.024 A 
ATOM     21  C   UNL     1     -10.552 -11.743  37.224  0.00  0.00    -0.017 A 
ATOM     22  C   UNL     1     -10.033 -12.743  38.038  0.00  0.00    +0.010 A 
ATOM     33  H   UNL     1      -7.795 -11.620  41.047  0.00  0.00    +0.155 HD
ENDROOT
BRANCH  21  23
ATOM      1 CL   UNL     1     -14.250 -13.145  32.767  0.00  0.00    -0.084 Cl
ATOM     23  C   UNL     1     -11.451 -12.084  36.142  0.00  0.00    -0.018 A 
ATOM     25  C   UNL     1     -11.224 -13.232  35.382  0.00  0.00    +0.010 A 
ATOM     26  C   UNL     1     -12.545 -11.265  35.858  0.00  0.00    +0.010 A 
ATOM     28  C   UNL     1     -12.090 -13.559  34.338  0.00  0.00    +0.020 A 
ATOM     29  C   UNL     1     -13.410 -11.593  34.815  0.00  0.00    +0.020 A 
ATOM     30  C   UNL     1     -13.183 -12.741  34.055  0.00  0.00    +0.041 A 
ENDBRANCH  21  23
BRANCH  10   6
ATOM      4  O   UNL     1      -3.565  -6.243  42.159  0.00  0.00    -0.253 OA
ATOM      6  N   UNL     1      -4.340  -6.088  39.976  0.00  0.00    -0.296 N 
ATOM      8  N   UNL     1      -2.363  -5.065  40.561  0.00  0.00    -0.296 N 
ATOM     18  C   UNL     1      -3.435  -5.837  41.005  0.00  0.00    +0.300 C 
ATOM     32  H   UNL     1      -4.104  -5.767  39.041  0.00  0.00    +0.151 HD
ATOM     34  H   UNL     1      -2.332  -4.791  39.584  0.00  0.00    +0.151 HD
BRANCH   8  24
ATOM     24  C   UNL     1      -1.280  -4.660  41.425  0.00  0.00    +0.132 C 
BRANCH  24  27
ATOM     27  C   UNL     1      -1.341  -3.182  41.625  0.00  0.00    -0.016 C 
ATOM     31  C   UNL     1      -2.121  -2.584  42.532  0.00  0.00    +0.005 C 
ENDBRANCH  24  27
ENDBRANCH   8  24
ENDBRANCH  10   6
TORSDOF 4
ENDMDL
MODEL 4
REMARK VINA RESULT:      -6.8     25.337     28.465
REMARK  Name = 9424316
REMARK  4 active torsions:
REMARK  status: ('A' for Active; 'I' for Inactive)
REMARK    1  A    between atoms: N_6  and  C_10
REMARK    2  A    between atoms: N_8  and  C_24
REMARK    3  A    between atoms: C_21  and  C_23
REMARK    4  A    between atoms: C_24  and  C_27
REMARK                            x       y       z     vdW  Elec       q    Type
REMARK                         _______ _______ _______ _____ _____    ______ ____
ROOT
ATOM      2  O   UNL     1     -13.926   9.073  17.372  0.00  0.00    -0.273 OA
ATOM      3  O   UNL     1     -11.908   6.241  21.259  0.00  0.00    -0.270 OA
ATOM      5  N   UNL     1     -12.315   8.193  20.071  0.00  0.00    -0.286 N 
ATOM      7  N   UNL     1     -14.950   7.649  18.839  0.00  0.00    -0.283 N 
ATOM      9  C   UNL     1     -13.269   9.226  19.689  0.00  0.00    +0.164 C 
ATOM     10  C   UNL     1     -11.328  10.539  18.641  0.00  0.00    +0.078 C 
ATOM     11  C   UNL     1     -12.648  10.600  19.408  0.00  0.00    +0.054 C 
ATOM     12  C   UNL     1     -10.375   9.583  19.349  0.00  0.00    +0.041 C 
ATOM     13  C   UNL     1     -10.990   8.197  19.447  0.00  0.00    +0.111 C 
ATOM     14  C   UNL     1     -14.045   8.644  18.522  0.00  0.00    +0.238 C 
ATOM     15  C   UNL     1     -12.695   7.083  20.827  0.00  0.00    +0.249 C 
ATOM     16  C   UNL     1     -14.144   6.852  21.074  0.00  0.00    +0.059 A 
ATOM     17  C   UNL     1     -15.136   7.019  20.091  0.00  0.00    +0.046 A 
ATOM     19  C   UNL     1     -14.473   6.242  22.297  0.00  0.00    +0.023 A 
ATOM     20  C   UNL     1     -16.423   6.508  20.333  0.00  0.00    +0.024 A 
ATOM     21  C   UNL     1     -15.768   5.787  22.538  0.00  0.00    -0.017 A 
ATOM     22  C   UNL     1     -16.739   5.908  21.551  0.00  0.00    +0.010 A 
ATOM     33  H   UNL     1     -15.624   7.415  18.114  0.00  0.00    +0.155 HD
ENDROOT
BRANCH  21  23
ATOM      1 CL   UNL     1     -17.109   3.232  27.750  0.00  0.00    -0.084 Cl
ATOM     23  C   UNL     1     -16.094   5.166  23.803  0.00  0.00    -0.018 A 
ATOM     25  C   UNL     1     -17.023   5.764  24.654  0.00  0.00    +0.010 A 
ATOM     26  C   UNL     1     -15.480   3.969  24.173  0.00  0.00    +0.010 A 
ATOM     28  C   UNL     1     -17.337   5.166  25.875  0.00  0.00    +0.020 A 
ATOM     29  C   UNL     1     -15.793   3.371  25.393  0.00  0.00    +0.020 A 
ATOM     30  C   UNL     1     -16.722   3.969  26.244  0.00  0.00    +0.041 A 
ENDBRANCH  21  23
BRANCH  10   6
ATOM      4  O   UNL     1      -9.654  11.515  16.501  0.00  0.00    -0.253 OA
ATOM      6  N   UNL     1     -10.744  11.854  18.523  0.00  0.00    -0.296 N 
ATOM      8  N   UNL     1      -9.514  13.559  17.589  0.00  0.00    -0.296 N 
ATOM     18  C   UNL     1      -9.944  12.242  17.450  0.00  0.00    +0.300 C 
ATOM     32  H   UNL     1     -10.983  12.553  19.220  0.00  0.00    +0.151 HD
ATOM     34  H   UNL     1      -9.820  14.089  18.400  0.00  0.00    +0.151 HD
BRANCH   8  24
ATOM     24  C   UNL     1      -8.671  14.214  16.618  0.00  0.00    +0.132 C 
BRANCH  24  27
ATOM     27  C   UNL     1      -7.241  14.025  17.004  0.00  0.00    -0.016 C 
ATOM     31  C   UNL     1      -6.294  13.591  16.166  0.00  0.00    +0.005 C 
ENDBRANCH  24  27
ENDBRANCH   8  24
ENDBRANCH  10   6
TORSDOF 4
ENDMDL
MODEL 5
REMARK VINA RESULT:      -6.8      6.191      9.111
REMARK  Name = 9424316
REMARK  4 active torsions:
REMARK  status: ('A' for Active; 'I' for Inactive)
REMARK    1  A    between atoms: N_6  and  C_10
REMARK    2  A    between atoms: N_8  and  C_24
REMARK    3  A    between atoms: C_21  and  C_23
REMARK    4  A    between atoms: C_24  and  C_27
REMARK                            x       y       z     vdW  Elec       q    Type
REMARK                         _______ _______ _______ _____ _____    ______ ____
ROOT
ATOM      2  O   UNL     1       6.486  10.387  -0.445  0.00  0.00    -0.273 OA
ATOM      3  O   UNL     1       6.492  10.998   4.735  0.00  0.00    -0.270 OA
ATOM      5  N   UNL     1       5.521  10.586   2.667  0.00  0.00    -0.286 N 
ATOM      7  N   UNL     1       7.745   9.349   1.157  0.00  0.00    -0.283 N 
ATOM      9  C   UNL     1       5.341   9.664   1.553  0.00  0.00    +0.164 C 
ATOM     10  C   UNL     1       3.547  11.246   0.620  0.00  0.00    +0.078 C 
ATOM     11  C   UNL     1       4.002   9.800   0.819  0.00  0.00    +0.054 C 
ATOM     12  C   UNL     1       3.573  11.973   1.960  0.00  0.00    +0.041 C 
ATOM     13  C   UNL     1       4.971  11.938   2.555  0.00  0.00    +0.111 C 
ATOM     14  C   UNL     1       6.558   9.862   0.668  0.00  0.00    +0.238 C 
ATOM     15  C   UNL     1       6.384  10.300   3.726  0.00  0.00    +0.249 C 
ATOM     16  C   UNL     1       7.289   9.125   3.611  0.00  0.00    +0.059 A 
ATOM     17  C   UNL     1       7.983   8.791   2.434  0.00  0.00    +0.046 A 
ATOM     19  C   UNL     1       7.597   8.462   4.812  0.00  0.00    +0.023 A 
ATOM     20  C   UNL     1       9.019   7.845   2.503  0.00  0.00    +0.024 A 
ATOM     21  C   UNL     1       8.595   7.490   4.850  0.00  0.00    -0.017 A 
ATOM     22  C   UNL     1       9.315   7.191   3.700  0.00  0.00    +0.010 A 
ATOM     33  H   UNL     1       8.506   9.276   0.486  0.00  0.00    +0.155 HD
ENDROOT
BRANCH  21  23
ATOM      1 CL   UNL     1       9.841   4.696   9.962  0.00  0.00    -0.084 Cl
ATOM     23  C   UNL     1       8.898   6.812   6.091  0.00  0.00    -0.018 A 
ATOM     25  C   UNL     1       9.437   5.526   6.070  0.00  0.00    +0.010 A 
ATOM     26  C   UNL     1       8.652   7.444   7.311  0.00  0.00    +0.010 A 
ATOM     28  C   UNL     1       9.728   4.871   7.267  0.00  0.00    +0.020 A 
ATOM     29  C   UNL     1       8.944   6.790   8.507  0.00  0.00    +0.020 A 
ATOM     30  C   UNL     1       9.483   5.504   8.486  0.00  0.00    +0.041 A 
ENDBRANCH  21  23
BRANCH  10   6
ATOM      4  O   UNL     1       2.840  10.711  -2.127  0.00  0.00    -0.253 OA
ATOM      6  N   UNL     1       2.227  11.291   0.036  0.00  0.00    -0.296 N 
ATOM      8  N   UNL     1       0.620  11.134  -1.603  0.00  0.00    -0.296 N 
ATOM     18  C   UNL     1       1.976  11.017  -1.306  0.00  0.00    +0.300 C 
ATOM     32  H   UNL     1       1.434  11.463   0.647  0.00  0.00    +0.151 HD
ATOM     34  H   UNL     1      -0.024  11.373  -0.854  0.00  0.00    +0.151 HD
BRANCH   8  24
ATOM     24  C   UNL     1       0.084  10.903  -2.923  0.00  0.00    +0.132 C 
BRANCH  24  27
ATOM     27  C   UNL     1      -1.057   9.946  -2.827  0.00  0.00    -0.016 C 
ATOM     31  C   UNL     1      -1.626   9.576  -1.674  0.00  0.00    +0.005 C 
ENDBRANCH  24  27
ENDBRANCH   8  24
ENDBRANCH  10   6
TORSDOF 4
ENDMDL
MODEL 6
REMARK VINA RESULT:      -6.7     27.798     29.351
REMARK  Name = 9424316
REMARK  4 active torsions:
REMARK  status: ('A' for Active; 'I' for Inactive)
REMARK    1  A    between atoms: N_6  and  C_10
REMARK    2  A    between atoms: N_8  and  C_24
REMARK    3  A    between atoms: C_21  and  C_23
REMARK    4  A    between atoms: C_24  and  C_27
REMARK                            x       y       z     vdW  Elec       q    Type
REMARK                         _______ _______ _______ _____ _____    ______ ____
ROOT
ATOM      2  O   UNL     1     -14.502  -7.229  15.723  0.00  0.00    -0.273 OA
ATOM      3  O   UNL     1     -10.310  -9.712  13.862  0.00  0.00    -0.270 OA
ATOM      5  N   UNL     1     -11.696  -7.879  14.188  0.00  0.00    -0.286 N 
ATOM      7  N   UNL     1     -12.922  -8.469  16.816  0.00  0.00    -0.283 N 
ATOM      9  C   UNL     1     -12.199  -6.862  15.103  0.00  0.00    +0.164 C 
ATOM     10  C   UNL     1     -13.333  -5.717  13.105  0.00  0.00    +0.078 C 
ATOM     11  C   UNL     1     -12.603  -5.542  14.436  0.00  0.00    +0.054 C 
ATOM     12  C   UNL     1     -12.513  -6.624  12.194  0.00  0.00    +0.041 C 
ATOM     13  C   UNL     1     -12.289  -7.975  12.852  0.00  0.00    +0.111 C 
ATOM     14  C   UNL     1     -13.318  -7.536  15.875  0.00  0.00    +0.238 C 
ATOM     15  C   UNL     1     -10.840  -8.895  14.615  0.00  0.00    +0.249 C 
ATOM     16  C   UNL     1     -10.602  -9.059  16.074  0.00  0.00    +0.059 A 
ATOM     17  C   UNL     1     -11.617  -8.964  17.043  0.00  0.00    +0.046 A 
ATOM     19  C   UNL     1      -9.331  -9.533  16.444  0.00  0.00    +0.023 A 
ATOM     20  C   UNL     1     -11.352  -9.411  18.349  0.00  0.00    +0.024 A 
ATOM     21  C   UNL     1      -9.073  -9.924  17.756  0.00  0.00    -0.017 A 
ATOM     22  C   UNL     1     -10.086  -9.876  18.705  0.00  0.00    +0.010 A 
ATOM     33  H   UNL     1     -13.633  -8.755  17.484  0.00  0.00    +0.155 HD
ENDROOT
BRANCH  21  23
ATOM      1 CL   UNL     1      -3.660 -11.900  19.271  0.00  0.00    -0.084 Cl
ATOM     23  C   UNL     1      -7.758 -10.405  18.124  0.00  0.00    -0.018 A 
ATOM     25  C   UNL     1      -7.577 -11.087  19.326  0.00  0.00    +0.010 A 
ATOM     26  C   UNL     1      -6.672 -10.186  17.275  0.00  0.00    +0.010 A 
ATOM     28  C   UNL     1      -6.309 -11.549  19.682  0.00  0.00    +0.020 A 
ATOM     29  C   UNL     1      -5.406 -10.649  17.630  0.00  0.00    +0.020 A 
ATOM     30  C   UNL     1      -5.224 -11.331  18.833  0.00  0.00    +0.041 A 
ENDBRANCH  21  23
BRANCH  10   6
ATOM      4  O   UNL     1     -15.793  -4.792  11.911  0.00  0.00    -0.253 OA
ATOM      6  N   UNL     1     -13.569  -4.438  12.479  0.00  0.00    -0.296 N 
ATOM      8  N   UNL     1     -14.746  -2.788  11.389  0.00  0.00    -0.296 N 
ATOM     18  C   UNL     1     -14.795  -4.073  11.926  0.00  0.00    +0.300 C 
ATOM     32  H   UNL     1     -12.828  -3.743  12.503  0.00  0.00    +0.151 HD
ATOM     34  H   UNL     1     -13.881  -2.261  11.464  0.00  0.00    +0.151 HD
BRANCH   8  24
ATOM     24  C   UNL     1     -15.880  -2.163  10.754  0.00  0.00    +0.132 C 
BRANCH  24  27
ATOM     27  C   UNL     1     -15.486  -1.706   9.388  0.00  0.00    -0.016 C 
ATOM     31  C   UNL     1     -14.811  -2.462   8.515  0.00  0.00    +0.005 C 
ENDBRANCH  24  27
ENDBRANCH   8  24
ENDBRANCH  10   6
TORSDOF 4
ENDMDL
MODEL 7
REMARK VINA RESULT:      -6.7     27.417     30.521
REMARK  Name = 9424316
REMARK  4 active torsions:
REMARK  status: ('A' for Active; 'I' for Inactive)
REMARK    1  A    between atoms: N_6  and  C_10
REMARK    2  A    between atoms: N_8  and  C_24
REMARK    3  A    between atoms: C_21  and  C_23
REMARK    4  A    between atoms: C_24  and  C_27
REMARK                            x       y       z     vdW  Elec       q    Type
REMARK                         _______ _______ _______ _____ _____    ______ ____
ROOT
ATOM      2  O   UNL     1      -9.605 -11.365  20.464  0.00  0.00    -0.273 OA
ATOM      3  O   UNL     1      -8.578 -12.692  15.525  0.00  0.00    -0.270 OA
ATOM      5  N   UNL     1      -9.665 -11.513  17.204  0.00  0.00    -0.286 N 
ATOM      7  N   UNL     1      -7.616 -11.412  19.336  0.00  0.00    -0.283 N 
ATOM      9  C   UNL     1      -9.594 -10.472  18.222  0.00  0.00    +0.164 C 
ATOM     10  C   UNL     1     -12.131 -10.705  18.541  0.00  0.00    +0.078 C 
ATOM     11  C   UNL     1     -10.925  -9.767  18.510  0.00  0.00    +0.054 C 
ATOM     12  C   UNL     1     -12.158 -11.537  17.264  0.00  0.00    +0.041 C 
ATOM     13  C   UNL     1     -10.874 -12.337  17.125  0.00  0.00    +0.111 C 
ATOM     14  C   UNL     1      -8.969 -11.139  19.433  0.00  0.00    +0.238 C 
ATOM     15  C   UNL     1      -8.546 -11.895  16.463  0.00  0.00    +0.249 C 
ATOM     16  C   UNL     1      -7.213 -11.370  16.863  0.00  0.00    +0.059 A 
ATOM     17  C   UNL     1      -6.786 -11.270  18.200  0.00  0.00    +0.046 A 
ATOM     19  C   UNL     1      -6.290 -11.167  15.823  0.00  0.00    +0.023 A 
ATOM     20  C   UNL     1      -5.427 -11.035  18.463  0.00  0.00    +0.024 A 
ATOM     21  C   UNL     1      -4.954 -10.884  16.104  0.00  0.00    -0.017 A 
ATOM     22  C   UNL     1      -4.520 -10.832  17.423  0.00  0.00    +0.010 A 
ATOM     33  H   UNL     1      -7.148 -11.645  20.208  0.00  0.00    +0.155 HD
ENDROOT
BRANCH  21  23
ATOM      1 CL   UNL     1      -1.090 -10.014  11.654  0.00  0.00    -0.084 Cl
ATOM     23  C   UNL     1      -4.016 -10.672  15.023  0.00  0.00    -0.018 A 
ATOM     25  C   UNL     1      -4.471 -10.611  13.706  0.00  0.00    +0.010 A 
ATOM     26  C   UNL     1      -2.655 -10.528  15.298  0.00  0.00    +0.010 A 
ATOM     28  C   UNL     1      -3.566 -10.408  12.664  0.00  0.00    +0.020 A 
ATOM     29  C   UNL     1      -1.751 -10.325  14.256  0.00  0.00    +0.020 A 
ATOM     30  C   UNL     1      -2.206 -10.264  12.939  0.00  0.00    +0.041 A 
ENDBRANCH  21  23
BRANCH  10   6
ATOM      4  O   UNL     1     -13.748 -10.481  20.922  0.00  0.00    -0.253 OA
ATOM      6  N   UNL     1     -13.356  -9.957  18.694  0.00  0.00    -0.296 N 
ATOM      8  N   UNL     1     -15.216  -9.114  19.755  0.00  0.00    -0.296 N 
ATOM     18  C   UNL     1     -14.076  -9.904  19.886  0.00  0.00    +0.300 C 
ATOM     32  H   UNL     1     -13.674  -9.386  17.916  0.00  0.00    +0.151 HD
ATOM     34  H   UNL     1     -15.395  -8.661  18.864  0.00  0.00    +0.151 HD
BRANCH   8  24
ATOM     24  C   UNL     1     -16.140  -8.889  20.840  0.00  0.00    +0.132 C 
BRANCH  24  27
ATOM     27  C   UNL     1     -15.727  -7.665  21.589  0.00  0.00    -0.016 C 
ATOM     31  C   UNL     1     -16.458  -6.546  21.649  0.00  0.00    +0.005 C 
ENDBRANCH  24  27
ENDBRANCH   8  24
ENDBRANCH  10   6
TORSDOF 4
ENDMDL
MODEL 8
REMARK VINA RESULT:      -6.7     40.879     43.084
REMARK  Name = 9424316
REMARK  4 active torsions:
REMARK  status: ('A' for Active; 'I' for Inactive)
REMARK    1  A    between atoms: N_6  and  C_10
REMARK    2  A    between atoms: N_8  and  C_24
REMARK    3  A    between atoms: C_21  and  C_23
REMARK    4  A    between atoms: C_24  and  C_27
REMARK                            x       y       z     vdW  Elec       q    Type
REMARK                         _______ _______ _______ _____ _____    ______ ____
ROOT
ATOM      2  O   UNL     1      -7.963 -10.289  39.847  0.00  0.00    -0.273 OA
ATOM      3  O   UNL     1     -13.047 -10.403  38.688  0.00  0.00    -0.270 OA
ATOM      5  N   UNL     1     -10.982  -9.388  38.994  0.00  0.00    -0.286 N 
ATOM      7  N   UNL     1      -9.097 -11.570  38.331  0.00  0.00    -0.283 N 
ATOM      9  C   UNL     1      -9.628  -9.177  38.499  0.00  0.00    +0.164 C 
ATOM     10  C   UNL     1      -9.318  -7.379  40.305  0.00  0.00    +0.078 C 
ATOM     11  C   UNL     1      -9.011  -7.825  38.876  0.00  0.00    +0.054 C 
ATOM     12  C   UNL     1     -10.822  -7.438  40.541  0.00  0.00    +0.041 C 
ATOM     13  C   UNL     1     -11.341  -8.847  40.307  0.00  0.00    +0.111 C 
ATOM     14  C   UNL     1      -8.834 -10.378  38.980  0.00  0.00    +0.238 C 
ATOM     15  C   UNL     1     -11.865 -10.269  38.369  0.00  0.00    +0.249 C 
ATOM     16  C   UNL     1     -11.344 -11.161  37.299  0.00  0.00    +0.059 A 
ATOM     17  C   UNL     1     -10.108 -11.829  37.376  0.00  0.00    +0.046 A 
ATOM     19  C   UNL     1     -12.247 -11.488  36.272  0.00  0.00    +0.023 A 
ATOM     20  C   UNL     1      -9.834 -12.858  36.460  0.00  0.00    +0.024 A 
ATOM     21  C   UNL     1     -11.935 -12.477  35.341  0.00  0.00    -0.017 A 
ATOM     22  C   UNL     1     -10.736 -13.171  35.443  0.00  0.00    +0.010 A 
ATOM     33  H   UNL     1      -8.424 -12.317  38.485  0.00  0.00    +0.155 HD
ENDROOT
BRANCH  21  23
ATOM      1 CL   UNL     1     -15.792 -13.806  30.999  0.00  0.00    -0.084 Cl
ATOM     23  C   UNL     1     -12.871 -12.799  34.286  0.00  0.00    -0.018 A 
ATOM     25  C   UNL     1     -13.948 -11.952  34.025  0.00  0.00    +0.010 A 
ATOM     26  C   UNL     1     -12.698 -13.958  33.528  0.00  0.00    +0.010 A 
ATOM     28  C   UNL     1     -14.851 -12.263  33.009  0.00  0.00    +0.020 A 
ATOM     29  C   UNL     1     -13.601 -14.269  32.512  0.00  0.00    +0.020 A 
ATOM     30  C   UNL     1     -14.677 -13.422  32.252  0.00  0.00    +0.041 A 
ENDBRANCH  21  23
BRANCH  10   6
ATOM      4  O   UNL     1     -10.111  -4.947  38.967  0.00  0.00    -0.253 OA
ATOM      6  N   UNL     1      -8.812  -6.049  40.545  0.00  0.00    -0.296 N 
ATOM      8  N   UNL     1      -8.599  -3.773  40.278  0.00  0.00    -0.296 N 
ATOM     18  C   UNL     1      -9.254  -4.926  39.849  0.00  0.00    +0.300 C 
ATOM     32  H   UNL     1      -8.151  -5.912  41.304  0.00  0.00    +0.151 HD
ATOM     34  H   UNL     1      -7.918  -3.850  41.027  0.00  0.00    +0.151 HD
BRANCH   8  24
ATOM     24  C   UNL     1      -8.868  -2.468  39.723  0.00  0.00    +0.132 C 
BRANCH  24  27
ATOM     27  C   UNL     1      -9.776  -1.723  40.643  0.00  0.00    -0.016 C 
ATOM     31  C   UNL     1     -11.024  -2.106  40.932  0.00  0.00    +0.005 C 
ENDBRANCH  24  27
ENDBRANCH   8  24
ENDBRANCH  10   6
TORSDOF 4
ENDMDL
MODEL 9
REMARK VINA RESULT:      -6.7     17.191     19.562
REMARK  Name = 9424316
REMARK  4 active torsions:
REMARK  status: ('A' for Active; 'I' for Inactive)
REMARK    1  A    between atoms: N_6  and  C_10
REMARK    2  A    between atoms: N_8  and  C_24
REMARK    3  A    between atoms: C_21  and  C_23
REMARK    4  A    between atoms: C_24  and  C_27
REMARK                            x       y       z     vdW  Elec       q    Type
REMARK                         _______ _______ _______ _____ _____    ______ ____
ROOT
ATOM      2  O   UNL     1      22.878   7.619  21.858  0.00  0.00    -0.273 OA
ATOM      3  O   UNL     1      18.859   5.073  19.722  0.00  0.00    -0.270 OA
ATOM      5  N   UNL     1      20.605   5.365  21.223  0.00  0.00    -0.286 N 
ATOM      7  N   UNL     1      20.730   8.309  21.487  0.00  0.00    -0.283 N 
ATOM      9  C   UNL     1      21.117   6.060  22.398  0.00  0.00    +0.164 C 
ATOM     10  C   UNL     1      23.102   4.433  22.414  0.00  0.00    +0.078 C 
ATOM     11  C   UNL     1      22.109   5.250  23.240  0.00  0.00    +0.054 C 
ATOM     12  C   UNL     1      22.341   3.583  21.403  0.00  0.00    +0.041 C 
ATOM     13  C   UNL     1      21.502   4.466  20.494  0.00  0.00    +0.111 C 
ATOM     14  C   UNL     1      21.671   7.373  21.875  0.00  0.00    +0.238 C 
ATOM     15  C   UNL     1      19.378   5.697  20.647  0.00  0.00    +0.249 C 
ATOM     16  C   UNL     1      18.677   6.920  21.122  0.00  0.00    +0.059 A 
ATOM     17  C   UNL     1      19.330   8.137  21.389  0.00  0.00    +0.046 A 
ATOM     19  C   UNL     1      17.272   6.879  21.092  0.00  0.00    +0.023 A 
ATOM     20  C   UNL     1      18.559   9.299  21.555  0.00  0.00    +0.024 A 
ATOM     21  C   UNL     1      16.523   8.033  21.309  0.00  0.00    -0.017 A 
ATOM     22  C   UNL     1      17.165   9.246  21.526  0.00  0.00    +0.010 A 
ATOM     33  H   UNL     1      21.077   9.256  21.353  0.00  0.00    +0.155 HD
ENDROOT
BRANCH  21  23
ATOM      1 CL   UNL     1      10.571   7.790  21.197  0.00  0.00    -0.084 Cl
ATOM     23  C   UNL     1      15.077   7.975  21.281  0.00  0.00    -0.018 A 
ATOM     25  C   UNL     1      14.327   8.935  21.960  0.00  0.00    +0.010 A 
ATOM     26  C   UNL     1      14.433   6.958  20.575  0.00  0.00    +0.010 A 
ATOM     28  C   UNL     1      12.933   8.877  21.934  0.00  0.00    +0.020 A 
ATOM     29  C   UNL     1      13.040   6.901  20.549  0.00  0.00    +0.020 A 
ATOM     30  C   UNL     1      12.290   7.861  21.228  0.00  0.00    +0.041 A 
ENDBRANCH  21  23
BRANCH  10   6
ATOM      4  O   UNL     1      25.514   3.025  21.686  0.00  0.00    -0.253 OA
ATOM      6  N   UNL     1      23.919   3.605  23.270  0.00  0.00    -0.296 N 
ATOM      8  N   UNL     1      25.666   2.228  23.860  0.00  0.00    -0.296 N 
ATOM     18  C   UNL     1      25.073   2.959  22.833  0.00  0.00    +0.300 C 
ATOM     32  H   UNL     1      23.680   3.545  24.255  0.00  0.00    +0.151 HD
ATOM     34  H   UNL     1      25.239   2.249  24.781  0.00  0.00    +0.151 HD
BRANCH   8  24
ATOM     24  C   UNL     1      26.876   1.464  23.679  0.00  0.00    +0.132 C 
BRANCH  24  27
ATOM     27  C   UNL     1      26.532   0.012  23.613  0.00  0.00    -0.016 C 
ATOM     31  C   UNL     1      26.343  -0.658  22.471  0.00  0.00    +0.005 C 
ENDBRANCH  24  27
ENDBRANCH   8  24
ENDBRANCH  10   6
TORSDOF 4
ENDMDL
MODEL 10
REMARK VINA RESULT:      -6.7     38.897     40.371
REMARK  Name = 9424316
REMARK  4 active torsions:
REMARK  status: ('A' for Active; 'I' for Inactive)
REMARK    1  A    between atoms: N_6  and  C_10
REMARK    2  A    between atoms: N_8  and  C_24
REMARK    3  A    between atoms: C_21  and  C_23
REMARK    4  A    between atoms: C_24  and  C_27
REMARK                            x       y       z     vdW  Elec       q    Type
REMARK                         _______ _______ _______ _____ _____    ______ ____
ROOT
ATOM      2  O   UNL     1      -9.230 -10.871  37.365  0.00  0.00    -0.273 OA
ATOM      3  O   UNL     1      -4.964 -10.885  40.366  0.00  0.00    -0.270 OA
ATOM      5  N   UNL     1      -6.182 -11.324  38.438  0.00  0.00    -0.286 N 
ATOM      7  N   UNL     1      -8.185  -9.147  38.444  0.00  0.00    -0.283 N 
ATOM      9  C   UNL     1      -6.821 -10.797  37.239  0.00  0.00    +0.164 C 
ATOM     10  C   UNL     1      -7.184 -13.214  36.452  0.00  0.00    +0.078 C 
ATOM     11  C   UNL     1      -6.867 -11.772  36.057  0.00  0.00    +0.054 C 
ATOM     12  C   UNL     1      -6.233 -13.656  37.558  0.00  0.00    +0.041 C 
ATOM     13  C   UNL     1      -6.359 -12.741  38.763  0.00  0.00    +0.111 C 
ATOM     14  C   UNL     1      -8.184 -10.308  37.694  0.00  0.00    +0.238 C 
ATOM     15  C   UNL     1      -5.604 -10.485  39.392  0.00  0.00    +0.249 C 
ATOM     16  C   UNL     1      -5.827  -9.019  39.281  0.00  0.00    +0.059 A 
ATOM     17  C   UNL     1      -7.067  -8.444  38.948  0.00  0.00    +0.046 A 
ATOM     19  C   UNL     1      -4.780  -8.198  39.735  0.00  0.00    +0.023 A 
ATOM     20  C   UNL     1      -7.250  -7.065  39.144  0.00  0.00    +0.024 A 
ATOM     21  C   UNL     1      -4.965  -6.824  39.875  0.00  0.00    -0.017 A 
ATOM     22  C   UNL     1      -6.203  -6.259  39.593  0.00  0.00    +0.010 A 
ATOM     33  H   UNL     1      -9.089  -8.694  38.559  0.00  0.00    +0.155 HD
ENDROOT
BRANCH  21  23
ATOM      1 CL   UNL     1      -0.485  -3.392  41.786  0.00  0.00    -0.084 Cl
ATOM     23  C   UNL     1      -3.878  -5.989  40.339  0.00  0.00    -0.018 A 
ATOM     25  C   UNL     1      -2.826  -5.674  39.480  0.00  0.00    +0.010 A 
ATOM     26  C   UNL     1      -3.881  -5.501  41.646  0.00  0.00    +0.010 A 
ATOM     28  C   UNL     1      -1.776  -4.871  39.928  0.00  0.00    +0.020 A 
ATOM     29  C   UNL     1      -2.832  -4.698  42.093  0.00  0.00    +0.020 A 
ATOM     30  C   UNL     1      -1.780  -4.382  41.234  0.00  0.00    +0.041 A 
ENDBRANCH  21  23
BRANCH  10   6
ATOM      4  O   UNL     1      -9.333 -14.056  34.718  0.00  0.00    -0.253 OA
ATOM      6  N   UNL     1      -7.088 -14.090  35.309  0.00  0.00    -0.296 N 
ATOM      8  N   UNL     1      -7.808 -15.301  33.489  0.00  0.00    -0.296 N 
ATOM     18  C   UNL     1      -8.182 -14.446  34.523  0.00  0.00    +0.300 C 
ATOM     32  H   UNL     1      -6.167 -14.409  35.021  0.00  0.00    +0.151 HD
ATOM     34  H   UNL     1      -6.829 -15.554  33.397  0.00  0.00    +0.151 HD
BRANCH   8  24
ATOM     24  C   UNL     1      -8.748 -15.822  32.527  0.00  0.00    +0.132 C 
BRANCH  24  27
ATOM     27  C   UNL     1      -8.768 -14.930  31.330  0.00  0.00    -0.016 C 
ATOM     31  C   UNL     1      -9.433 -15.208  30.203  0.00  0.00    +0.005 C 
ENDBRANCH  24  27
ENDBRANCH   8  24
ENDBRANCH  10   6
TORSDOF 4
ENDMDL
