MODEL 1
REMARK VINA RESULT:      -7.1      0.000      0.000
REMARK  Name = 28960641
REMARK  5 active torsions:
REMARK  status: ('A' for Active; 'I' for Inactive)
REMARK    1  A    between atoms: N_3  and  C_21
REMARK    2  A    between atoms: N_4  and  C_10
REMARK    3  A    between atoms: N_5  and  C_14
REMARK    4  A    between atoms: C_11  and  C_20
REMARK    5  A    between atoms: C_23  and  C_24
REMARK                            x       y       z     vdW  Elec       q    Type
REMARK                         _______ _______ _______ _____ _____    ______ ____
ROOT
ATOM      3  N   UNL     1      14.995   7.264  19.831  0.00  0.00    -0.293 NA
ATOM     10  C   UNL     1      13.129   7.188  21.227  0.00  0.00    +0.090 C 
ATOM     11  C   UNL     1      13.870   7.033  18.904  0.00  0.00    +0.147 C 
ATOM     12  C   UNL     1      12.612   7.132  19.789  0.00  0.00    +0.052 C 
ATOM     13  C   UNL     1      14.570   6.713  21.123  0.00  0.00    +0.107 C 
ATOM     21  C   UNL     1      16.247   6.674  19.374  0.00  0.00    +0.105 C 
ENDROOT
BRANCH  10   4
ATOM      2  O   UNL     1      10.827   8.441  22.410  0.00  0.00    -0.253 OA
ATOM      4  N   UNL     1      13.055   8.526  21.766  0.00  0.00    -0.295 N 
ATOM      5  N   UNL     1      12.091  10.356  22.766  0.00  0.00    -0.297 N 
ATOM     22  C   UNL     1      11.891   9.052  22.323  0.00  0.00    +0.300 C 
ATOM     28  H   UNL     1      13.863   9.133  21.673  0.00  0.00    +0.151 HD
ATOM     29  H   UNL     1      12.989  10.790  22.578  0.00  0.00    +0.151 HD
BRANCH   5  14
ATOM     14  C   UNL     1      11.052  11.147  23.387  0.00  0.00    +0.074 C 
ATOM     15  C   UNL     1      11.282  11.271  24.897  0.00  0.00    +0.022 C 
ATOM     16  C   UNL     1      10.938  12.524  22.727  0.00  0.00    +0.022 C 
ATOM     17  C   UNL     1      12.462  12.183  25.234  0.00  0.00    +0.002 C 
ATOM     18  C   UNL     1      12.118  13.435  23.068  0.00  0.00    +0.002 C 
ATOM     19  C   UNL     1      12.321  13.552  24.575  0.00  0.00    +0.000 C 
ENDBRANCH   5  14
ENDBRANCH  10   4
BRANCH  11  20
ATOM      1  O   UNL     1      13.588   7.466  16.516  0.00  0.00    -0.336 OA
ATOM      6  N   UNL     1      14.025   9.295  17.732  0.00  0.00    -0.189 NA
ATOM      7  N   UNL     1      13.612   8.537  15.614  0.00  0.00    -0.054 NA
ATOM     20  C   UNL     1      13.840   8.000  17.740  0.00  0.00    +0.245 A 
ATOM     23  C   UNL     1      13.875   9.581  16.406  0.00  0.00    +0.222 A 
BRANCH  23  24
ATOM      8  N   UNL     1      13.758  11.097  14.590  0.00  0.00    -0.249 NA
ATOM      9  N   UNL     1      14.445  13.230  16.275  0.00  0.00    -0.260 NA
ATOM     24  C   UNL     1      13.992  10.919  15.905  0.00  0.00    +0.129 A 
ATOM     25  C   UNL     1      14.331  11.967  16.732  0.00  0.00    +0.142 A 
ATOM     26  C   UNL     1      13.872  12.359  14.132  0.00  0.00    +0.131 A 
ATOM     27  C   UNL     1      14.210  13.407  14.960  0.00  0.00    +0.130 A 
ENDBRANCH  23  24
ENDBRANCH  11  20
TORSDOF 4
ENDMDL
MODEL 2
REMARK VINA RESULT:      -6.8      3.059      7.305
REMARK  Name = 28960641
REMARK  5 active torsions:
REMARK  status: ('A' for Active; 'I' for Inactive)
REMARK    1  A    between atoms: N_3  and  C_21
REMARK    2  A    between atoms: N_4  and  C_10
REMARK    3  A    between atoms: N_5  and  C_14
REMARK    4  A    between atoms: C_11  and  C_20
REMARK    5  A    between atoms: C_23  and  C_24
REMARK                            x       y       z     vdW  Elec       q    Type
REMARK                         _______ _______ _______ _____ _____    ______ ____
ROOT
ATOM      3  N   UNL     1      12.732   8.261  20.204  0.00  0.00    -0.293 NA
ATOM     10  C   UNL     1      12.059   8.353  17.973  0.00  0.00    +0.090 C 
ATOM     11  C   UNL     1      13.394   7.096  19.587  0.00  0.00    +0.147 C 
ATOM     12  C   UNL     1      13.087   7.226  18.083  0.00  0.00    +0.052 C 
ATOM     13  C   UNL     1      11.537   8.519  19.392  0.00  0.00    +0.107 C 
ATOM     21  C   UNL     1      12.400   8.057  21.608  0.00  0.00    +0.105 C 
ENDROOT
BRANCH  10   4
ATOM      2  O   UNL     1      12.809   8.943  15.261  0.00  0.00    -0.253 OA
ATOM      4  N   UNL     1      12.660   9.573  17.489  0.00  0.00    -0.295 N 
ATOM      5  N   UNL     1      13.555  11.029  15.953  0.00  0.00    -0.297 N 
ATOM     22  C   UNL     1      12.991   9.772  16.150  0.00  0.00    +0.300 C 
ATOM     28  H   UNL     1      12.916  10.290  18.162  0.00  0.00    +0.151 HD
ATOM     29  H   UNL     1      13.727  11.607  16.770  0.00  0.00    +0.151 HD
BRANCH   5  14
ATOM     14  C   UNL     1      13.994  11.505  14.659  0.00  0.00    +0.074 C 
ATOM     15  C   UNL     1      13.809  13.021  14.538  0.00  0.00    +0.022 C 
ATOM     16  C   UNL     1      15.444  11.097  14.385  0.00  0.00    +0.022 C 
ATOM     17  C   UNL     1      14.810  13.801  15.392  0.00  0.00    +0.002 C 
ATOM     18  C   UNL     1      16.443  11.880  15.239  0.00  0.00    +0.002 C 
ATOM     19  C   UNL     1      16.248  13.386  15.093  0.00  0.00    +0.000 C 
ENDBRANCH   5  14
ENDBRANCH  10   4
BRANCH  11  20
ATOM      1  O   UNL     1      15.615   6.226  19.056  0.00  0.00    -0.336 OA
ATOM      6  N   UNL     1      15.574   7.625  20.805  0.00  0.00    -0.189 NA
ATOM      7  N   UNL     1      16.937   6.321  19.511  0.00  0.00    -0.054 NA
ATOM     20  C   UNL     1      14.879   7.025  19.873  0.00  0.00    +0.245 A 
ATOM     23  C   UNL     1      16.831   7.164  20.543  0.00  0.00    +0.222 A 
BRANCH  23  24
ATOM      8  N   UNL     1      18.783   6.583  21.754  0.00  0.00    -0.249 NA
ATOM      9  N   UNL     1      19.246   9.277  22.376  0.00  0.00    -0.260 NA
ATOM     24  C   UNL     1      17.961   7.563  21.331  0.00  0.00    +0.129 A 
ATOM     25  C   UNL     1      18.188   8.887  21.637  0.00  0.00    +0.142 A 
ATOM     26  C   UNL     1      19.840   6.972  22.492  0.00  0.00    +0.131 A 
ATOM     27  C   UNL     1      20.067   8.296  22.798  0.00  0.00    +0.130 A 
ENDBRANCH  23  24
ENDBRANCH  11  20
TORSDOF 4
ENDMDL
MODEL 3
REMARK VINA RESULT:      -6.6     26.954     29.265
REMARK  Name = 28960641
REMARK  5 active torsions:
REMARK  status: ('A' for Active; 'I' for Inactive)
REMARK    1  A    between atoms: N_3  and  C_21
REMARK    2  A    between atoms: N_4  and  C_10
REMARK    3  A    between atoms: N_5  and  C_14
REMARK    4  A    between atoms: C_11  and  C_20
REMARK    5  A    between atoms: C_23  and  C_24
REMARK                            x       y       z     vdW  Elec       q    Type
REMARK                         _______ _______ _______ _____ _____    ______ ____
ROOT
ATOM      3  N   UNL     1      -5.669 -12.104  16.638  0.00  0.00    -0.293 NA
ATOM     10  C   UNL     1      -3.823 -10.799  16.065  0.00  0.00    +0.090 C 
ATOM     11  C   UNL     1      -5.817 -10.897  17.473  0.00  0.00    +0.147 C 
ATOM     12  C   UNL     1      -4.693  -9.956  16.999  0.00  0.00    +0.052 C 
ATOM     13  C   UNL     1      -4.232 -12.232  16.371  0.00  0.00    +0.107 C 
ATOM     21  C   UNL     1      -6.215 -13.304  17.260  0.00  0.00    +0.105 C 
ENDROOT
BRANCH  10   4
ATOM      2  O   UNL     1      -2.101 -11.391  13.840  0.00  0.00    -0.253 OA
ATOM      4  N   UNL     1      -4.059 -10.470  14.679  0.00  0.00    -0.295 N 
ATOM      5  N   UNL     1      -3.630 -10.368  12.425  0.00  0.00    -0.297 N 
ATOM     22  C   UNL     1      -3.164 -10.798  13.663  0.00  0.00    +0.300 C 
ATOM     28  H   UNL     1      -4.876  -9.915  14.443  0.00  0.00    +0.151 HD
ATOM     29  H   UNL     1      -4.486  -9.822  12.401  0.00  0.00    +0.151 HD
BRANCH   5  14
ATOM     14  C   UNL     1      -2.903 -10.574  11.192  0.00  0.00    +0.074 C 
ATOM     15  C   UNL     1      -3.557 -11.670  10.343  0.00  0.00    +0.022 C 
ATOM     16  C   UNL     1      -2.768  -9.267  10.405  0.00  0.00    +0.022 C 
ATOM     17  C   UNL     1      -4.881 -11.217   9.726  0.00  0.00    +0.002 C 
ATOM     18  C   UNL     1      -4.093  -8.818   9.786  0.00  0.00    +0.002 C 
ATOM     19  C   UNL     1      -4.720  -9.920   8.938  0.00  0.00    +0.000 C 
ENDBRANCH   5  14
ENDBRANCH  10   4
BRANCH  11  20
ATOM      1  O   UNL     1      -8.062 -10.548  18.375  0.00  0.00    -0.336 OA
ATOM      6  N   UNL     1      -7.668  -9.463  16.456  0.00  0.00    -0.189 NA
ATOM      7  N   UNL     1      -9.241  -9.857  18.069  0.00  0.00    -0.054 NA
ATOM     20  C   UNL     1      -7.188 -10.260  17.375  0.00  0.00    +0.245 A 
ATOM     23  C   UNL     1      -8.930  -9.241  16.924  0.00  0.00    +0.222 A 
BRANCH  23  24
ATOM      8  N   UNL     1     -10.262  -7.283  16.863  0.00  0.00    -0.249 NA
ATOM      9  N   UNL     1     -11.179  -7.940  14.295  0.00  0.00    -0.260 NA
ATOM     24  C   UNL     1      -9.857  -8.399  16.225  0.00  0.00    +0.129 A 
ATOM     25  C   UNL     1     -10.308  -8.722  14.964  0.00  0.00    +0.142 A 
ATOM     26  C   UNL     1     -11.132  -6.501  16.195  0.00  0.00    +0.131 A 
ATOM     27  C   UNL     1     -11.583  -6.824  14.934  0.00  0.00    +0.130 A 
ENDBRANCH  23  24
ENDBRANCH  11  20
TORSDOF 4
ENDMDL
MODEL 4
REMARK VINA RESULT:      -6.4      3.202      7.459
REMARK  Name = 28960641
REMARK  5 active torsions:
REMARK  status: ('A' for Active; 'I' for Inactive)
REMARK    1  A    between atoms: N_3  and  C_21
REMARK    2  A    between atoms: N_4  and  C_10
REMARK    3  A    between atoms: N_5  and  C_14
REMARK    4  A    between atoms: C_11  and  C_20
REMARK    5  A    between atoms: C_23  and  C_24
REMARK                            x       y       z     vdW  Elec       q    Type
REMARK                         _______ _______ _______ _____ _____    ______ ____
ROOT
ATOM      3  N   UNL     1      14.268   8.553  19.215  0.00  0.00    -0.293 NA
ATOM     10  C   UNL     1      15.280   6.569  19.906  0.00  0.00    +0.090 C 
ATOM     11  C   UNL     1      13.194   7.840  19.933  0.00  0.00    +0.147 C 
ATOM     12  C   UNL     1      13.883   6.597  20.528  0.00  0.00    +0.052 C 
ATOM     13  C   UNL     1      15.176   7.513  18.717  0.00  0.00    +0.107 C 
ATOM     21  C   UNL     1      13.774   9.403  18.140  0.00  0.00    +0.105 C 
ENDROOT
BRANCH  10   4
ATOM      2  O   UNL     1      18.046   5.787  19.949  0.00  0.00    -0.253 OA
ATOM      4  N   UNL     1      16.287   7.010  20.841  0.00  0.00    -0.295 N 
ATOM      5  N   UNL     1      18.371   7.152  21.799  0.00  0.00    -0.297 N 
ATOM     22  C   UNL     1      17.610   6.576  20.785  0.00  0.00    +0.300 C 
ATOM     28  H   UNL     1      16.006   7.606  21.613  0.00  0.00    +0.151 HD
ATOM     29  H   UNL     1      17.893   7.734  22.480  0.00  0.00    +0.151 HD
BRANCH   5  14
ATOM     14  C   UNL     1      19.779   6.880  21.981  0.00  0.00    +0.074 C 
ATOM     15  C   UNL     1      20.624   7.632  20.946  0.00  0.00    +0.022 C 
ATOM     16  C   UNL     1      20.225   7.211  23.409  0.00  0.00    +0.022 C 
ATOM     17  C   UNL     1      20.671   9.136  21.213  0.00  0.00    +0.002 C 
ATOM     18  C   UNL     1      20.273   8.717  23.672  0.00  0.00    +0.002 C 
ATOM     19  C   UNL     1      21.127   9.442  22.637  0.00  0.00    +0.000 C 
ENDBRANCH   5  14
ENDBRANCH  10   4
BRANCH  11  20
ATOM      1  O   UNL     1      11.163   8.534  21.103  0.00  0.00    -0.336 OA
ATOM      6  N   UNL     1      13.024   9.557  21.815  0.00  0.00    -0.189 NA
ATOM      7  N   UNL     1      10.763   9.405  22.124  0.00  0.00    -0.054 NA
ATOM     20  C   UNL     1      12.509   8.685  20.987  0.00  0.00    +0.245 A 
ATOM     23  C   UNL     1      11.916   9.972  22.494  0.00  0.00    +0.222 A 
BRANCH  23  24
ATOM      8  N   UNL     1      13.165  11.604  23.671  0.00  0.00    -0.249 NA
ATOM      9  N   UNL     1      10.974  12.134  25.339  0.00  0.00    -0.260 NA
ATOM     24  C   UNL     1      11.993  10.954  23.536  0.00  0.00    +0.129 A 
ATOM     25  C   UNL     1      10.917  11.213  24.356  0.00  0.00    +0.142 A 
ATOM     26  C   UNL     1      13.223  12.524  24.653  0.00  0.00    +0.131 A 
ATOM     27  C   UNL     1      12.146  12.784  25.473  0.00  0.00    +0.130 A 
ENDBRANCH  23  24
ENDBRANCH  11  20
TORSDOF 4
ENDMDL
MODEL 5
REMARK VINA RESULT:      -6.3     27.987     29.999
REMARK  Name = 28960641
REMARK  5 active torsions:
REMARK  status: ('A' for Active; 'I' for Inactive)
REMARK    1  A    between atoms: N_3  and  C_21
REMARK    2  A    between atoms: N_4  and  C_10
REMARK    3  A    between atoms: N_5  and  C_14
REMARK    4  A    between atoms: C_11  and  C_20
REMARK    5  A    between atoms: C_23  and  C_24
REMARK                            x       y       z     vdW  Elec       q    Type
REMARK                         _______ _______ _______ _____ _____    ______ ____
ROOT
ATOM      3  N   UNL     1      -9.576  -8.144   7.674  0.00  0.00    -0.293 NA
ATOM     10  C   UNL     1     -10.077  -5.875   7.859  0.00  0.00    +0.090 C 
ATOM     11  C   UNL     1      -8.262  -7.509   7.892  0.00  0.00    +0.147 C 
ATOM     12  C   UNL     1      -8.588  -6.029   8.169  0.00  0.00    +0.052 C 
ATOM     13  C   UNL     1     -10.419  -7.118   7.052  0.00  0.00    +0.107 C 
ATOM     21  C   UNL     1      -9.502  -9.353   6.863  0.00  0.00    +0.105 C 
ENDROOT
BRANCH  10   4
ATOM      2  O   UNL     1     -10.866  -3.487   9.253  0.00  0.00    -0.253 OA
ATOM      4  N   UNL     1     -10.866  -5.800   9.066  0.00  0.00    -0.295 N 
ATOM      5  N   UNL     1     -11.964  -4.802  10.820  0.00  0.00    -0.297 N 
ATOM     22  C   UNL     1     -11.202  -4.592   9.675  0.00  0.00    +0.300 C 
ATOM     28  H   UNL     1     -11.128  -6.665   9.530  0.00  0.00    +0.151 HD
ATOM     29  H   UNL     1     -12.122  -5.759  11.119  0.00  0.00    +0.151 HD
BRANCH   5  14
ATOM     14  C   UNL     1     -12.453  -3.724  11.652  0.00  0.00    +0.074 C 
ATOM     15  C   UNL     1     -13.828  -3.243  11.178  0.00  0.00    +0.022 C 
ATOM     16  C   UNL     1     -12.486  -4.137  13.126  0.00  0.00    +0.022 C 
ATOM     17  C   UNL     1     -14.936  -4.252  11.481  0.00  0.00    +0.002 C 
ATOM     18  C   UNL     1     -13.596  -5.144  13.427  0.00  0.00    +0.002 C 
ATOM     19  C   UNL     1     -14.957  -4.639  12.956  0.00  0.00    +0.000 C 
ENDBRANCH   5  14
ENDBRANCH  10   4
BRANCH  11  20
ATOM      1  O   UNL     1      -8.158  -8.537  10.107  0.00  0.00    -0.336 OA
ATOM      6  N   UNL     1      -6.175  -8.380   9.078  0.00  0.00    -0.189 NA
ATOM      7  N   UNL     1      -7.217  -9.087  10.987  0.00  0.00    -0.054 NA
ATOM     20  C   UNL     1      -7.461  -8.146   9.008  0.00  0.00    +0.245 A 
ATOM     23  C   UNL     1      -6.073  -8.959  10.309  0.00  0.00    +0.222 A 
BRANCH  23  24
ATOM      8  N   UNL     1      -4.845 -10.086  11.991  0.00  0.00    -0.249 NA
ATOM      9  N   UNL     1      -2.439  -9.534  10.661  0.00  0.00    -0.260 NA
ATOM     24  C   UNL     1      -4.813  -9.398  10.833  0.00  0.00    +0.129 A 
ATOM     25  C   UNL     1      -3.631  -9.127  10.179  0.00  0.00    +0.142 A 
ATOM     26  C   UNL     1      -3.654 -10.493  12.472  0.00  0.00    +0.131 A 
ATOM     27  C   UNL     1      -2.472 -10.221  11.819  0.00  0.00    +0.130 A 
ENDBRANCH  23  24
ENDBRANCH  11  20
TORSDOF 4
ENDMDL
MODEL 6
REMARK VINA RESULT:      -6.3     27.109     29.372
REMARK  Name = 28960641
REMARK  5 active torsions:
REMARK  status: ('A' for Active; 'I' for Inactive)
REMARK    1  A    between atoms: N_3  and  C_21
REMARK    2  A    between atoms: N_4  and  C_10
REMARK    3  A    between atoms: N_5  and  C_14
REMARK    4  A    between atoms: C_11  and  C_20
REMARK    5  A    between atoms: C_23  and  C_24
REMARK                            x       y       z     vdW  Elec       q    Type
REMARK                         _______ _______ _______ _____ _____    ______ ____
ROOT
ATOM      3  N   UNL     1      -6.925 -11.912  18.234  0.00  0.00    -0.293 NA
ATOM     10  C   UNL     1      -4.674 -11.368  17.971  0.00  0.00    +0.090 C 
ATOM     11  C   UNL     1      -6.911 -10.438  18.280  0.00  0.00    +0.147 C 
ATOM     12  C   UNL     1      -5.455 -10.054  17.954  0.00  0.00    +0.052 C 
ATOM     13  C   UNL     1      -5.597 -12.340  18.689  0.00  0.00    +0.107 C 
ATOM     21  C   UNL     1      -7.990 -12.502  19.037  0.00  0.00    +0.105 C 
ENDROOT
BRANCH  10   4
ATOM      2  O   UNL     1      -2.298 -10.792  16.457  0.00  0.00    -0.253 OA
ATOM      4  N   UNL     1      -4.370 -11.822  16.634  0.00  0.00    -0.295 N 
ATOM      5  N   UNL     1      -3.146 -12.056  14.704  0.00  0.00    -0.297 N 
ATOM     22  C   UNL     1      -3.187 -11.492  15.976  0.00  0.00    +0.300 C 
ATOM     28  H   UNL     1      -5.077 -12.345  16.126  0.00  0.00    +0.151 HD
ATOM     29  H   UNL     1      -3.967 -12.556  14.378  0.00  0.00    +0.151 HD
BRANCH   5  14
ATOM     14  C   UNL     1      -2.034 -11.878  13.797  0.00  0.00    +0.074 C 
ATOM     15  C   UNL     1      -1.958 -13.029  12.787  0.00  0.00    +0.022 C 
ATOM     16  C   UNL     1      -2.111 -10.522  13.089  0.00  0.00    +0.022 C 
ATOM     17  C   UNL     1      -3.079 -12.970  11.749  0.00  0.00    +0.002 C 
ATOM     18  C   UNL     1      -3.232 -10.466  12.050  0.00  0.00    +0.002 C 
ATOM     19  C   UNL     1      -3.129 -11.614  11.050  0.00  0.00    +0.000 C 
ENDBRANCH   5  14
ENDBRANCH  10   4
BRANCH  11  20
ATOM      1  O   UNL     1      -7.763 -10.086  16.016  0.00  0.00    -0.336 OA
ATOM      6  N   UNL     1      -8.900  -8.987  17.602  0.00  0.00    -0.189 NA
ATOM      7  N   UNL     1      -8.780  -9.387  15.354  0.00  0.00    -0.054 NA
ATOM     20  C   UNL     1      -7.906  -9.796  17.336  0.00  0.00    +0.245 A 
ATOM     23  C   UNL     1      -9.407  -8.764  16.356  0.00  0.00    +0.222 A 
BRANCH  23  24
ATOM      8  N   UNL     1     -11.757  -8.462  16.339  0.00  0.00    -0.249 NA
ATOM      9  N   UNL     1     -11.447  -5.787  15.558  0.00  0.00    -0.260 NA
ATOM     24  C   UNL     1     -10.542  -7.913  16.145  0.00  0.00    +0.129 A 
ATOM     25  C   UNL     1     -10.390  -6.599  15.760  0.00  0.00    +0.142 A 
ATOM     26  C   UNL     1     -12.813  -7.652  16.137  0.00  0.00    +0.131 A 
ATOM     27  C   UNL     1     -12.661  -6.337  15.753  0.00  0.00    +0.130 A 
ENDBRANCH  23  24
ENDBRANCH  11  20
TORSDOF 4
ENDMDL
MODEL 7
REMARK VINA RESULT:      -6.2     27.037     29.252
REMARK  Name = 28960641
REMARK  5 active torsions:
REMARK  status: ('A' for Active; 'I' for Inactive)
REMARK    1  A    between atoms: N_3  and  C_21
REMARK    2  A    between atoms: N_4  and  C_10
REMARK    3  A    between atoms: N_5  and  C_14
REMARK    4  A    between atoms: C_11  and  C_20
REMARK    5  A    between atoms: C_23  and  C_24
REMARK                            x       y       z     vdW  Elec       q    Type
REMARK                         _______ _______ _______ _____ _____    ______ ____
ROOT
ATOM      3  N   UNL     1      -4.469 -12.695  15.871  0.00  0.00    -0.293 NA
ATOM     10  C   UNL     1      -2.886 -11.290  14.893  0.00  0.00    +0.090 C 
ATOM     11  C   UNL     1      -4.174 -11.708  16.926  0.00  0.00    +0.147 C 
ATOM     12  C   UNL     1      -3.246 -10.681  16.248  0.00  0.00    +0.052 C 
ATOM     13  C   UNL     1      -3.267 -12.756  15.032  0.00  0.00    +0.107 C 
ATOM     21  C   UNL     1      -4.832 -14.006  16.396  0.00  0.00    +0.105 C 
ENDROOT
BRANCH  10   4
ATOM      2  O   UNL     1      -2.033 -11.030  12.159  0.00  0.00    -0.253 OA
ATOM      4  N   UNL     1      -3.613 -10.658  13.817  0.00  0.00    -0.295 N 
ATOM      5  N   UNL     1      -4.015  -9.922  11.679  0.00  0.00    -0.297 N 
ATOM     22  C   UNL     1      -3.120 -10.579  12.517  0.00  0.00    +0.300 C 
ATOM     28  H   UNL     1      -4.489 -10.191  14.031  0.00  0.00    +0.151 HD
ATOM     29  H   UNL     1      -4.852  -9.524  12.094  0.00  0.00    +0.151 HD
BRANCH   5  14
ATOM     14  C   UNL     1      -3.762  -9.696  10.273  0.00  0.00    +0.074 C 
ATOM     15  C   UNL     1      -4.176 -10.911   9.436  0.00  0.00    +0.022 C 
ATOM     16  C   UNL     1      -4.457  -8.422   9.785  0.00  0.00    +0.022 C 
ATOM     17  C   UNL     1      -5.694 -11.068   9.346  0.00  0.00    +0.002 C 
ATOM     18  C   UNL     1      -5.975  -8.582   9.693  0.00  0.00    +0.002 C 
ATOM     19  C   UNL     1      -6.363  -9.791   8.847  0.00  0.00    +0.000 C 
ENDBRANCH   5  14
ENDBRANCH  10   4
BRANCH  11  20
ATOM      1  O   UNL     1      -5.418 -10.893  18.866  0.00  0.00    -0.336 OA
ATOM      6  N   UNL     1      -6.500 -10.656  16.919  0.00  0.00    -0.189 NA
ATOM      7  N   UNL     1      -6.648 -10.297  19.173  0.00  0.00    -0.054 NA
ATOM     20  C   UNL     1      -5.413 -11.069  17.518  0.00  0.00    +0.245 A 
ATOM     23  C   UNL     1      -7.228 -10.189  17.974  0.00  0.00    +0.222 A 
BRANCH  23  24
ATOM      8  N   UNL     1      -8.614  -8.514  17.032  0.00  0.00    -0.249 NA
ATOM      9  N   UNL     1     -10.877  -9.659  18.229  0.00  0.00    -0.260 NA
ATOM     24  C   UNL     1      -8.533  -9.620  17.798  0.00  0.00    +0.129 A 
ATOM     25  C   UNL     1      -9.644 -10.182  18.386  0.00  0.00    +0.142 A 
ATOM     26  C   UNL     1      -9.845  -7.991  16.875  0.00  0.00    +0.131 A 
ATOM     27  C   UNL     1     -10.957  -8.553  17.464  0.00  0.00    +0.130 A 
ENDBRANCH  23  24
ENDBRANCH  11  20
TORSDOF 4
ENDMDL
MODEL 8
REMARK VINA RESULT:      -6.0     26.853     29.120
REMARK  Name = 28960641
REMARK  5 active torsions:
REMARK  status: ('A' for Active; 'I' for Inactive)
REMARK    1  A    between atoms: N_3  and  C_21
REMARK    2  A    between atoms: N_4  and  C_10
REMARK    3  A    between atoms: N_5  and  C_14
REMARK    4  A    between atoms: C_11  and  C_20
REMARK    5  A    between atoms: C_23  and  C_24
REMARK                            x       y       z     vdW  Elec       q    Type
REMARK                         _______ _______ _______ _____ _____    ______ ____
ROOT
ATOM      3  N   UNL     1      -2.945 -12.654  14.014  0.00  0.00    -0.293 NA
ATOM     10  C   UNL     1      -2.323 -10.930  12.573  0.00  0.00    +0.090 C 
ATOM     11  C   UNL     1      -2.607 -11.541  14.921  0.00  0.00    +0.147 C 
ATOM     12  C   UNL     1      -2.341 -10.346  13.986  0.00  0.00    +0.052 C 
ATOM     13  C   UNL     1      -2.165 -12.427  12.793  0.00  0.00    +0.107 C 
ATOM     21  C   UNL     1      -2.680 -13.966  14.592  0.00  0.00    +0.105 C 
ENDROOT
BRANCH  10   4
ATOM      2  O   UNL     1      -2.584  -9.279  10.234  0.00  0.00    -0.253 OA
ATOM      4  N   UNL     1      -3.542 -10.630  11.859  0.00  0.00    -0.295 N 
ATOM      5  N   UNL     1      -4.868  -9.690  10.236  0.00  0.00    -0.297 N 
ATOM     22  C   UNL     1      -3.573  -9.816  10.729  0.00  0.00    +0.300 C 
ATOM     28  H   UNL     1      -4.422 -10.969  12.235  0.00  0.00    +0.151 HD
ATOM     29  H   UNL     1      -5.623 -10.117  10.765  0.00  0.00    +0.151 HD
BRANCH   5  14
ATOM     14  C   UNL     1      -5.197  -8.902   9.069  0.00  0.00    +0.074 C 
ATOM     15  C   UNL     1      -5.181  -9.762   7.801  0.00  0.00    +0.022 C 
ATOM     16  C   UNL     1      -6.543  -8.193   9.243  0.00  0.00    +0.022 C 
ATOM     17  C   UNL     1      -6.365 -10.726   7.734  0.00  0.00    +0.002 C 
ATOM     18  C   UNL     1      -7.726  -9.159   9.174  0.00  0.00    +0.002 C 
ATOM     19  C   UNL     1      -7.695  -9.997   7.899  0.00  0.00    +0.000 C 
ENDBRANCH   5  14
ENDBRANCH  10   4
BRANCH  11  20
ATOM      1  O   UNL     1      -3.333 -11.394  17.251  0.00  0.00    -0.336 OA
ATOM      6  N   UNL     1      -4.924 -10.874  15.762  0.00  0.00    -0.189 NA
ATOM      7  N   UNL     1      -4.476 -11.075  17.996  0.00  0.00    -0.054 NA
ATOM     20  C   UNL     1      -3.684 -11.249  15.945  0.00  0.00    +0.245 A 
ATOM     23  C   UNL     1      -5.370 -10.779  17.047  0.00  0.00    +0.222 A 
BRANCH  23  24
ATOM      8  N   UNL     1      -7.238  -9.389  16.611  0.00  0.00    -0.249 NA
ATOM      9  N   UNL     1      -8.695 -10.641  18.654  0.00  0.00    -0.260 NA
ATOM     24  C   UNL     1      -6.714 -10.385  17.352  0.00  0.00    +0.129 A 
ATOM     25  C   UNL     1      -7.430 -11.000  18.356  0.00  0.00    +0.142 A 
ATOM     26  C   UNL     1      -8.502  -9.030  16.909  0.00  0.00    +0.131 A 
ATOM     27  C   UNL     1      -9.218  -9.644  17.912  0.00  0.00    +0.130 A 
ENDBRANCH  23  24
ENDBRANCH  11  20
TORSDOF 4
ENDMDL
MODEL 9
REMARK VINA RESULT:      -5.9     29.326     30.788
REMARK  Name = 28960641
REMARK  5 active torsions:
REMARK  status: ('A' for Active; 'I' for Inactive)
REMARK    1  A    between atoms: N_3  and  C_21
REMARK    2  A    between atoms: N_4  and  C_10
REMARK    3  A    between atoms: N_5  and  C_14
REMARK    4  A    between atoms: C_11  and  C_20
REMARK    5  A    between atoms: C_23  and  C_24
REMARK                            x       y       z     vdW  Elec       q    Type
REMARK                         _______ _______ _______ _____ _____    ______ ____
ROOT
ATOM      3  N   UNL     1     -12.795  -5.392   9.227  0.00  0.00    -0.293 NA
ATOM     10  C   UNL     1     -12.465  -3.825  10.922  0.00  0.00    +0.090 C 
ATOM     11  C   UNL     1     -11.722  -4.525   8.703  0.00  0.00    +0.147 C 
ATOM     12  C   UNL     1     -11.384  -3.578   9.870  0.00  0.00    +0.052 C 
ATOM     13  C   UNL     1     -13.560  -4.561  10.164  0.00  0.00    +0.107 C 
ATOM     21  C   UNL     1     -13.642  -5.953   8.183  0.00  0.00    +0.105 C 
ENDROOT
BRANCH  10   4
ATOM      2  O   UNL     1     -13.596  -4.015  13.559  0.00  0.00    -0.253 OA
ATOM      4  N   UNL     1     -11.965  -4.616  12.022  0.00  0.00    -0.295 N 
ATOM      5  N   UNL     1     -11.899  -5.485  14.147  0.00  0.00    -0.297 N 
ATOM     22  C   UNL     1     -12.581  -4.647  13.271  0.00  0.00    +0.300 C 
ATOM     28  H   UNL     1     -11.089  -5.116  11.902  0.00  0.00    +0.151 HD
ATOM     29  H   UNL     1     -11.030  -5.902  13.828  0.00  0.00    +0.151 HD
BRANCH   5  14
ATOM     14  C   UNL     1     -12.315  -5.707  15.514  0.00  0.00    +0.074 C 
ATOM     15  C   UNL     1     -13.358  -6.828  15.597  0.00  0.00    +0.022 C 
ATOM     16  C   UNL     1     -11.113  -5.999  16.417  0.00  0.00    +0.022 C 
ATOM     17  C   UNL     1     -12.753  -8.208  15.342  0.00  0.00    +0.002 C 
ATOM     18  C   UNL     1     -10.511  -7.382  16.161  0.00  0.00    +0.002 C 
ATOM     19  C   UNL     1     -11.565  -8.481  16.259  0.00  0.00    +0.000 C 
ENDBRANCH   5  14
ENDBRANCH  10   4
BRANCH  11  20
ATOM      1  O   UNL     1      -9.334  -5.029   8.829  0.00  0.00    -0.336 OA
ATOM      6  N   UNL     1     -10.431  -6.185   7.255  0.00  0.00    -0.189 NA
ATOM      7  N   UNL     1      -8.380  -5.845   8.208  0.00  0.00    -0.054 NA
ATOM     20  C   UNL     1     -10.514  -5.293   8.208  0.00  0.00    +0.245 A 
ATOM     23  C   UNL     1      -9.104  -6.496   7.292  0.00  0.00    +0.222 A 
BRANCH  23  24
ATOM      8  N   UNL     1      -8.852  -7.351   5.097  0.00  0.00    -0.249 NA
ATOM      9  N   UNL     1      -7.145  -9.367   6.036  0.00  0.00    -0.260 NA
ATOM     24  C   UNL     1      -8.530  -7.462   6.400  0.00  0.00    +0.129 A 
ATOM     25  C   UNL     1      -7.692  -8.453   6.862  0.00  0.00    +0.142 A 
ATOM     26  C   UNL     1      -8.306  -8.265   4.271  0.00  0.00    +0.131 A 
ATOM     27  C   UNL     1      -7.468  -9.256   4.733  0.00  0.00    +0.130 A 
ENDBRANCH  23  24
ENDBRANCH  11  20
TORSDOF 4
ENDMDL
MODEL 10
REMARK VINA RESULT:      -5.9     27.321     29.896
REMARK  Name = 28960641
REMARK  5 active torsions:
REMARK  status: ('A' for Active; 'I' for Inactive)
REMARK    1  A    between atoms: N_3  and  C_21
REMARK    2  A    between atoms: N_4  and  C_10
REMARK    3  A    between atoms: N_5  and  C_14
REMARK    4  A    between atoms: C_11  and  C_20
REMARK    5  A    between atoms: C_23  and  C_24
REMARK                            x       y       z     vdW  Elec       q    Type
REMARK                         _______ _______ _______ _____ _____    ______ ____
ROOT
ATOM      3  N   UNL     1     -16.990   6.289  22.566  0.00  0.00    -0.293 NA
ATOM     10  C   UNL     1     -14.914   7.303  22.253  0.00  0.00    +0.090 C 
ATOM     11  C   UNL     1     -16.071   5.154  22.358  0.00  0.00    +0.147 C 
ATOM     12  C   UNL     1     -14.671   5.795  22.303  0.00  0.00    +0.052 C 
ATOM     13  C   UNL     1     -16.382   7.430  21.872  0.00  0.00    +0.107 C 
ATOM     21  C   UNL     1     -18.344   6.025  22.093  0.00  0.00    +0.105 C 
ENDROOT
BRANCH  10   4
ATOM      2  O   UNL     1     -14.191  10.049  22.707  0.00  0.00    -0.253 OA
ATOM      4  N   UNL     1     -14.647   7.927  23.527  0.00  0.00    -0.295 N 
ATOM      5  N   UNL     1     -14.098   9.615  24.986  0.00  0.00    -0.297 N 
ATOM     22  C   UNL     1     -14.301   9.271  23.653  0.00  0.00    +0.300 C 
ATOM     28  H   UNL     1     -14.641   7.346  24.361  0.00  0.00    +0.151 HD
ATOM     29  H   UNL     1     -14.143   8.876  25.681  0.00  0.00    +0.151 HD
BRANCH   5  14
ATOM     14  C   UNL     1     -13.728  10.947  25.410  0.00  0.00    +0.074 C 
ATOM     15  C   UNL     1     -14.162  11.205  26.857  0.00  0.00    +0.022 C 
ATOM     16  C   UNL     1     -12.227  11.188  25.229  0.00  0.00    +0.022 C 
ATOM     17  C   UNL     1     -13.317  10.428  27.867  0.00  0.00    +0.002 C 
ATOM     18  C   UNL     1     -11.384  10.411  26.242  0.00  0.00    +0.002 C 
ATOM     19  C   UNL     1     -11.827  10.692  27.675  0.00  0.00    +0.000 C 
ENDBRANCH   5  14
ENDBRANCH  10   4
BRANCH  11  20
ATOM      1  O   UNL     1     -16.338   2.809  22.992  0.00  0.00    -0.336 OA
ATOM      6  N   UNL     1     -16.145   4.210  24.729  0.00  0.00    -0.189 NA
ATOM      7  N   UNL     1     -16.414   2.015  24.144  0.00  0.00    -0.054 NA
ATOM     20  C   UNL     1     -16.179   4.087  23.427  0.00  0.00    +0.245 A 
ATOM     23  C   UNL     1     -16.292   2.913  25.127  0.00  0.00    +0.222 A 
BRANCH  23  24
ATOM      8  N   UNL     1     -15.942   3.494  27.396  0.00  0.00    -0.249 NA
ATOM      9  N   UNL     1     -16.719   0.927  28.213  0.00  0.00    -0.260 NA
ATOM     24  C   UNL     1     -16.313   2.547  26.513  0.00  0.00    +0.129 A 
ATOM     25  C   UNL     1     -16.695   1.285  26.914  0.00  0.00    +0.142 A 
ATOM     26  C   UNL     1     -15.966   3.136  28.695  0.00  0.00    +0.131 A 
ATOM     27  C   UNL     1     -16.348   1.874  29.096  0.00  0.00    +0.130 A 
ENDBRANCH  23  24
ENDBRANCH  11  20
TORSDOF 4
ENDMDL
