MODEL 1
REMARK VINA RESULT:      -7.7      0.000      0.000
REMARK  Name = 40779367
REMARK  9 active torsions:
REMARK  status: ('A' for Active; 'I' for Inactive)
REMARK    1  A    between atoms: N_4  and  C_19
REMARK    2  A    between atoms: N_5  and  C_16
REMARK    3  A    between atoms: N_7  and  C_30
REMARK    4  A    between atoms: N_7  and  C_31
REMARK    5  A    between atoms: N_7  and  C_32
REMARK    6  A    between atoms: C_9  and  C_15
REMARK    7  A    between atoms: C_10  and  C_16
REMARK    8  A    between atoms: C_18  and  C_21
REMARK    9  A    between atoms: C_20  and  C_22
REMARK                            x       y       z     vdW  Elec       q    Type
REMARK                         _______ _______ _______ _____ _____    ______ ____
ROOT
ATOM      3  N   UNL     1      10.936   7.536  20.911  0.00  0.00    -0.297 NA
ATOM      8  C   UNL     1      12.220   9.521  22.004  0.00  0.00    +0.002 C 
ATOM      9  C   UNL     1      11.665   9.933  20.612  0.00  0.00    +0.055 C 
ATOM     10  C   UNL     1      12.269   7.079  21.385  0.00  0.00    +0.074 C 
ATOM     11  C   UNL     1      13.124   8.280  21.847  0.00  0.00    +0.024 C 
ATOM     12  C   UNL     1      11.007   9.094  22.858  0.00  0.00    +0.019 C 
ATOM     13  C   UNL     1      11.095   8.649  19.943  0.00  0.00    +0.094 C 
ATOM     14  C   UNL     1      10.186   8.046  22.084  0.00  0.00    +0.085 C 
ENDROOT
BRANCH   9  15
ATOM      4  N   UNL     1      12.813  12.052  19.813  0.00  0.00    -0.270 N 
ATOM      6  N   UNL     1      13.645  12.553  18.887  0.00  0.00    -0.171 NA
ATOM     15  C   UNL     1      12.577  10.714  19.677  0.00  0.00    +0.044 A 
ATOM     17  C   UNL     1      13.307  10.315  18.585  0.00  0.00    +0.053 A 
ATOM     18  C   UNL     1      13.945  11.487  18.139  0.00  0.00    +0.100 A 
ATOM     19  C   UNL     1      12.268  12.930  20.822  0.00  0.00    +0.172 C 
BRANCH  18  21
ATOM      1  S   UNL     1      14.675  10.643  15.560  0.00  0.00    -0.095 S 
ATOM     21  C   UNL     1      14.852  11.582  16.981  0.00  0.00    +0.039 A 
ATOM     23  C   UNL     1      15.937  12.429  16.909  0.00  0.00    +0.018 A 
ATOM     26  C   UNL     1      16.631  12.305  15.671  0.00  0.00    +0.008 A 
ATOM     27  C   UNL     1      16.051  11.368  14.844  0.00  0.00    +0.046 A 
ENDBRANCH  18  21
ENDBRANCH   9  15
BRANCH  10  16
ATOM     16  C   UNL     1      12.998   6.227  20.344  0.00  0.00    +0.123 C 
BRANCH  16   5
ATOM      2  O   UNL     1      15.050   7.213  18.595  0.00  0.00    -0.270 OA
ATOM      5  N   UNL     1      14.408   6.217  20.590  0.00  0.00    -0.310 N 
ATOM     20  C   UNL     1      15.339   6.719  19.681  0.00  0.00    +0.244 C 
ATOM     33  H   UNL     1      14.720   5.743  21.430  0.00  0.00    +0.149 HD
BRANCH  20  22
ATOM     22  C   UNL     1      16.767   6.610  20.073  0.00  0.00    +0.037 A 
ATOM     24  C   UNL     1      17.266   7.387  21.117  0.00  0.00    +0.015 A 
ATOM     25  C   UNL     1      17.611   5.729  19.396  0.00  0.00    +0.015 A 
ATOM     28  C   UNL     1      18.607   7.286  21.485  0.00  0.00    +0.024 A 
ATOM     29  C   UNL     1      18.953   5.627  19.762  0.00  0.00    +0.024 A 
ATOM     30  C   UNL     1      19.451   6.406  20.808  0.00  0.00    +0.029 A 
BRANCH  30   7
ATOM      7  N   UNL     1      20.807   6.302  21.179  0.00  0.00    -0.336 N 
ATOM     31  C   UNL     1      21.823   7.047  20.463  0.00  0.00    +0.129 C 
ATOM     32  C   UNL     1      21.203   5.453  22.286  0.00  0.00    +0.129 C 
ENDBRANCH  30   7
ENDBRANCH  20  22
ENDBRANCH  16   5
ENDBRANCH  10  16
TORSDOF 6
ENDMDL
MODEL 2
REMARK VINA RESULT:      -7.1      2.779      3.552
REMARK  Name = 40779367
REMARK  9 active torsions:
REMARK  status: ('A' for Active; 'I' for Inactive)
REMARK    1  A    between atoms: N_4  and  C_19
REMARK    2  A    between atoms: N_5  and  C_16
REMARK    3  A    between atoms: N_7  and  C_30
REMARK    4  A    between atoms: N_7  and  C_31
REMARK    5  A    between atoms: N_7  and  C_32
REMARK    6  A    between atoms: C_9  and  C_15
REMARK    7  A    between atoms: C_10  and  C_16
REMARK    8  A    between atoms: C_18  and  C_21
REMARK    9  A    between atoms: C_20  and  C_22
REMARK                            x       y       z     vdW  Elec       q    Type
REMARK                         _______ _______ _______ _____ _____    ______ ____
ROOT
ATOM      3  N   UNL     1      12.242   8.481  19.211  0.00  0.00    -0.297 NA
ATOM      8  C   UNL     1      12.513   8.478  21.801  0.00  0.00    +0.002 C 
ATOM      9  C   UNL     1      12.945   9.849  21.212  0.00  0.00    +0.055 C 
ATOM     10  C   UNL     1      12.993   7.272  19.642  0.00  0.00    +0.074 C 
ATOM     11  C   UNL     1      13.342   7.355  21.144  0.00  0.00    +0.024 C 
ATOM     12  C   UNL     1      11.042   8.258  21.386  0.00  0.00    +0.019 C 
ATOM     13  C   UNL     1      12.949   9.706  19.662  0.00  0.00    +0.094 C 
ATOM     14  C   UNL     1      10.912   8.447  19.864  0.00  0.00    +0.085 C 
ENDROOT
BRANCH   9  15
ATOM      4  N   UNL     1      14.268  11.241  22.871  0.00  0.00    -0.270 N 
ATOM      6  N   UNL     1      15.491  11.714  23.161  0.00  0.00    -0.171 NA
ATOM     15  C   UNL     1      14.224  10.486  21.735  0.00  0.00    +0.044 A 
ATOM     17  C   UNL     1      15.508  10.464  21.250  0.00  0.00    +0.053 A 
ATOM     18  C   UNL     1      16.245  11.236  22.167  0.00  0.00    +0.100 A 
ATOM     19  C   UNL     1      13.163  11.559  23.744  0.00  0.00    +0.172 C 
BRANCH  18  21
ATOM      1  S   UNL     1      18.565  11.558  20.615  0.00  0.00    -0.095 S 
ATOM     21  C   UNL     1      17.691  11.515  22.086  0.00  0.00    +0.039 A 
ATOM     23  C   UNL     1      18.496  11.770  23.174  0.00  0.00    +0.018 A 
ATOM     26  C   UNL     1      19.849  12.005  22.795  0.00  0.00    +0.008 A 
ATOM     27  C   UNL     1      20.026  11.919  21.432  0.00  0.00    +0.046 A 
ENDBRANCH  18  21
ENDBRANCH   9  15
BRANCH  10  16
ATOM     16  C   UNL     1      14.232   7.018  18.781  0.00  0.00    +0.123 C 
BRANCH  16   5
ATOM      2  O   UNL     1      16.669   5.533  18.466  0.00  0.00    -0.270 OA
ATOM      5  N   UNL     1      15.428   7.165  19.553  0.00  0.00    -0.310 N 
ATOM     20  C   UNL     1      16.571   6.398  19.332  0.00  0.00    +0.244 C 
ATOM     33  H   UNL     1      15.385   7.801  20.342  0.00  0.00    +0.149 HD
BRANCH  20  22
ATOM     22  C   UNL     1      17.720   6.653  20.237  0.00  0.00    +0.037 A 
ATOM     24  C   UNL     1      17.671   7.707  21.149  0.00  0.00    +0.015 A 
ATOM     25  C   UNL     1      18.852   5.838  20.175  0.00  0.00    +0.015 A 
ATOM     28  C   UNL     1      18.751   7.946  21.998  0.00  0.00    +0.024 A 
ATOM     29  C   UNL     1      19.932   6.077  21.024  0.00  0.00    +0.024 A 
ATOM     30  C   UNL     1      19.881   7.132  21.936  0.00  0.00    +0.029 A 
BRANCH  30   7
ATOM      7  N   UNL     1      20.973   7.373  22.794  0.00  0.00    -0.336 N 
ATOM     31  C   UNL     1      20.763   7.548  24.218  0.00  0.00    +0.129 C 
ATOM     32  C   UNL     1      22.322   7.442  22.266  0.00  0.00    +0.129 C 
ENDBRANCH  30   7
ENDBRANCH  20  22
ENDBRANCH  16   5
ENDBRANCH  10  16
TORSDOF 6
ENDMDL
MODEL 3
REMARK VINA RESULT:      -6.8     27.025     31.905
REMARK  Name = 40779367
REMARK  9 active torsions:
REMARK  status: ('A' for Active; 'I' for Inactive)
REMARK    1  A    between atoms: N_4  and  C_19
REMARK    2  A    between atoms: N_5  and  C_16
REMARK    3  A    between atoms: N_7  and  C_30
REMARK    4  A    between atoms: N_7  and  C_31
REMARK    5  A    between atoms: N_7  and  C_32
REMARK    6  A    between atoms: C_9  and  C_15
REMARK    7  A    between atoms: C_10  and  C_16
REMARK    8  A    between atoms: C_18  and  C_21
REMARK    9  A    between atoms: C_20  and  C_22
REMARK                            x       y       z     vdW  Elec       q    Type
REMARK                         _______ _______ _______ _____ _____    ______ ____
ROOT
ATOM      3  N   UNL     1     -18.482   4.539  23.660  0.00  0.00    -0.297 NA
ATOM      8  C   UNL     1     -17.806   2.024  23.732  0.00  0.00    +0.002 C 
ATOM      9  C   UNL     1     -18.386   2.471  25.103  0.00  0.00    +0.055 C 
ATOM     10  C   UNL     1     -17.098   4.369  23.141  0.00  0.00    +0.074 C 
ATOM     11  C   UNL     1     -16.606   2.922  23.367  0.00  0.00    +0.024 C 
ATOM     12  C   UNL     1     -18.905   2.285  22.679  0.00  0.00    +0.019 C 
ATOM     13  C   UNL     1     -18.573   4.014  25.045  0.00  0.00    +0.094 C 
ATOM     14  C   UNL     1     -19.390   3.741  22.802  0.00  0.00    +0.085 C 
ENDROOT
BRANCH   9  15
ATOM      4  N   UNL     1     -18.015   0.905  27.066  0.00  0.00    -0.270 N 
ATOM      6  N   UNL     1     -17.258   0.685  28.153  0.00  0.00    -0.171 NA
ATOM     15  C   UNL     1     -17.667   2.024  26.367  0.00  0.00    +0.044 A 
ATOM     17  C   UNL     1     -16.607   2.574  27.046  0.00  0.00    +0.053 A 
ATOM     18  C   UNL     1     -16.398   1.708  28.136  0.00  0.00    +0.100 A 
ATOM     19  C   UNL     1     -19.079  -0.019  26.749  0.00  0.00    +0.172 C 
BRANCH  18  21
ATOM      1  S   UNL     1     -14.659   0.555  30.017  0.00  0.00    -0.095 S 
ATOM     21  C   UNL     1     -15.361   1.868  29.171  0.00  0.00    +0.039 A 
ATOM     23  C   UNL     1     -14.842   3.079  29.573  0.00  0.00    +0.018 A 
ATOM     26  C   UNL     1     -13.855   2.927  30.589  0.00  0.00    +0.008 A 
ATOM     27  C   UNL     1     -13.657   1.605  30.925  0.00  0.00    +0.046 A 
ENDBRANCH  18  21
ENDBRANCH   9  15
BRANCH  10  16
ATOM     16  C   UNL     1     -16.127   5.399  23.722  0.00  0.00    +0.123 C 
BRANCH  16   5
ATOM      2  O   UNL     1     -13.439   4.829  22.893  0.00  0.00    -0.270 OA
ATOM      5  N   UNL     1     -15.398   6.055  22.681  0.00  0.00    -0.310 N 
ATOM     20  C   UNL     1     -14.089   5.714  22.343  0.00  0.00    +0.244 C 
ATOM     33  H   UNL     1     -15.845   6.854  22.245  0.00  0.00    +0.149 HD
BRANCH  20  22
ATOM     22  C   UNL     1     -13.460   6.509  21.257  0.00  0.00    +0.037 A 
ATOM     24  C   UNL     1     -12.079   6.464  21.069  0.00  0.00    +0.015 A 
ATOM     25  C   UNL     1     -14.251   7.302  20.425  0.00  0.00    +0.015 A 
ATOM     28  C   UNL     1     -11.488   7.211  20.050  0.00  0.00    +0.024 A 
ATOM     29  C   UNL     1     -13.661   8.049  19.406  0.00  0.00    +0.024 A 
ATOM     30  C   UNL     1     -12.279   8.003  19.219  0.00  0.00    +0.029 A 
BRANCH  30   7
ATOM      7  N   UNL     1     -11.683   8.759  18.188  0.00  0.00    -0.336 N 
ATOM     31  C   UNL     1     -12.178  10.083  17.868  0.00  0.00    +0.129 C 
ATOM     32  C   UNL     1     -10.562   8.224  17.439  0.00  0.00    +0.129 C 
ENDBRANCH  30   7
ENDBRANCH  20  22
ENDBRANCH  16   5
ENDBRANCH  10  16
TORSDOF 6
ENDMDL
MODEL 4
REMARK VINA RESULT:      -6.8     26.818     30.658
REMARK  Name = 40779367
REMARK  9 active torsions:
REMARK  status: ('A' for Active; 'I' for Inactive)
REMARK    1  A    between atoms: N_4  and  C_19
REMARK    2  A    between atoms: N_5  and  C_16
REMARK    3  A    between atoms: N_7  and  C_30
REMARK    4  A    between atoms: N_7  and  C_31
REMARK    5  A    between atoms: N_7  and  C_32
REMARK    6  A    between atoms: C_9  and  C_15
REMARK    7  A    between atoms: C_10  and  C_16
REMARK    8  A    between atoms: C_18  and  C_21
REMARK    9  A    between atoms: C_20  and  C_22
REMARK                            x       y       z     vdW  Elec       q    Type
REMARK                         _______ _______ _______ _____ _____    ______ ____
ROOT
ATOM      3  N   UNL     1      -6.098 -10.504  18.003  0.00  0.00    -0.297 NA
ATOM      8  C   UNL     1      -4.471 -12.316  17.078  0.00  0.00    +0.002 C 
ATOM      9  C   UNL     1      -4.047 -10.903  16.588  0.00  0.00    +0.055 C 
ATOM     10  C   UNL     1      -6.871 -11.613  17.383  0.00  0.00    +0.074 C 
ATOM     11  C   UNL     1      -5.927 -12.591  16.649  0.00  0.00    +0.024 C 
ATOM     12  C   UNL     1      -4.453 -12.274  18.622  0.00  0.00    +0.019 C 
ATOM     13  C   UNL     1      -5.171  -9.912  17.007  0.00  0.00    +0.094 C 
ATOM     14  C   UNL     1      -5.289 -11.076  19.106  0.00  0.00    +0.085 C 
ENDROOT
BRANCH   9  15
ATOM      4  N   UNL     1      -2.354 -10.598  14.722  0.00  0.00    -0.270 N 
ATOM      6  N   UNL     1      -2.213 -10.465  13.392  0.00  0.00    -0.171 NA
ATOM     15  C   UNL     1      -3.649 -10.739  15.128  0.00  0.00    +0.044 A 
ATOM     17  C   UNL     1      -4.407 -10.695  13.984  0.00  0.00    +0.053 A 
ATOM     18  C   UNL     1      -3.472 -10.525  12.947  0.00  0.00    +0.100 A 
ATOM     19  C   UNL     1      -1.179 -10.581  15.561  0.00  0.00    +0.172 C 
BRANCH  18  21
ATOM      1  S   UNL     1      -4.565 -11.662  10.621  0.00  0.00    -0.095 S 
ATOM     21  C   UNL     1      -3.792 -10.420  11.512  0.00  0.00    +0.039 A 
ATOM     23  C   UNL     1      -3.509  -9.322  10.729  0.00  0.00    +0.018 A 
ATOM     26  C   UNL     1      -3.933  -9.503   9.381  0.00  0.00    +0.008 A 
ATOM     27  C   UNL     1      -4.523 -10.732   9.184  0.00  0.00    +0.046 A 
ENDBRANCH  18  21
ENDBRANCH   9  15
BRANCH  10  16
ATOM     16  C   UNL     1      -7.988 -11.105  16.468  0.00  0.00    +0.123 C 
BRANCH  16   5
ATOM      2  O   UNL     1      -9.172  -8.669  17.419  0.00  0.00    -0.270 OA
ATOM      5  N   UNL     1      -9.217 -10.978  17.188  0.00  0.00    -0.310 N 
ATOM     20  C   UNL     1      -9.721  -9.749  17.615  0.00  0.00    +0.244 C 
ATOM     33  H   UNL     1      -9.678 -11.839  17.460  0.00  0.00    +0.149 HD
BRANCH  20  22
ATOM     22  C   UNL     1     -10.997  -9.789  18.375  0.00  0.00    +0.037 A 
ATOM     24  C   UNL     1     -12.203  -9.520  17.729  0.00  0.00    +0.015 A 
ATOM     25  C   UNL     1     -10.989 -10.093  19.737  0.00  0.00    +0.015 A 
ATOM     28  C   UNL     1     -13.401  -9.557  18.443  0.00  0.00    +0.024 A 
ATOM     29  C   UNL     1     -12.186 -10.129  20.451  0.00  0.00    +0.024 A 
ATOM     30  C   UNL     1     -13.392  -9.860  19.804  0.00  0.00    +0.029 A 
BRANCH  30   7
ATOM      7  N   UNL     1     -14.602  -9.897  20.526  0.00  0.00    -0.336 N 
ATOM     31  C   UNL     1     -15.118 -11.155  21.030  0.00  0.00    +0.129 C 
ATOM     32  C   UNL     1     -15.343  -8.677  20.782  0.00  0.00    +0.129 C 
ENDBRANCH  30   7
ENDBRANCH  20  22
ENDBRANCH  16   5
ENDBRANCH  10  16
TORSDOF 6
ENDMDL
MODEL 5
REMARK VINA RESULT:      -6.5     27.267     30.005
REMARK  Name = 40779367
REMARK  9 active torsions:
REMARK  status: ('A' for Active; 'I' for Inactive)
REMARK    1  A    between atoms: N_4  and  C_19
REMARK    2  A    between atoms: N_5  and  C_16
REMARK    3  A    between atoms: N_7  and  C_30
REMARK    4  A    between atoms: N_7  and  C_31
REMARK    5  A    between atoms: N_7  and  C_32
REMARK    6  A    between atoms: C_9  and  C_15
REMARK    7  A    between atoms: C_10  and  C_16
REMARK    8  A    between atoms: C_18  and  C_21
REMARK    9  A    between atoms: C_20  and  C_22
REMARK                            x       y       z     vdW  Elec       q    Type
REMARK                         _______ _______ _______ _____ _____    ______ ____
ROOT
ATOM      3  N   UNL     1      -4.108 -11.959  17.739  0.00  0.00    -0.297 NA
ATOM      8  C   UNL     1      -6.329 -10.663  17.321  0.00  0.00    +0.002 C 
ATOM      9  C   UNL     1      -6.417 -12.098  16.732  0.00  0.00    +0.055 C 
ATOM     10  C   UNL     1      -3.816 -10.626  17.146  0.00  0.00    +0.074 C 
ATOM     11  C   UNL     1      -5.121  -9.930  16.701  0.00  0.00    +0.024 C 
ATOM     12  C   UNL     1      -6.040 -10.819  18.830  0.00  0.00    +0.019 C 
ATOM     13  C   UNL     1      -5.000 -12.731  16.838  0.00  0.00    +0.094 C 
ATOM     14  C   UNL     1      -4.821 -11.739  19.020  0.00  0.00    +0.085 C 
ENDROOT
BRANCH   9  15
ATOM      4  N   UNL     1      -8.361 -12.433  15.134  0.00  0.00    -0.270 N 
ATOM      6  N   UNL     1      -8.693 -12.569  13.839  0.00  0.00    -0.171 NA
ATOM     15  C   UNL     1      -7.023 -12.271  15.346  0.00  0.00    +0.044 A 
ATOM     17  C   UNL     1      -6.440 -12.303  14.103  0.00  0.00    +0.053 A 
ATOM     18  C   UNL     1      -7.514 -12.489  13.214  0.00  0.00    +0.100 A 
ATOM     19  C   UNL     1      -9.400 -12.468  16.136  0.00  0.00    +0.172 C 
BRANCH  18  21
ATOM      1  S   UNL     1      -8.581 -11.969  10.667  0.00  0.00    -0.095 S 
ATOM     21  C   UNL     1      -7.406 -12.589  11.747  0.00  0.00    +0.039 A 
ATOM     23  C   UNL     1      -6.358 -13.188  11.083  0.00  0.00    +0.018 A 
ATOM     26  C   UNL     1      -6.522 -13.137   9.669  0.00  0.00    +0.008 A 
ATOM     27  C   UNL     1      -7.689 -12.502   9.306  0.00  0.00    +0.046 A 
ENDBRANCH  18  21
ENDBRANCH   9  15
BRANCH  10  16
ATOM     16  C   UNL     1      -2.796 -10.705  16.008  0.00  0.00    +0.123 C 
BRANCH  16   5
ATOM      2  O   UNL     1      -1.925 -11.614  13.427  0.00  0.00    -0.270 OA
ATOM      5  N   UNL     1      -3.413 -10.420  14.749  0.00  0.00    -0.310 N 
ATOM     20  C   UNL     1      -2.921 -10.904  13.537  0.00  0.00    +0.244 C 
ATOM     33  H   UNL     1      -4.189  -9.767  14.760  0.00  0.00    +0.149 HD
BRANCH  20  22
ATOM     22  C   UNL     1      -3.660 -10.495  12.316  0.00  0.00    +0.037 A 
ATOM     24  C   UNL     1      -3.146 -10.797  11.055  0.00  0.00    +0.015 A 
ATOM     25  C   UNL     1      -4.869  -9.807  12.429  0.00  0.00    +0.015 A 
ATOM     28  C   UNL     1      -3.840 -10.412   9.908  0.00  0.00    +0.024 A 
ATOM     29  C   UNL     1      -5.562  -9.421  11.282  0.00  0.00    +0.024 A 
ATOM     30  C   UNL     1      -5.047  -9.724  10.021  0.00  0.00    +0.029 A 
BRANCH  30   7
ATOM      7  N   UNL     1      -5.749  -9.335   8.862  0.00  0.00    -0.336 N 
ATOM     31  C   UNL     1      -6.812  -8.352   8.942  0.00  0.00    +0.129 C 
ATOM     32  C   UNL     1      -5.414  -9.908   7.573  0.00  0.00    +0.129 C 
ENDBRANCH  30   7
ENDBRANCH  20  22
ENDBRANCH  16   5
ENDBRANCH  10  16
TORSDOF 6
ENDMDL
MODEL 6
REMARK VINA RESULT:      -6.5     15.868     19.546
REMARK  Name = 40779367
REMARK  9 active torsions:
REMARK  status: ('A' for Active; 'I' for Inactive)
REMARK    1  A    between atoms: N_4  and  C_19
REMARK    2  A    between atoms: N_5  and  C_16
REMARK    3  A    between atoms: N_7  and  C_30
REMARK    4  A    between atoms: N_7  and  C_31
REMARK    5  A    between atoms: N_7  and  C_32
REMARK    6  A    between atoms: C_9  and  C_15
REMARK    7  A    between atoms: C_10  and  C_16
REMARK    8  A    between atoms: C_18  and  C_21
REMARK    9  A    between atoms: C_20  and  C_22
REMARK                            x       y       z     vdW  Elec       q    Type
REMARK                         _______ _______ _______ _____ _____    ______ ____
ROOT
ATOM      3  N   UNL     1      10.206   7.031   6.844  0.00  0.00    -0.297 NA
ATOM      8  C   UNL     1       9.242   5.140   5.334  0.00  0.00    +0.002 C 
ATOM      9  C   UNL     1      10.498   5.774   4.675  0.00  0.00    +0.055 C 
ATOM     10  C   UNL     1       8.744   7.226   6.656  0.00  0.00    +0.074 C 
ATOM     11  C   UNL     1       8.194   6.240   5.601  0.00  0.00    +0.024 C 
ATOM     12  C   UNL     1       9.688   4.594   6.708  0.00  0.00    +0.019 C 
ATOM     13  C   UNL     1      10.890   7.016   5.527  0.00  0.00    +0.094 C 
ATOM     14  C   UNL     1      10.409   5.710   7.486  0.00  0.00    +0.085 C 
ENDROOT
BRANCH   9  15
ATOM      4  N   UNL     1      10.800   5.189   2.223  0.00  0.00    -0.270 N 
ATOM      6  N   UNL     1      10.686   5.662   0.971  0.00  0.00    -0.171 NA
ATOM     15  C   UNL     1      10.447   6.089   3.187  0.00  0.00    +0.044 A 
ATOM     17  C   UNL     1      10.077   7.229   2.516  0.00  0.00    +0.053 A 
ATOM     18  C   UNL     1      10.243   6.909   1.156  0.00  0.00    +0.100 A 
ATOM     19  C   UNL     1      11.263   3.837   2.428  0.00  0.00    +0.172 C 
BRANCH  18  21
ATOM      1  S   UNL     1       9.248   7.302  -1.442  0.00  0.00    -0.095 S 
ATOM     21  C   UNL     1       9.973   7.812   0.023  0.00  0.00    +0.039 A 
ATOM     23  C   UNL     1      10.269   9.158   0.013  0.00  0.00    +0.018 A 
ATOM     26  C   UNL     1       9.896   9.778  -1.215  0.00  0.00    +0.008 A 
ATOM     27  C   UNL     1       9.329   8.882  -2.095  0.00  0.00    +0.046 A 
ENDBRANCH  18  21
ENDBRANCH   9  15
BRANCH  10  16
ATOM     16  C   UNL     1       8.388   8.676   6.321  0.00  0.00    +0.123 C 
BRANCH  16   5
ATOM      2  O   UNL     1       7.837  11.040   4.787  0.00  0.00    -0.270 OA
ATOM      5  N   UNL     1       7.640   8.749   5.103  0.00  0.00    -0.310 N 
ATOM     20  C   UNL     1       7.420   9.945   4.421  0.00  0.00    +0.244 C 
ATOM     33  H   UNL     1       7.193   7.894   4.791  0.00  0.00    +0.149 HD
BRANCH  20  22
ATOM     22  C   UNL     1       6.600   9.857   3.186  0.00  0.00    +0.037 A 
ATOM     24  C   UNL     1       5.238  10.152   3.229  0.00  0.00    +0.015 A 
ATOM     25  C   UNL     1       7.192   9.479   1.980  0.00  0.00    +0.015 A 
ATOM     28  C   UNL     1       4.468  10.069   2.069  0.00  0.00    +0.024 A 
ATOM     29  C   UNL     1       6.423   9.395   0.820  0.00  0.00    +0.024 A 
ATOM     30  C   UNL     1       5.060   9.690   0.865  0.00  0.00    +0.029 A 
BRANCH  30   7
ATOM      7  N   UNL     1       4.283   9.606  -0.308  0.00  0.00    -0.336 N 
ATOM     31  C   UNL     1       3.033  10.333  -0.415  0.00  0.00    +0.129 C 
ATOM     32  C   UNL     1       4.727   8.798  -1.428  0.00  0.00    +0.129 C 
ENDBRANCH  30   7
ENDBRANCH  20  22
ENDBRANCH  16   5
ENDBRANCH  10  16
TORSDOF 6
ENDMDL
MODEL 7
REMARK VINA RESULT:      -6.5     14.075     17.155
REMARK  Name = 40779367
REMARK  9 active torsions:
REMARK  status: ('A' for Active; 'I' for Inactive)
REMARK    1  A    between atoms: N_4  and  C_19
REMARK    2  A    between atoms: N_5  and  C_16
REMARK    3  A    between atoms: N_7  and  C_30
REMARK    4  A    between atoms: N_7  and  C_31
REMARK    5  A    between atoms: N_7  and  C_32
REMARK    6  A    between atoms: C_9  and  C_15
REMARK    7  A    between atoms: C_10  and  C_16
REMARK    8  A    between atoms: C_18  and  C_21
REMARK    9  A    between atoms: C_20  and  C_22
REMARK                            x       y       z     vdW  Elec       q    Type
REMARK                         _______ _______ _______ _____ _____    ______ ____
ROOT
ATOM      3  N   UNL     1      10.364   6.169   7.610  0.00  0.00    -0.297 NA
ATOM      8  C   UNL     1       9.617   7.871   5.784  0.00  0.00    +0.002 C 
ATOM      9  C   UNL     1       9.459   6.414   5.267  0.00  0.00    +0.055 C 
ATOM     10  C   UNL     1      11.409   7.212   7.428  0.00  0.00    +0.074 C 
ATOM     11  C   UNL     1      11.080   8.106   6.212  0.00  0.00    +0.024 C 
ATOM     12  C   UNL     1       8.748   7.987   7.056  0.00  0.00    +0.019 C 
ATOM     13  C   UNL     1      10.109   5.475   6.323  0.00  0.00    +0.094 C 
ATOM     14  C   UNL     1       9.113   6.848   8.025  0.00  0.00    +0.085 C 
ENDROOT
BRANCH   9  15
ATOM      4  N   UNL     1       9.499   6.795   2.758  0.00  0.00    -0.270 N 
ATOM      6  N   UNL     1      10.025   6.361   1.600  0.00  0.00    -0.171 NA
ATOM     15  C   UNL     1       9.923   6.099   3.852  0.00  0.00    +0.044 A 
ATOM     17  C   UNL     1      10.787   5.144   3.376  0.00  0.00    +0.053 A 
ATOM     18  C   UNL     1      10.812   5.352   1.985  0.00  0.00    +0.100 A 
ATOM     19  C   UNL     1       8.576   7.905   2.740  0.00  0.00    +0.172 C 
BRANCH  18  21
ATOM      1  S   UNL     1      11.200   4.439  -0.644  0.00  0.00    -0.095 S 
ATOM     21  C   UNL     1      11.602   4.571   1.015  0.00  0.00    +0.039 A 
ATOM     23  C   UNL     1      12.743   3.865   1.329  0.00  0.00    +0.018 A 
ATOM     26  C   UNL     1      13.294   3.207   0.192  0.00  0.00    +0.008 A 
ATOM     27  C   UNL     1      12.554   3.435  -0.947  0.00  0.00    +0.046 A 
ENDBRANCH  18  21
ENDBRANCH   9  15
BRANCH  10  16
ATOM     16  C   UNL     1      12.816   6.616   7.334  0.00  0.00    +0.123 C 
BRANCH  16   5
ATOM      2  O   UNL     1      15.372   7.706   6.611  0.00  0.00    -0.270 OA
ATOM      5  N   UNL     1      13.341   6.756   6.011  0.00  0.00    -0.310 N 
ATOM     20  C   UNL     1      14.598   7.299   5.749  0.00  0.00    +0.244 C 
ATOM     33  H   UNL     1      12.718   6.520   5.246  0.00  0.00    +0.149 HD
BRANCH  20  22
ATOM     22  C   UNL     1      14.987   7.400   4.319  0.00  0.00    +0.037 A 
ATOM     24  C   UNL     1      14.096   7.003   3.323  0.00  0.00    +0.015 A 
ATOM     25  C   UNL     1      16.246   7.893   3.971  0.00  0.00    +0.015 A 
ATOM     28  C   UNL     1      14.462   7.097   1.981  0.00  0.00    +0.024 A 
ATOM     29  C   UNL     1      16.612   7.988   2.629  0.00  0.00    +0.024 A 
ATOM     30  C   UNL     1      15.719   7.589   1.634  0.00  0.00    +0.029 A 
BRANCH  30   7
ATOM      7  N   UNL     1      16.090   7.686   0.277  0.00  0.00    -0.336 N 
ATOM     31  C   UNL     1      15.151   8.189  -0.707  0.00  0.00    +0.129 C 
ATOM     32  C   UNL     1      17.417   7.289  -0.153  0.00  0.00    +0.129 C 
ENDBRANCH  30   7
ENDBRANCH  20  22
ENDBRANCH  16   5
ENDBRANCH  10  16
TORSDOF 6
ENDMDL
MODEL 8
REMARK VINA RESULT:      -6.4     27.072     29.946
REMARK  Name = 40779367
REMARK  9 active torsions:
REMARK  status: ('A' for Active; 'I' for Inactive)
REMARK    1  A    between atoms: N_4  and  C_19
REMARK    2  A    between atoms: N_5  and  C_16
REMARK    3  A    between atoms: N_7  and  C_30
REMARK    4  A    between atoms: N_7  and  C_31
REMARK    5  A    between atoms: N_7  and  C_32
REMARK    6  A    between atoms: C_9  and  C_15
REMARK    7  A    between atoms: C_10  and  C_16
REMARK    8  A    between atoms: C_18  and  C_21
REMARK    9  A    between atoms: C_20  and  C_22
REMARK                            x       y       z     vdW  Elec       q    Type
REMARK                         _______ _______ _______ _____ _____    ______ ____
ROOT
ATOM      3  N   UNL     1      -6.310 -10.428  17.826  0.00  0.00    -0.297 NA
ATOM      8  C   UNL     1      -4.821 -12.293  16.780  0.00  0.00    +0.002 C 
ATOM      9  C   UNL     1      -4.329 -10.889  16.332  0.00  0.00    +0.055 C 
ATOM     10  C   UNL     1      -7.165 -11.464  17.187  0.00  0.00    +0.074 C 
ATOM     11  C   UNL     1      -6.303 -12.465  16.386  0.00  0.00    +0.024 C 
ATOM     12  C   UNL     1      -4.756 -12.316  18.323  0.00  0.00    +0.019 C 
ATOM     13  C   UNL     1      -5.378  -9.852  16.825  0.00  0.00    +0.094 C 
ATOM     14  C   UNL     1      -5.505 -11.092  18.880  0.00  0.00    +0.085 C 
ENDROOT
BRANCH   9  15
ATOM      4  N   UNL     1      -2.705 -10.893  14.381  0.00  0.00    -0.270 N 
ATOM      6  N   UNL     1      -2.589 -10.661  13.063  0.00  0.00    -0.171 NA
ATOM     15  C   UNL     1      -3.963 -10.689  14.869  0.00  0.00    +0.044 A 
ATOM     17  C   UNL     1      -4.722 -10.296  13.794  0.00  0.00    +0.053 A 
ATOM     18  C   UNL     1      -3.825 -10.297  12.709  0.00  0.00    +0.100 A 
ATOM     19  C   UNL     1      -1.544 -11.317  15.127  0.00  0.00    +0.172 C 
BRANCH  18  21
ATOM      1  S   UNL     1      -3.707 -10.890   9.965  0.00  0.00    -0.095 S 
ATOM     21  C   UNL     1      -4.162  -9.943  11.318  0.00  0.00    +0.039 A 
ATOM     23  C   UNL     1      -4.873  -8.822  10.950  0.00  0.00    +0.018 A 
ATOM     26  C   UNL     1      -5.047  -8.739   9.538  0.00  0.00    +0.008 A 
ATOM     27  C   UNL     1      -4.462  -9.800   8.882  0.00  0.00    +0.046 A 
ENDBRANCH  18  21
ENDBRANCH   9  15
BRANCH  10  16
ATOM     16  C   UNL     1      -8.276 -10.854  16.328  0.00  0.00    +0.123 C 
BRANCH  16   5
ATOM      2  O   UNL     1      -9.077  -9.191  14.129  0.00  0.00    -0.270 OA
ATOM      5  N   UNL     1      -8.042 -11.104  14.939  0.00  0.00    -0.310 N 
ATOM     20  C   UNL     1      -8.468 -10.239  13.932  0.00  0.00    +0.244 C 
ATOM     33  H   UNL     1      -7.622 -11.996  14.702  0.00  0.00    +0.149 HD
BRANCH  20  22
ATOM     22  C   UNL     1      -8.172 -10.656  12.538  0.00  0.00    +0.037 A 
ATOM     24  C   UNL     1      -7.491 -11.848  12.294  0.00  0.00    +0.015 A 
ATOM     25  C   UNL     1      -8.575  -9.853  11.469  0.00  0.00    +0.015 A 
ATOM     28  C   UNL     1      -7.212 -12.239  10.985  0.00  0.00    +0.024 A 
ATOM     29  C   UNL     1      -8.296 -10.243  10.159  0.00  0.00    +0.024 A 
ATOM     30  C   UNL     1      -7.614 -11.436   9.918  0.00  0.00    +0.029 A 
BRANCH  30   7
ATOM      7  N   UNL     1      -7.334 -11.830   8.593  0.00  0.00    -0.336 N 
ATOM     31  C   UNL     1      -7.752 -11.005   7.477  0.00  0.00    +0.129 C 
ATOM     32  C   UNL     1      -6.616 -13.063   8.330  0.00  0.00    +0.129 C 
ENDBRANCH  30   7
ENDBRANCH  20  22
ENDBRANCH  16   5
ENDBRANCH  10  16
TORSDOF 6
ENDMDL
MODEL 9
REMARK VINA RESULT:      -6.4     27.409     30.692
REMARK  Name = 40779367
REMARK  9 active torsions:
REMARK  status: ('A' for Active; 'I' for Inactive)
REMARK    1  A    between atoms: N_4  and  C_19
REMARK    2  A    between atoms: N_5  and  C_16
REMARK    3  A    between atoms: N_7  and  C_30
REMARK    4  A    between atoms: N_7  and  C_31
REMARK    5  A    between atoms: N_7  and  C_32
REMARK    6  A    between atoms: C_9  and  C_15
REMARK    7  A    between atoms: C_10  and  C_16
REMARK    8  A    between atoms: C_18  and  C_21
REMARK    9  A    between atoms: C_20  and  C_22
REMARK                            x       y       z     vdW  Elec       q    Type
REMARK                         _______ _______ _______ _____ _____    ______ ____
ROOT
ATOM      3  N   UNL     1     -13.152   8.681  31.778  0.00  0.00    -0.297 NA
ATOM      8  C   UNL     1     -12.668  11.035  32.781  0.00  0.00    +0.002 C 
ATOM      9  C   UNL     1     -11.363  10.404  32.223  0.00  0.00    +0.055 C 
ATOM     10  C   UNL     1     -13.736   8.782  33.142  0.00  0.00    +0.074 C 
ATOM     11  C   UNL     1     -13.285  10.089  33.831  0.00  0.00    +0.024 C 
ATOM     12  C   UNL     1     -13.662  11.116  31.603  0.00  0.00    +0.019 C 
ATOM     13  C   UNL     1     -11.690   8.934  31.831  0.00  0.00    +0.094 C 
ATOM     14  C   UNL     1     -13.773   9.732  30.937  0.00  0.00    +0.085 C 
ENDROOT
BRANCH   9  15
ATOM      4  N   UNL     1      -9.116  11.425  32.817  0.00  0.00    -0.270 N 
ATOM      6  N   UNL     1      -8.081  11.353  33.671  0.00  0.00    -0.171 NA
ATOM     15  C   UNL     1     -10.098  10.509  33.062  0.00  0.00    +0.044 A 
ATOM     17  C   UNL     1      -9.674   9.789  34.152  0.00  0.00    +0.053 A 
ATOM     18  C   UNL     1      -8.428  10.351  34.485  0.00  0.00    +0.100 A 
ATOM     19  C   UNL     1      -9.097  12.416  31.768  0.00  0.00    +0.172 C 
BRANCH  18  21
ATOM      1  S   UNL     1      -5.943  10.443  35.794  0.00  0.00    -0.095 S 
ATOM     21  C   UNL     1      -7.563   9.921  35.598  0.00  0.00    +0.039 A 
ATOM     23  C   UNL     1      -7.953   9.059  36.599  0.00  0.00    +0.018 A 
ATOM     26  C   UNL     1      -6.908   8.823  37.539  0.00  0.00    +0.008 A 
ATOM     27  C   UNL     1      -5.760   9.514  37.220  0.00  0.00    +0.046 A 
ENDBRANCH  18  21
ENDBRANCH   9  15
BRANCH  10  16
ATOM     16  C   UNL     1     -13.434   7.551  33.999  0.00  0.00    +0.123 C 
BRANCH  16   5
ATOM      2  O   UNL     1     -14.126   4.988  35.091  0.00  0.00    -0.270 OA
ATOM      5  N   UNL     1     -13.676   6.347  33.265  0.00  0.00    -0.310 N 
ATOM     20  C   UNL     1     -14.009   5.140  33.879  0.00  0.00    +0.244 C 
ATOM     33  H   UNL     1     -13.510   6.382  32.265  0.00  0.00    +0.149 HD
BRANCH  20  22
ATOM     22  C   UNL     1     -14.202   3.975  32.979  0.00  0.00    +0.037 A 
ATOM     24  C   UNL     1     -14.611   2.749  33.502  0.00  0.00    +0.015 A 
ATOM     25  C   UNL     1     -13.973   4.105  31.609  0.00  0.00    +0.015 A 
ATOM     28  C   UNL     1     -14.792   1.654  32.658  0.00  0.00    +0.024 A 
ATOM     29  C   UNL     1     -14.153   3.011  30.763  0.00  0.00    +0.024 A 
ATOM     30  C   UNL     1     -14.563   1.785  31.288  0.00  0.00    +0.029 A 
BRANCH  30   7
ATOM      7  N   UNL     1     -14.746   0.679  30.433  0.00  0.00    -0.336 N 
ATOM     31  C   UNL     1     -13.643  -0.216  30.144  0.00  0.00    +0.129 C 
ATOM     32  C   UNL     1     -16.042   0.417  29.837  0.00  0.00    +0.129 C 
ENDBRANCH  30   7
ENDBRANCH  20  22
ENDBRANCH  16   5
ENDBRANCH  10  16
TORSDOF 6
ENDMDL
MODEL 10
REMARK VINA RESULT:      -6.3     31.653     33.316
REMARK  Name = 40779367
REMARK  9 active torsions:
REMARK  status: ('A' for Active; 'I' for Inactive)
REMARK    1  A    between atoms: N_4  and  C_19
REMARK    2  A    between atoms: N_5  and  C_16
REMARK    3  A    between atoms: N_7  and  C_30
REMARK    4  A    between atoms: N_7  and  C_31
REMARK    5  A    between atoms: N_7  and  C_32
REMARK    6  A    between atoms: C_9  and  C_15
REMARK    7  A    between atoms: C_10  and  C_16
REMARK    8  A    between atoms: C_18  and  C_21
REMARK    9  A    between atoms: C_20  and  C_22
REMARK                            x       y       z     vdW  Elec       q    Type
REMARK                         _______ _______ _______ _____ _____    ______ ____
ROOT
ATOM      3  N   UNL     1     -15.201   1.649  32.191  0.00  0.00    -0.297 NA
ATOM      8  C   UNL     1     -13.803   3.598  31.175  0.00  0.00    +0.002 C 
ATOM      9  C   UNL     1     -15.227   4.091  31.552  0.00  0.00    +0.055 C 
ATOM     10  C   UNL     1     -14.575   1.214  30.914  0.00  0.00    +0.074 C 
ATOM     11  C   UNL     1     -13.915   2.411  30.195  0.00  0.00    +0.024 C 
ATOM     12  C   UNL     1     -13.161   3.058  32.471  0.00  0.00    +0.019 C 
ATOM     13  C   UNL     1     -16.058   2.839  31.957  0.00  0.00    +0.094 C 
ATOM     14  C   UNL     1     -14.114   2.038  33.121  0.00  0.00    +0.085 C 
ENDROOT
BRANCH   9  15
ATOM      4  N   UNL     1     -16.044   6.334  30.690  0.00  0.00    -0.270 N 
ATOM      6  N   UNL     1     -16.743   6.934  29.712  0.00  0.00    -0.171 NA
ATOM     15  C   UNL     1     -15.967   4.978  30.562  0.00  0.00    +0.044 A 
ATOM     17  C   UNL     1     -16.665   4.670  29.420  0.00  0.00    +0.053 A 
ATOM     18  C   UNL     1     -17.120   5.911  28.938  0.00  0.00    +0.100 A 
ATOM     19  C   UNL     1     -15.464   7.140  31.738  0.00  0.00    +0.172 C 
BRANCH  18  21
ATOM      1  S   UNL     1     -17.928   7.574  26.821  0.00  0.00    -0.095 S 
ATOM     21  C   UNL     1     -17.926   6.116  27.721  0.00  0.00    +0.039 A 
ATOM     23  C   UNL     1     -18.762   5.169  27.172  0.00  0.00    +0.018 A 
ATOM     26  C   UNL     1     -19.412   5.645  25.997  0.00  0.00    +0.008 A 
ATOM     27  C   UNL     1     -19.049   6.939  25.694  0.00  0.00    +0.046 A 
ENDBRANCH  18  21
ENDBRANCH   9  15
BRANCH  10  16
ATOM     16  C   UNL     1     -15.559   0.474  30.005  0.00  0.00    +0.123 C 
BRANCH  16   5
ATOM      2  O   UNL     1     -17.789   0.294  28.205  0.00  0.00    -0.270 OA
ATOM      5  N   UNL     1     -15.702   1.150  28.752  0.00  0.00    -0.310 N 
ATOM     20  C   UNL     1     -16.824   1.004  27.937  0.00  0.00    +0.244 C 
ATOM     33  H   UNL     1     -14.903   1.685  28.429  0.00  0.00    +0.149 HD
BRANCH  20  22
ATOM     22  C   UNL     1     -16.808   1.752  26.654  0.00  0.00    +0.037 A 
ATOM     24  C   UNL     1     -15.996   2.877  26.512  0.00  0.00    +0.015 A 
ATOM     25  C   UNL     1     -17.606   1.331  25.590  0.00  0.00    +0.015 A 
ATOM     28  C   UNL     1     -15.981   3.580  25.307  0.00  0.00    +0.024 A 
ATOM     29  C   UNL     1     -17.592   2.033  24.386  0.00  0.00    +0.024 A 
ATOM     30  C   UNL     1     -16.780   3.159  24.245  0.00  0.00    +0.029 A 
BRANCH  30   7
ATOM      7  N   UNL     1     -16.765   3.868  23.027  0.00  0.00    -0.336 N 
ATOM     31  C   UNL     1     -15.653   4.738  22.696  0.00  0.00    +0.129 C 
ATOM     32  C   UNL     1     -17.860   3.733  22.085  0.00  0.00    +0.129 C 
ENDBRANCH  30   7
ENDBRANCH  20  22
ENDBRANCH  16   5
ENDBRANCH  10  16
TORSDOF 6
ENDMDL
