MODEL 1
REMARK VINA RESULT:      -7.5      0.000      0.000
REMARK  Name = 11879578
REMARK  11 active torsions:
REMARK  status: ('A' for Active; 'I' for Inactive)
REMARK    1  A    between atoms: S_1  and  N_8
REMARK    2  A    between atoms: S_1  and  C_22
REMARK    3  A    between atoms: O_4  and  C_21
REMARK    4  A    between atoms: O_4  and  C_25
REMARK    5  A    between atoms: N_8  and  C_17
REMARK    6  A    between atoms: N_9  and  C_18
REMARK    7  A    between atoms: N_13  and  C_28
REMARK    8  A    between atoms: N_14  and  C_31
REMARK    9  A    between atoms: N_14  and  C_35
REMARK   10  A    between atoms: N_14  and  C_36
REMARK   11  A    between atoms: C_34  and  C_37
REMARK                            x       y       z     vdW  Elec       q    Type
REMARK                         _______ _______ _______ _____ _____    ______ ____
ROOT
ATOM      2  O   UNL     1      -3.744  -9.965  17.052  0.00  0.00    -0.370 OA
ATOM      3  O   UNL     1      -4.658 -12.986  17.123  0.00  0.00    -0.370 OA
ATOM     15  C   UNL     1      -4.923 -11.873  16.256  0.00  0.00    +0.170 C 
ATOM     16  C   UNL     1      -5.019 -10.629  17.117  0.00  0.00    +0.175 C 
ATOM     17  C   UNL     1      -3.735 -11.619  15.359  0.00  0.00    +0.133 C 
ATOM     18  C   UNL     1      -5.258 -11.148  18.522  0.00  0.00    +0.171 C 
ATOM     19  C   UNL     1      -2.863 -10.712  16.202  0.00  0.00    +0.183 C 
ATOM     20  C   UNL     1      -4.631 -12.537  18.485  0.00  0.00    +0.190 C 
ENDROOT
BRANCH  18   9
ATOM      9  N   UNL     1      -6.673 -11.116  18.899  0.00  0.00    -0.187 N 
ATOM     10  N   UNL     1      -7.166 -11.957  19.819  0.00  0.00    -0.041 NA
ATOM     11  N   UNL     1      -8.781 -10.626  19.050  0.00  0.00    -0.071 NA
ATOM     12  N   UNL     1      -8.455 -11.652  19.908  0.00  0.00    -0.020 NA
ATOM     21  C   UNL     1      -7.664 -10.309  18.437  0.00  0.00    +0.342 A 
BRANCH  21   4
ATOM      4  O   UNL     1      -7.505  -9.372  17.521  0.00  0.00    -0.423 OA
BRANCH   4  25
ATOM     25  C   UNL     1      -8.335  -9.261  16.414  0.00  0.00    +0.134 A 
ATOM     29  C   UNL     1      -9.392  -8.351  16.423  0.00  0.00    +0.069 A 
ATOM     30  C   UNL     1      -8.114 -10.062  15.293  0.00  0.00    +0.046 A 
ATOM     31  C   UNL     1     -10.227  -8.240  15.311  0.00  0.00    +0.033 A 
ATOM     32  C   UNL     1      -8.949  -9.951  14.181  0.00  0.00    +0.005 A 
ATOM     33  C   UNL     1     -10.006  -9.040  14.190  0.00  0.00    +0.023 A 
BRANCH  31  14
ATOM     14  N   UNL     1     -11.296  -7.320  15.321  0.00  0.00    -0.336 N 
ATOM     35  C   UNL     1     -12.575  -7.675  14.740  0.00  0.00    +0.129 C 
ATOM     36  C   UNL     1     -11.125  -6.003  15.901  0.00  0.00    +0.129 C 
ENDBRANCH  31  14
ENDBRANCH   4  25
ENDBRANCH  21   4
ENDBRANCH  18   9
BRANCH  17   8
ATOM      8  N   UNL     1      -4.168 -10.899  14.138  0.00  0.00    -0.182 NA
ATOM     38  H   UNL     1      -5.149 -10.595  14.086  0.00  0.00    +0.148 HD
BRANCH   8   1
ATOM      1  S   UNL     1      -3.203 -10.946  12.742  0.00  0.00    +0.059 S 
ATOM      5  O   UNL     1      -3.141 -12.307  12.244  0.00  0.00    -0.153 OA
ATOM      6  O   UNL     1      -1.983 -10.204  12.993  0.00  0.00    -0.153 OA
BRANCH   1  22
ATOM     22  C   UNL     1      -4.161  -9.992  11.604  0.00  0.00    +0.105 A 
ATOM     23  C   UNL     1      -3.608  -9.598  10.385  0.00  0.00    +0.030 A 
ATOM     24  C   UNL     1      -5.470  -9.633  11.923  0.00  0.00    +0.030 A 
ATOM     26  C   UNL     1      -4.364  -8.846   9.486  0.00  0.00    +0.025 A 
ATOM     27  C   UNL     1      -6.227  -8.881  11.024  0.00  0.00    +0.025 A 
ATOM     28  C   UNL     1      -5.673  -8.487   9.805  0.00  0.00    +0.033 A 
BRANCH  28  13
ATOM      7  O   UNL     1      -8.076  -9.247   8.158  0.00  0.00    -0.276 OA
ATOM     13  N   UNL     1      -6.429  -7.735   8.906  0.00  0.00    -0.286 N 
ATOM     34  C   UNL     1      -7.543  -8.142   8.161  0.00  0.00    +0.214 C 
ATOM     37  C   UNL     1      -8.079  -7.026   7.299  0.00  0.00    +0.109 C 
ATOM     39  H   UNL     1      -6.124  -6.772   8.782  0.00  0.00    +0.155 HD
ENDBRANCH  28  13
ENDBRANCH   1  22
ENDBRANCH   8   1
ENDBRANCH  17   8
TORSDOF 8
ENDMDL
MODEL 2
REMARK VINA RESULT:      -7.3      3.640      7.914
REMARK  Name = 11879578
REMARK  11 active torsions:
REMARK  status: ('A' for Active; 'I' for Inactive)
REMARK    1  A    between atoms: S_1  and  N_8
REMARK    2  A    between atoms: S_1  and  C_22
REMARK    3  A    between atoms: O_4  and  C_21
REMARK    4  A    between atoms: O_4  and  C_25
REMARK    5  A    between atoms: N_8  and  C_17
REMARK    6  A    between atoms: N_9  and  C_18
REMARK    7  A    between atoms: N_13  and  C_28
REMARK    8  A    between atoms: N_14  and  C_31
REMARK    9  A    between atoms: N_14  and  C_35
REMARK   10  A    between atoms: N_14  and  C_36
REMARK   11  A    between atoms: C_34  and  C_37
REMARK                            x       y       z     vdW  Elec       q    Type
REMARK                         _______ _______ _______ _____ _____    ______ ____
ROOT
ATOM      2  O   UNL     1      -9.790  -9.388  14.969  0.00  0.00    -0.370 OA
ATOM      3  O   UNL     1     -10.444  -7.372  17.308  0.00  0.00    -0.370 OA
ATOM     15  C   UNL     1     -10.657  -8.775  17.100  0.00  0.00    +0.170 C 
ATOM     16  C   UNL     1     -10.997  -8.979  15.636  0.00  0.00    +0.175 C 
ATOM     17  C   UNL     1      -9.363  -9.532  17.293  0.00  0.00    +0.133 C 
ATOM     18  C   UNL     1     -11.419  -7.607  15.143  0.00  0.00    +0.171 C 
ATOM     19  C   UNL     1      -8.721  -9.458  15.923  0.00  0.00    +0.183 C 
ATOM     20  C   UNL     1     -10.679  -6.663  16.084  0.00  0.00    +0.190 C 
ENDROOT
BRANCH  18   9
ATOM      9  N   UNL     1     -12.874  -7.442  15.117  0.00  0.00    -0.187 N 
ATOM     10  N   UNL     1     -13.694  -8.461  15.410  0.00  0.00    -0.041 NA
ATOM     11  N   UNL     1     -14.879  -6.638  14.920  0.00  0.00    -0.071 NA
ATOM     12  N   UNL     1     -14.918  -7.964  15.288  0.00  0.00    -0.020 NA
ATOM     21  C   UNL     1     -13.605  -6.336  14.821  0.00  0.00    +0.342 A 
BRANCH  21   4
ATOM      4  O   UNL     1     -13.096  -5.164  14.488  0.00  0.00    -0.423 OA
BRANCH   4  25
ATOM     25  C   UNL     1     -13.260  -4.610  13.226  0.00  0.00    +0.134 A 
ATOM     29  C   UNL     1     -12.344  -4.898  12.213  0.00  0.00    +0.069 A 
ATOM     30  C   UNL     1     -14.339  -3.764  12.970  0.00  0.00    +0.046 A 
ATOM     31  C   UNL     1     -12.509  -4.341  10.945  0.00  0.00    +0.033 A 
ATOM     32  C   UNL     1     -14.503  -3.207  11.702  0.00  0.00    +0.005 A 
ATOM     33  C   UNL     1     -13.588  -3.495  10.690  0.00  0.00    +0.023 A 
BRANCH  31  14
ATOM     14  N   UNL     1     -11.582  -4.631   9.922  0.00  0.00    -0.336 N 
ATOM     35  C   UNL     1     -11.302  -6.004   9.553  0.00  0.00    +0.129 C 
ATOM     36  C   UNL     1     -10.888  -3.560   9.235  0.00  0.00    +0.129 C 
ENDBRANCH  31  14
ENDBRANCH   4  25
ENDBRANCH  21   4
ENDBRANCH  18   9
BRANCH  17   8
ATOM      8  N   UNL     1      -9.651 -10.945  17.633  0.00  0.00    -0.182 NA
ATOM     38  H   UNL     1     -10.521 -11.356  17.272  0.00  0.00    +0.148 HD
BRANCH   8   1
ATOM      1  S   UNL     1      -8.794 -11.703  18.887  0.00  0.00    +0.059 S 
ATOM      5  O   UNL     1      -9.190 -13.096  18.969  0.00  0.00    -0.153 OA
ATOM      6  O   UNL     1      -8.846 -10.858  20.065  0.00  0.00    -0.153 OA
BRANCH   1  22
ATOM     22  C   UNL     1      -7.134 -11.643  18.284  0.00  0.00    +0.105 A 
ATOM     23  C   UNL     1      -6.741 -12.478  17.238  0.00  0.00    +0.030 A 
ATOM     24  C   UNL     1      -6.217 -10.760  18.853  0.00  0.00    +0.030 A 
ATOM     26  C   UNL     1      -5.431 -12.431  16.762  0.00  0.00    +0.025 A 
ATOM     27  C   UNL     1      -4.906 -10.712  18.377  0.00  0.00    +0.025 A 
ATOM     28  C   UNL     1      -4.513 -11.548  17.331  0.00  0.00    +0.033 A 
BRANCH  28  13
ATOM      7  O   UNL     1      -3.404 -10.409  14.774  0.00  0.00    -0.276 OA
ATOM     13  N   UNL     1      -3.203 -11.500  16.854  0.00  0.00    -0.286 N 
ATOM     34  C   UNL     1      -2.741 -10.956  15.649  0.00  0.00    +0.214 C 
ATOM     37  C   UNL     1      -1.247 -11.105  15.503  0.00  0.00    +0.109 C 
ATOM     39  H   UNL     1      -2.504 -11.916  17.465  0.00  0.00    +0.155 HD
ENDBRANCH  28  13
ENDBRANCH   1  22
ENDBRANCH   8   1
ENDBRANCH  17   8
TORSDOF 8
ENDMDL
MODEL 3
REMARK VINA RESULT:      -7.2      2.294      3.096
REMARK  Name = 11879578
REMARK  11 active torsions:
REMARK  status: ('A' for Active; 'I' for Inactive)
REMARK    1  A    between atoms: S_1  and  N_8
REMARK    2  A    between atoms: S_1  and  C_22
REMARK    3  A    between atoms: O_4  and  C_21
REMARK    4  A    between atoms: O_4  and  C_25
REMARK    5  A    between atoms: N_8  and  C_17
REMARK    6  A    between atoms: N_9  and  C_18
REMARK    7  A    between atoms: N_13  and  C_28
REMARK    8  A    between atoms: N_14  and  C_31
REMARK    9  A    between atoms: N_14  and  C_35
REMARK   10  A    between atoms: N_14  and  C_36
REMARK   11  A    between atoms: C_34  and  C_37
REMARK                            x       y       z     vdW  Elec       q    Type
REMARK                         _______ _______ _______ _____ _____    ______ ____
ROOT
ATOM      2  O   UNL     1      -6.644 -11.944  14.737  0.00  0.00    -0.370 OA
ATOM      3  O   UNL     1      -5.564  -9.287  16.056  0.00  0.00    -0.370 OA
ATOM     15  C   UNL     1      -4.997 -10.575  15.775  0.00  0.00    +0.170 C 
ATOM     16  C   UNL     1      -6.073 -11.617  16.016  0.00  0.00    +0.175 C 
ATOM     17  C   UNL     1      -4.681 -10.695  14.303  0.00  0.00    +0.133 C 
ATOM     18  C   UNL     1      -7.105 -10.913  16.877  0.00  0.00    +0.171 C 
ATOM     19  C   UNL     1      -5.991 -11.179  13.715  0.00  0.00    +0.183 C 
ATOM     20  C   UNL     1      -6.915  -9.446  16.510  0.00  0.00    +0.190 C 
ENDROOT
BRANCH  18   9
ATOM      9  N   UNL     1      -6.953 -11.222  18.301  0.00  0.00    -0.187 N 
ATOM     10  N   UNL     1      -5.812 -10.955  18.951  0.00  0.00    -0.041 NA
ATOM     11  N   UNL     1      -7.292 -11.877  20.340  0.00  0.00    -0.071 NA
ATOM     12  N   UNL     1      -6.025 -11.357  20.198  0.00  0.00    -0.020 NA
ATOM     21  C   UNL     1      -7.849 -11.783  19.155  0.00  0.00    +0.342 A 
BRANCH  21   4
ATOM      4  O   UNL     1      -9.069 -12.163  18.824  0.00  0.00    -0.423 OA
BRANCH   4  25
ATOM     25  C   UNL     1     -10.178 -11.344  18.990  0.00  0.00    +0.134 A 
ATOM     29  C   UNL     1     -10.461 -10.355  18.047  0.00  0.00    +0.069 A 
ATOM     30  C   UNL     1     -11.007 -11.509  20.098  0.00  0.00    +0.046 A 
ATOM     31  C   UNL     1     -11.574  -9.532  18.214  0.00  0.00    +0.033 A 
ATOM     32  C   UNL     1     -12.121 -10.685  20.265  0.00  0.00    +0.005 A 
ATOM     33  C   UNL     1     -12.404  -9.697  19.322  0.00  0.00    +0.023 A 
BRANCH  31  14
ATOM     14  N   UNL     1     -11.860  -8.531  17.261  0.00  0.00    -0.336 N 
ATOM     35  C   UNL     1     -10.870  -7.524  16.937  0.00  0.00    +0.129 C 
ATOM     36  C   UNL     1     -13.151  -8.490  16.605  0.00  0.00    +0.129 C 
ENDBRANCH  31  14
ENDBRANCH   4  25
ENDBRANCH  21   4
ENDBRANCH  18   9
BRANCH  17   8
ATOM      8  N   UNL     1      -3.631 -11.720  14.093  0.00  0.00    -0.182 NA
ATOM     38  H   UNL     1      -3.618 -12.526  14.730  0.00  0.00    +0.148 HD
BRANCH   8   1
ATOM      1  S   UNL     1      -2.286 -11.363  13.121  0.00  0.00    +0.059 S 
ATOM      5  O   UNL     1      -1.460 -12.548  12.986  0.00  0.00    -0.153 OA
ATOM      6  O   UNL     1      -1.703 -10.114  13.571  0.00  0.00    -0.153 OA
BRANCH   1  22
ATOM     22  C   UNL     1      -3.041 -11.044  11.555  0.00  0.00    +0.105 A 
ATOM     23  C   UNL     1      -3.040  -9.752  11.031  0.00  0.00    +0.030 A 
ATOM     24  C   UNL     1      -3.635 -12.085  10.842  0.00  0.00    +0.030 A 
ATOM     26  C   UNL     1      -3.635  -9.500   9.794  0.00  0.00    +0.025 A 
ATOM     27  C   UNL     1      -4.230 -11.834   9.606  0.00  0.00    +0.025 A 
ATOM     28  C   UNL     1      -4.231 -10.541   9.082  0.00  0.00    +0.033 A 
BRANCH  28  13
ATOM      7  O   UNL     1      -6.916  -9.358   8.408  0.00  0.00    -0.276 OA
ATOM     13  N   UNL     1      -4.825 -10.289   7.845  0.00  0.00    -0.286 N 
ATOM     34  C   UNL     1      -6.086  -9.736   7.588  0.00  0.00    +0.214 C 
ATOM     37  C   UNL     1      -6.360  -9.629   6.109  0.00  0.00    +0.109 C 
ATOM     39  H   UNL     1      -4.265 -10.546   7.035  0.00  0.00    +0.155 HD
ENDBRANCH  28  13
ENDBRANCH   1  22
ENDBRANCH   8   1
ENDBRANCH  17   8
TORSDOF 8
ENDMDL
MODEL 4
REMARK VINA RESULT:      -7.1      2.691      7.189
REMARK  Name = 11879578
REMARK  11 active torsions:
REMARK  status: ('A' for Active; 'I' for Inactive)
REMARK    1  A    between atoms: S_1  and  N_8
REMARK    2  A    between atoms: S_1  and  C_22
REMARK    3  A    between atoms: O_4  and  C_21
REMARK    4  A    between atoms: O_4  and  C_25
REMARK    5  A    between atoms: N_8  and  C_17
REMARK    6  A    between atoms: N_9  and  C_18
REMARK    7  A    between atoms: N_13  and  C_28
REMARK    8  A    between atoms: N_14  and  C_31
REMARK    9  A    between atoms: N_14  and  C_35
REMARK   10  A    between atoms: N_14  and  C_36
REMARK   11  A    between atoms: C_34  and  C_37
REMARK                            x       y       z     vdW  Elec       q    Type
REMARK                         _______ _______ _______ _____ _____    ______ ____
ROOT
ATOM      2  O   UNL     1      -6.987 -11.466  15.445  0.00  0.00    -0.370 OA
ATOM      3  O   UNL     1      -5.368 -13.503  17.232  0.00  0.00    -0.370 OA
ATOM     15  C   UNL     1      -5.908 -12.190  17.439  0.00  0.00    +0.170 C 
ATOM     16  C   UNL     1      -5.734 -11.410  16.150  0.00  0.00    +0.175 C 
ATOM     17  C   UNL     1      -7.404 -12.266  17.633  0.00  0.00    +0.133 C 
ATOM     18  C   UNL     1      -4.674 -12.172  15.377  0.00  0.00    +0.171 C 
ATOM     19  C   UNL     1      -7.931 -12.224  16.214  0.00  0.00    +0.183 C 
ATOM     20  C   UNL     1      -4.815 -13.593  15.911  0.00  0.00    +0.190 C 
ENDROOT
BRANCH  18   9
ATOM      9  N   UNL     1      -3.341 -11.584  15.524  0.00  0.00    -0.187 N 
ATOM     10  N   UNL     1      -2.918 -11.106  16.702  0.00  0.00    -0.041 NA
ATOM     11  N   UNL     1      -1.334 -10.848  15.156  0.00  0.00    -0.071 NA
ATOM     12  N   UNL     1      -1.690 -10.658  16.472  0.00  0.00    -0.020 NA
ATOM     21  C   UNL     1      -2.368 -11.423  14.588  0.00  0.00    +0.342 A 
BRANCH  21   4
ATOM      4  O   UNL     1      -2.473 -11.789  13.324  0.00  0.00    -0.423 OA
BRANCH   4  25
ATOM     25  C   UNL     1      -2.789 -10.894  12.311  0.00  0.00    +0.134 A 
ATOM     29  C   UNL     1      -4.113 -10.749  11.896  0.00  0.00    +0.069 A 
ATOM     30  C   UNL     1      -1.783 -10.140  11.706  0.00  0.00    +0.046 A 
ATOM     31  C   UNL     1      -4.431  -9.851  10.878  0.00  0.00    +0.033 A 
ATOM     32  C   UNL     1      -2.101  -9.241  10.688  0.00  0.00    +0.005 A 
ATOM     33  C   UNL     1      -3.425  -9.097  10.274  0.00  0.00    +0.023 A 
BRANCH  31  14
ATOM     14  N   UNL     1      -5.770  -9.706  10.458  0.00  0.00    -0.336 N 
ATOM     35  C   UNL     1      -6.152 -10.029   9.099  0.00  0.00    +0.129 C 
ATOM     36  C   UNL     1      -6.779  -9.219  11.378  0.00  0.00    +0.129 C 
ENDBRANCH  31  14
ENDBRANCH   4  25
ENDBRANCH  21   4
ENDBRANCH  18   9
BRANCH  17   8
ATOM      8  N   UNL     1      -7.879 -11.075  18.377  0.00  0.00    -0.182 NA
ATOM     38  H   UNL     1      -7.169 -10.433  18.751  0.00  0.00    +0.148 HD
BRANCH   8   1
ATOM      1  S   UNL     1      -9.482 -11.009  18.929  0.00  0.00    +0.059 S 
ATOM      5  O   UNL     1      -9.496 -10.623  20.327  0.00  0.00    -0.153 OA
ATOM      6  O   UNL     1     -10.175 -12.207  18.495  0.00  0.00    -0.153 OA
BRANCH   1  22
ATOM     22  C   UNL     1     -10.138  -9.665  17.987  0.00  0.00    +0.105 A 
ATOM     23  C   UNL     1      -9.277  -8.814  17.293  0.00  0.00    +0.030 A 
ATOM     24  C   UNL     1     -11.516  -9.456  17.936  0.00  0.00    +0.030 A 
ATOM     26  C   UNL     1      -9.795  -7.754  16.548  0.00  0.00    +0.025 A 
ATOM     27  C   UNL     1     -12.034  -8.396  17.191  0.00  0.00    +0.025 A 
ATOM     28  C   UNL     1     -11.173  -7.544  16.498  0.00  0.00    +0.033 A 
BRANCH  28  13
ATOM      7  O   UNL     1     -11.984  -7.403  13.602  0.00  0.00    -0.276 OA
ATOM     13  N   UNL     1     -11.691  -6.485  15.753  0.00  0.00    -0.286 N 
ATOM     34  C   UNL     1     -12.051  -6.474  14.399  0.00  0.00    +0.214 C 
ATOM     37  C   UNL     1     -12.572  -5.125  13.969  0.00  0.00    +0.109 C 
ATOM     39  H   UNL     1     -11.816  -5.614  16.266  0.00  0.00    +0.155 HD
ENDBRANCH  28  13
ENDBRANCH   1  22
ENDBRANCH   8   1
ENDBRANCH  17   8
TORSDOF 8
ENDMDL
MODEL 5
REMARK VINA RESULT:      -7.1      4.153      7.776
REMARK  Name = 11879578
REMARK  11 active torsions:
REMARK  status: ('A' for Active; 'I' for Inactive)
REMARK    1  A    between atoms: S_1  and  N_8
REMARK    2  A    between atoms: S_1  and  C_22
REMARK    3  A    between atoms: O_4  and  C_21
REMARK    4  A    between atoms: O_4  and  C_25
REMARK    5  A    between atoms: N_8  and  C_17
REMARK    6  A    between atoms: N_9  and  C_18
REMARK    7  A    between atoms: N_13  and  C_28
REMARK    8  A    between atoms: N_14  and  C_31
REMARK    9  A    between atoms: N_14  and  C_35
REMARK   10  A    between atoms: N_14  and  C_36
REMARK   11  A    between atoms: C_34  and  C_37
REMARK                            x       y       z     vdW  Elec       q    Type
REMARK                         _______ _______ _______ _____ _____    ______ ____
ROOT
ATOM      2  O   UNL     1     -13.322  -7.793  15.118  0.00  0.00    -0.370 OA
ATOM      3  O   UNL     1     -10.893  -5.858  15.686  0.00  0.00    -0.370 OA
ATOM     15  C   UNL     1     -11.617  -6.247  14.510  0.00  0.00    +0.170 C 
ATOM     16  C   UNL     1     -11.965  -7.717  14.646  0.00  0.00    +0.175 C 
ATOM     17  C   UNL     1     -12.955  -5.547  14.468  0.00  0.00    +0.133 C 
ATOM     18  C   UNL     1     -11.018  -8.240  15.710  0.00  0.00    +0.171 C 
ATOM     19  C   UNL     1     -13.843  -6.467  15.279  0.00  0.00    +0.183 C 
ATOM     20  C   UNL     1     -10.712  -6.997  16.538  0.00  0.00    +0.190 C 
ENDROOT
BRANCH  18   9
ATOM      9  N   UNL     1      -9.847  -8.910  15.140  0.00  0.00    -0.187 N 
ATOM     10  N   UNL     1      -9.827  -9.302  13.859  0.00  0.00    -0.041 NA
ATOM     11  N   UNL     1      -7.903  -9.827  14.853  0.00  0.00    -0.071 NA
ATOM     12  N   UNL     1      -8.635  -9.862  13.689  0.00  0.00    -0.020 NA
ATOM     21  C   UNL     1      -8.671  -9.234  15.738  0.00  0.00    +0.342 A 
BRANCH  21   4
ATOM      4  O   UNL     1      -8.375  -8.986  17.000  0.00  0.00    -0.423 OA
BRANCH   4  25
ATOM     25  C   UNL     1      -7.955  -9.976  17.878  0.00  0.00    +0.134 A 
ATOM     29  C   UNL     1      -8.895 -10.788  18.513  0.00  0.00    +0.069 A 
ATOM     30  C   UNL     1      -6.595 -10.159  18.126  0.00  0.00    +0.046 A 
ATOM     31  C   UNL     1      -8.474 -11.783  19.395  0.00  0.00    +0.033 A 
ATOM     32  C   UNL     1      -6.174 -11.154  19.008  0.00  0.00    +0.005 A 
ATOM     33  C   UNL     1      -7.114 -11.966  19.643  0.00  0.00    +0.023 A 
BRANCH  31  14
ATOM     14  N   UNL     1      -9.425 -12.603  20.039  0.00  0.00    -0.336 N 
ATOM     35  C   UNL     1      -9.078 -13.952  20.439  0.00  0.00    +0.129 C 
ATOM     36  C   UNL     1     -10.763 -12.112  20.296  0.00  0.00    +0.129 C 
ENDBRANCH  31  14
ENDBRANCH   4  25
ENDBRANCH  21   4
ENDBRANCH  18   9
BRANCH  17   8
ATOM      8  N   UNL     1     -13.448  -5.483  13.071  0.00  0.00    -0.182 NA
ATOM     38  H   UNL     1     -13.719  -6.366  12.620  0.00  0.00    +0.148 HD
BRANCH   8   1
ATOM      1  S   UNL     1     -13.184  -4.085  12.145  0.00  0.00    +0.059 S 
ATOM      5  O   UNL     1     -12.382  -3.146  12.907  0.00  0.00    -0.153 OA
ATOM      6  O   UNL     1     -14.445  -3.665  11.564  0.00  0.00    -0.153 OA
BRANCH   1  22
ATOM     22  C   UNL     1     -12.189  -4.705  10.823  0.00  0.00    +0.105 A 
ATOM     23  C   UNL     1     -12.124  -6.078  10.583  0.00  0.00    +0.030 A 
ATOM     24  C   UNL     1     -11.469  -3.822  10.019  0.00  0.00    +0.030 A 
ATOM     26  C   UNL     1     -11.339  -6.567   9.539  0.00  0.00    +0.025 A 
ATOM     27  C   UNL     1     -10.684  -4.311   8.975  0.00  0.00    +0.025 A 
ATOM     28  C   UNL     1     -10.618  -5.684   8.735  0.00  0.00    +0.033 A 
BRANCH  28  13
ATOM      7  O   UNL     1      -8.141  -7.394   8.786  0.00  0.00    -0.276 OA
ATOM     13  N   UNL     1      -9.834  -6.173   7.690  0.00  0.00    -0.286 N 
ATOM     34  C   UNL     1      -8.683  -6.968   7.772  0.00  0.00    +0.214 C 
ATOM     37  C   UNL     1      -8.123  -7.285   6.407  0.00  0.00    +0.109 C 
ATOM     39  H   UNL     1     -10.143  -5.912   6.757  0.00  0.00    +0.155 HD
ENDBRANCH  28  13
ENDBRANCH   1  22
ENDBRANCH   8   1
ENDBRANCH  17   8
TORSDOF 8
ENDMDL
MODEL 6
REMARK VINA RESULT:      -7.0      2.519      3.101
REMARK  Name = 11879578
REMARK  11 active torsions:
REMARK  status: ('A' for Active; 'I' for Inactive)
REMARK    1  A    between atoms: S_1  and  N_8
REMARK    2  A    between atoms: S_1  and  C_22
REMARK    3  A    between atoms: O_4  and  C_21
REMARK    4  A    between atoms: O_4  and  C_25
REMARK    5  A    between atoms: N_8  and  C_17
REMARK    6  A    between atoms: N_9  and  C_18
REMARK    7  A    between atoms: N_13  and  C_28
REMARK    8  A    between atoms: N_14  and  C_31
REMARK    9  A    between atoms: N_14  and  C_35
REMARK   10  A    between atoms: N_14  and  C_36
REMARK   11  A    between atoms: C_34  and  C_37
REMARK                            x       y       z     vdW  Elec       q    Type
REMARK                         _______ _______ _______ _____ _____    ______ ____
ROOT
ATOM      2  O   UNL     1      -5.829 -10.135  16.600  0.00  0.00    -0.370 OA
ATOM      3  O   UNL     1      -4.641 -11.583  19.142  0.00  0.00    -0.370 OA
ATOM     15  C   UNL     1      -4.747 -11.917  17.750  0.00  0.00    +0.170 C 
ATOM     16  C   UNL     1      -6.080 -11.394  17.249  0.00  0.00    +0.175 C 
ATOM     17  C   UNL     1      -3.719 -11.150  16.952  0.00  0.00    +0.133 C 
ATOM     18  C   UNL     1      -6.903 -11.172  18.504  0.00  0.00    +0.171 C 
ATOM     19  C   UNL     1      -4.426  -9.842  16.659  0.00  0.00    +0.183 C 
ATOM     20  C   UNL     1      -5.842 -10.929  19.572  0.00  0.00    +0.190 C 
ENDROOT
BRANCH  18   9
ATOM      9  N   UNL     1      -7.818 -12.282  18.780  0.00  0.00    -0.187 N 
ATOM     10  N   UNL     1      -7.582 -13.511  18.301  0.00  0.00    -0.041 NA
ATOM     11  N   UNL     1      -9.468 -13.498  19.488  0.00  0.00    -0.071 NA
ATOM     12  N   UNL     1      -8.594 -14.251  18.737  0.00  0.00    -0.020 NA
ATOM     21  C   UNL     1      -8.969 -12.284  19.503  0.00  0.00    +0.342 A 
BRANCH  21   4
ATOM      4  O   UNL     1      -9.480 -11.227  20.106  0.00  0.00    -0.423 OA
BRANCH   4  25
ATOM     25  C   UNL     1     -10.619 -10.582  19.645  0.00  0.00    +0.134 A 
ATOM     29  C   UNL     1     -10.547  -9.757  18.523  0.00  0.00    +0.069 A 
ATOM     30  C   UNL     1     -11.836 -10.758  20.304  0.00  0.00    +0.046 A 
ATOM     31  C   UNL     1     -11.692  -9.109  18.059  0.00  0.00    +0.033 A 
ATOM     32  C   UNL     1     -12.980 -10.110  19.840  0.00  0.00    +0.005 A 
ATOM     33  C   UNL     1     -12.908  -9.284  18.718  0.00  0.00    +0.023 A 
BRANCH  31  14
ATOM     14  N   UNL     1     -11.618  -8.273  16.925  0.00  0.00    -0.336 N 
ATOM     35  C   UNL     1     -10.466  -7.419  16.716  0.00  0.00    +0.129 C 
ATOM     36  C   UNL     1     -12.700  -8.247  15.961  0.00  0.00    +0.129 C 
ENDBRANCH  31  14
ENDBRANCH   4  25
ENDBRANCH  21   4
ENDBRANCH  18   9
BRANCH  17   8
ATOM      8  N   UNL     1      -3.435 -11.858  15.681  0.00  0.00    -0.182 NA
ATOM     38  H   UNL     1      -3.896 -12.763  15.526  0.00  0.00    +0.148 HD
BRANCH   8   1
ATOM      1  S   UNL     1      -2.105 -11.392  14.734  0.00  0.00    +0.059 S 
ATOM      5  O   UNL     1      -1.282 -12.553  14.454  0.00  0.00    -0.153 OA
ATOM      6  O   UNL     1      -1.515 -10.201  15.312  0.00  0.00    -0.153 OA
BRANCH   1  22
ATOM     22  C   UNL     1      -2.885 -10.901  13.226  0.00  0.00    +0.105 A 
ATOM     23  C   UNL     1      -2.112 -10.458  12.153  0.00  0.00    +0.030 A 
ATOM     24  C   UNL     1      -4.274 -10.957  13.108  0.00  0.00    +0.030 A 
ATOM     26  C   UNL     1      -2.727 -10.070  10.962  0.00  0.00    +0.025 A 
ATOM     27  C   UNL     1      -4.889 -10.569  11.918  0.00  0.00    +0.025 A 
ATOM     28  C   UNL     1      -4.116 -10.125  10.845  0.00  0.00    +0.033 A 
BRANCH  28  13
ATOM      7  O   UNL     1      -4.364 -11.568   8.214  0.00  0.00    -0.276 OA
ATOM     13  N   UNL     1      -4.731  -9.739   9.654  0.00  0.00    -0.286 N 
ATOM     34  C   UNL     1      -4.815 -10.453   8.452  0.00  0.00    +0.214 C 
ATOM     37  C   UNL     1      -5.567  -9.684   7.395  0.00  0.00    +0.109 C 
ATOM     39  H   UNL     1      -5.169  -8.820   9.671  0.00  0.00    +0.155 HD
ENDBRANCH  28  13
ENDBRANCH   1  22
ENDBRANCH   8   1
ENDBRANCH  17   8
TORSDOF 8
ENDMDL
MODEL 7
REMARK VINA RESULT:      -6.9      2.715      3.731
REMARK  Name = 11879578
REMARK  11 active torsions:
REMARK  status: ('A' for Active; 'I' for Inactive)
REMARK    1  A    between atoms: S_1  and  N_8
REMARK    2  A    between atoms: S_1  and  C_22
REMARK    3  A    between atoms: O_4  and  C_21
REMARK    4  A    between atoms: O_4  and  C_25
REMARK    5  A    between atoms: N_8  and  C_17
REMARK    6  A    between atoms: N_9  and  C_18
REMARK    7  A    between atoms: N_13  and  C_28
REMARK    8  A    between atoms: N_14  and  C_31
REMARK    9  A    between atoms: N_14  and  C_35
REMARK   10  A    between atoms: N_14  and  C_36
REMARK   11  A    between atoms: C_34  and  C_37
REMARK                            x       y       z     vdW  Elec       q    Type
REMARK                         _______ _______ _______ _____ _____    ______ ____
ROOT
ATOM      2  O   UNL     1      -6.621 -12.203  14.985  0.00  0.00    -0.370 OA
ATOM      3  O   UNL     1      -5.497  -9.388  15.871  0.00  0.00    -0.370 OA
ATOM     15  C   UNL     1      -4.901 -10.644  15.515  0.00  0.00    +0.170 C 
ATOM     16  C   UNL     1      -5.784 -11.748  16.064  0.00  0.00    +0.175 C 
ATOM     17  C   UNL     1      -4.947 -10.837  14.017  0.00  0.00    +0.133 C 
ATOM     18  C   UNL     1      -6.633 -11.070  17.124  0.00  0.00    +0.171 C 
ATOM     19  C   UNL     1      -6.311 -11.458  13.799  0.00  0.00    +0.183 C 
ATOM     20  C   UNL     1      -6.674  -9.620  16.656  0.00  0.00    +0.190 C 
ENDROOT
BRANCH  18   9
ATOM      9  N   UNL     1      -6.108 -11.271  18.477  0.00  0.00    -0.187 N 
ATOM     10  N   UNL     1      -4.874 -11.751  18.678  0.00  0.00    -0.041 NA
ATOM     11  N   UNL     1      -5.874 -11.358  20.631  0.00  0.00    -0.071 NA
ATOM     12  N   UNL     1      -4.735 -11.802  19.997  0.00  0.00    -0.020 NA
ATOM     21  C   UNL     1      -6.710 -11.034  19.672  0.00  0.00    +0.342 A 
BRANCH  21   4
ATOM      4  O   UNL     1      -7.933 -10.560  19.818  0.00  0.00    -0.423 OA
BRANCH   4  25
ATOM     25  C   UNL     1      -9.050 -11.383  19.886  0.00  0.00    +0.134 A 
ATOM     29  C   UNL     1     -10.309 -10.830  20.116  0.00  0.00    +0.069 A 
ATOM     30  C   UNL     1      -8.912 -12.761  19.727  0.00  0.00    +0.046 A 
ATOM     31  C   UNL     1     -11.431 -11.656  20.185  0.00  0.00    +0.033 A 
ATOM     32  C   UNL     1     -10.033 -13.587  19.796  0.00  0.00    +0.005 A 
ATOM     33  C   UNL     1     -11.293 -13.034  20.026  0.00  0.00    +0.023 A 
BRANCH  31  14
ATOM     14  N   UNL     1     -12.705 -11.097  20.419  0.00  0.00    -0.336 N 
ATOM     35  C   UNL     1     -13.178  -9.987  19.616  0.00  0.00    +0.129 C 
ATOM     36  C   UNL     1     -13.552 -11.617  21.473  0.00  0.00    +0.129 C 
ENDBRANCH  31  14
ENDBRANCH   4  25
ENDBRANCH  21   4
ENDBRANCH  18   9
BRANCH  17   8
ATOM      8  N   UNL     1      -3.892 -11.789  13.597  0.00  0.00    -0.182 NA
ATOM     38  H   UNL     1      -3.865 -12.706  14.061  0.00  0.00    +0.148 HD
BRANCH   8   1
ATOM      1  S   UNL     1      -2.562 -11.234  12.701  0.00  0.00    +0.059 S 
ATOM      5  O   UNL     1      -1.658 -12.339  12.443  0.00  0.00    -0.153 OA
ATOM      6  O   UNL     1      -2.067 -10.013  13.308  0.00  0.00    -0.153 OA
BRANCH   1  22
ATOM     22  C   UNL     1      -3.316 -10.778  11.169  0.00  0.00    +0.105 A 
ATOM     23  C   UNL     1      -3.251  -9.458  10.725  0.00  0.00    +0.030 A 
ATOM     24  C   UNL     1      -3.976 -11.740  10.404  0.00  0.00    +0.030 A 
ATOM     26  C   UNL     1      -3.846  -9.099   9.515  0.00  0.00    +0.025 A 
ATOM     27  C   UNL     1      -4.572 -11.380   9.195  0.00  0.00    +0.025 A 
ATOM     28  C   UNL     1      -4.507 -10.060   8.750  0.00  0.00    +0.033 A 
BRANCH  28  13
ATOM      7  O   UNL     1      -7.407  -9.682   8.034  0.00  0.00    -0.276 OA
ATOM     13  N   UNL     1      -5.102  -9.701   7.541  0.00  0.00    -0.286 N 
ATOM     34  C   UNL     1      -6.465  -9.540   7.261  0.00  0.00    +0.214 C 
ATOM     37  C   UNL     1      -6.699  -9.145   5.824  0.00  0.00    +0.109 C 
ATOM     39  H   UNL     1      -4.456  -9.540   6.771  0.00  0.00    +0.155 HD
ENDBRANCH  28  13
ENDBRANCH   1  22
ENDBRANCH   8   1
ENDBRANCH  17   8
TORSDOF 8
ENDMDL
MODEL 8
REMARK VINA RESULT:      -6.9     25.137     27.792
REMARK  Name = 11879578
REMARK  11 active torsions:
REMARK  status: ('A' for Active; 'I' for Inactive)
REMARK    1  A    between atoms: S_1  and  N_8
REMARK    2  A    between atoms: S_1  and  C_22
REMARK    3  A    between atoms: O_4  and  C_21
REMARK    4  A    between atoms: O_4  and  C_25
REMARK    5  A    between atoms: N_8  and  C_17
REMARK    6  A    between atoms: N_9  and  C_18
REMARK    7  A    between atoms: N_13  and  C_28
REMARK    8  A    between atoms: N_14  and  C_31
REMARK    9  A    between atoms: N_14  and  C_35
REMARK   10  A    between atoms: N_14  and  C_36
REMARK   11  A    between atoms: C_34  and  C_37
REMARK                            x       y       z     vdW  Elec       q    Type
REMARK                         _______ _______ _______ _____ _____    ______ ____
ROOT
ATOM      2  O   UNL     1       8.735   7.084  -3.705  0.00  0.00    -0.370 OA
ATOM      3  O   UNL     1       8.241   5.023  -6.045  0.00  0.00    -0.370 OA
ATOM     15  C   UNL     1       7.498   5.428  -4.886  0.00  0.00    +0.170 C 
ATOM     16  C   UNL     1       8.488   5.668  -3.762  0.00  0.00    +0.175 C 
ATOM     17  C   UNL     1       6.863   6.778  -5.121  0.00  0.00    +0.133 C 
ATOM     18  C   UNL     1       9.748   4.942  -4.197  0.00  0.00    +0.171 C 
ATOM     19  C   UNL     1       7.959   7.742  -4.716  0.00  0.00    +0.183 C 
ATOM     20  C   UNL     1       9.635   4.938  -5.717  0.00  0.00    +0.190 C 
ENDROOT
BRANCH  18   9
ATOM      9  N   UNL     1       9.875   3.619  -3.581  0.00  0.00    -0.187 N 
ATOM     10  N   UNL     1       9.064   2.611  -3.928  0.00  0.00    -0.041 NA
ATOM     11  N   UNL     1      10.507   1.934  -2.370  0.00  0.00    -0.071 NA
ATOM     12  N   UNL     1       9.455   1.583  -3.185  0.00  0.00    -0.020 NA
ATOM     21  C   UNL     1      10.751   3.197  -2.631  0.00  0.00    +0.342 A 
BRANCH  21   4
ATOM      4  O   UNL     1      11.681   3.953  -2.077  0.00  0.00    -0.423 OA
BRANCH   4  25
ATOM     25  C   UNL     1      11.942   3.937  -0.714  0.00  0.00    +0.134 A 
ATOM     29  C   UNL     1      11.121   4.648   0.161  0.00  0.00    +0.069 A 
ATOM     30  C   UNL     1      13.026   3.211  -0.219  0.00  0.00    +0.046 A 
ATOM     31  C   UNL     1      11.383   4.632   1.531  0.00  0.00    +0.033 A 
ATOM     32  C   UNL     1      13.288   3.195   1.151  0.00  0.00    +0.005 A 
ATOM     33  C   UNL     1      12.467   3.907   2.026  0.00  0.00    +0.023 A 
BRANCH  31  14
ATOM     14  N   UNL     1      10.554   5.353   2.416  0.00  0.00    -0.336 N 
ATOM     35  C   UNL     1       9.867   6.547   1.969  0.00  0.00    +0.129 C 
ATOM     36  C   UNL     1      10.389   4.915   3.787  0.00  0.00    +0.129 C 
ENDBRANCH  31  14
ENDBRANCH   4  25
ENDBRANCH  21   4
ENDBRANCH  18   9
BRANCH  17   8
ATOM      8  N   UNL     1       5.693   6.949  -4.227  0.00  0.00    -0.182 NA
ATOM     38  H   UNL     1       5.676   6.405  -3.355  0.00  0.00    +0.148 HD
BRANCH   8   1
ATOM      1  S   UNL     1       4.280   7.683  -4.816  0.00  0.00    +0.059 S 
ATOM      5  O   UNL     1       4.544   8.259  -6.121  0.00  0.00    -0.153 OA
ATOM      6  O   UNL     1       3.703   8.495  -3.762  0.00  0.00    -0.153 OA
BRANCH   1  22
ATOM     22  C   UNL     1       3.212   6.293  -5.039  0.00  0.00    +0.105 A 
ATOM     23  C   UNL     1       3.728   4.999  -4.973  0.00  0.00    +0.030 A 
ATOM     24  C   UNL     1       1.852   6.490  -5.280  0.00  0.00    +0.030 A 
ATOM     26  C   UNL     1       2.885   3.902  -5.149  0.00  0.00    +0.025 A 
ATOM     27  C   UNL     1       1.009   5.393  -5.455  0.00  0.00    +0.025 A 
ATOM     28  C   UNL     1       1.525   4.098  -5.390  0.00  0.00    +0.033 A 
BRANCH  28  13
ATOM      7  O   UNL     1       1.292   2.157  -7.680  0.00  0.00    -0.276 OA
ATOM     13  N   UNL     1       0.682   3.002  -5.565  0.00  0.00    -0.286 N 
ATOM     34  C   UNL     1       0.614   2.128  -6.659  0.00  0.00    +0.214 C 
ATOM     37  C   UNL     1      -0.438   1.064  -6.462  0.00  0.00    +0.109 C 
ATOM     39  H   UNL     1       0.037   2.823  -4.798  0.00  0.00    +0.155 HD
ENDBRANCH  28  13
ENDBRANCH   1  22
ENDBRANCH   8   1
ENDBRANCH  17   8
TORSDOF 8
ENDMDL
MODEL 9
REMARK VINA RESULT:      -6.8     23.140     27.781
REMARK  Name = 11879578
REMARK  11 active torsions:
REMARK  status: ('A' for Active; 'I' for Inactive)
REMARK    1  A    between atoms: S_1  and  N_8
REMARK    2  A    between atoms: S_1  and  C_22
REMARK    3  A    between atoms: O_4  and  C_21
REMARK    4  A    between atoms: O_4  and  C_25
REMARK    5  A    between atoms: N_8  and  C_17
REMARK    6  A    between atoms: N_9  and  C_18
REMARK    7  A    between atoms: N_13  and  C_28
REMARK    8  A    between atoms: N_14  and  C_31
REMARK    9  A    between atoms: N_14  and  C_35
REMARK   10  A    between atoms: N_14  and  C_36
REMARK   11  A    between atoms: C_34  and  C_37
REMARK                            x       y       z     vdW  Elec       q    Type
REMARK                         _______ _______ _______ _____ _____    ______ ____
ROOT
ATOM      2  O   UNL     1      10.508   3.922   1.257  0.00  0.00    -0.370 OA
ATOM      3  O   UNL     1      13.497   4.706   1.907  0.00  0.00    -0.370 OA
ATOM     15  C   UNL     1      12.340   5.429   1.460  0.00  0.00    +0.170 C 
ATOM     16  C   UNL     1      11.575   4.531   0.507  0.00  0.00    +0.175 C 
ATOM     17  C   UNL     1      11.389   5.653   2.611  0.00  0.00    +0.133 C 
ATOM     18  C   UNL     1      12.576   3.473   0.084  0.00  0.00    +0.171 C 
ATOM     19  C   UNL     1      10.557   4.387   2.613  0.00  0.00    +0.183 C 
ATOM     20  C   UNL     1      13.544   3.427   1.261  0.00  0.00    +0.190 C 
ENDROOT
BRANCH  18   9
ATOM      9  N   UNL     1      13.191   3.768  -1.213  0.00  0.00    -0.187 N 
ATOM     10  N   UNL     1      14.402   4.336  -1.295  0.00  0.00    -0.041 NA
ATOM     11  N   UNL     1      13.586   3.967  -3.336  0.00  0.00    -0.071 NA
ATOM     12  N   UNL     1      14.639   4.455  -2.595  0.00  0.00    -0.020 NA
ATOM     21  C   UNL     1      12.702   3.546  -2.462  0.00  0.00    +0.342 A 
BRANCH  21   4
ATOM      4  O   UNL     1      11.529   3.001  -2.725  0.00  0.00    -0.423 OA
BRANCH   4  25
ATOM     25  C   UNL     1      10.548   3.655  -3.457  0.00  0.00    +0.134 A 
ATOM     29  C   UNL     1       9.895   4.762  -2.915  0.00  0.00    +0.069 A 
ATOM     30  C   UNL     1      10.215   3.206  -4.735  0.00  0.00    +0.046 A 
ATOM     31  C   UNL     1       8.910   5.420  -3.650  0.00  0.00    +0.033 A 
ATOM     32  C   UNL     1       9.229   3.864  -5.470  0.00  0.00    +0.005 A 
ATOM     33  C   UNL     1       8.576   4.971  -4.927  0.00  0.00    +0.023 A 
BRANCH  31  14
ATOM     14  N   UNL     1       8.248   6.539  -3.101  0.00  0.00    -0.336 N 
ATOM     35  C   UNL     1       6.802   6.579  -3.041  0.00  0.00    +0.129 C 
ATOM     36  C   UNL     1       9.008   7.667  -2.601  0.00  0.00    +0.129 C 
ENDBRANCH  31  14
ENDBRANCH   4  25
ENDBRANCH  21   4
ENDBRANCH  18   9
BRANCH  17   8
ATOM      8  N   UNL     1      10.519   6.819   2.329  0.00  0.00    -0.182 NA
ATOM     38  H   UNL     1      10.075   6.870   1.404  0.00  0.00    +0.148 HD
BRANCH   8   1
ATOM      1  S   UNL     1      10.595   8.190   3.328  0.00  0.00    +0.059 S 
ATOM      5  O   UNL     1       9.575   9.139   2.923  0.00  0.00    -0.153 OA
ATOM      6  O   UNL     1      11.978   8.609   3.441  0.00  0.00    -0.153 OA
BRANCH   1  22
ATOM     22  C   UNL     1      10.128   7.525   4.897  0.00  0.00    +0.105 A 
ATOM     23  C   UNL     1      10.908   7.783   6.024  0.00  0.00    +0.030 A 
ATOM     24  C   UNL     1       8.978   6.743   5.009  0.00  0.00    +0.030 A 
ATOM     26  C   UNL     1      10.539   7.258   7.263  0.00  0.00    +0.025 A 
ATOM     27  C   UNL     1       8.609   6.218   6.248  0.00  0.00    +0.025 A 
ATOM     28  C   UNL     1       9.390   6.475   7.375  0.00  0.00    +0.033 A 
BRANCH  28  13
ATOM      7  O   UNL     1      10.170   3.896   8.717  0.00  0.00    -0.276 OA
ATOM     13  N   UNL     1       9.020   5.951   8.614  0.00  0.00    -0.286 N 
ATOM     34  C   UNL     1       9.414   4.737   9.192  0.00  0.00    +0.214 C 
ATOM     37  C   UNL     1       8.790   4.535  10.550  0.00  0.00    +0.109 C 
ATOM     39  H   UNL     1       8.383   6.530   9.157  0.00  0.00    +0.155 HD
ENDBRANCH  28  13
ENDBRANCH   1  22
ENDBRANCH   8   1
ENDBRANCH  17   8
TORSDOF 8
ENDMDL
MODEL 10
REMARK VINA RESULT:      -6.8     23.024     27.058
REMARK  Name = 11879578
REMARK  11 active torsions:
REMARK  status: ('A' for Active; 'I' for Inactive)
REMARK    1  A    between atoms: S_1  and  N_8
REMARK    2  A    between atoms: S_1  and  C_22
REMARK    3  A    between atoms: O_4  and  C_21
REMARK    4  A    between atoms: O_4  and  C_25
REMARK    5  A    between atoms: N_8  and  C_17
REMARK    6  A    between atoms: N_9  and  C_18
REMARK    7  A    between atoms: N_13  and  C_28
REMARK    8  A    between atoms: N_14  and  C_31
REMARK    9  A    between atoms: N_14  and  C_35
REMARK   10  A    between atoms: N_14  and  C_36
REMARK   11  A    between atoms: C_34  and  C_37
REMARK                            x       y       z     vdW  Elec       q    Type
REMARK                         _______ _______ _______ _____ _____    ______ ____
ROOT
ATOM      2  O   UNL     1     -14.289   9.628  33.936  0.00  0.00    -0.370 OA
ATOM      3  O   UNL     1     -14.763  10.142  30.857  0.00  0.00    -0.370 OA
ATOM     15  C   UNL     1     -14.123   9.108  31.620  0.00  0.00    +0.170 C 
ATOM     16  C   UNL     1     -13.424   9.765  32.795  0.00  0.00    +0.175 C 
ATOM     17  C   UNL     1     -15.159   8.210  32.252  0.00  0.00    +0.133 C 
ATOM     18  C   UNL     1     -13.309  11.227  32.407  0.00  0.00    +0.171 C 
ATOM     19  C   UNL     1     -15.478   8.924  33.550  0.00  0.00    +0.183 C 
ATOM     20  C   UNL     1     -14.473  11.419  31.443  0.00  0.00    +0.190 C 
ENDROOT
BRANCH  18   9
ATOM      9  N   UNL     1     -11.991  11.562  31.863  0.00  0.00    -0.187 N 
ATOM     10  N   UNL     1     -11.766  11.567  30.542  0.00  0.00    -0.041 NA
ATOM     11  N   UNL     1      -9.906  12.116  31.641  0.00  0.00    -0.071 NA
ATOM     12  N   UNL     1     -10.489  11.907  30.412  0.00  0.00    -0.020 NA
ATOM     21  C   UNL     1     -10.852  11.898  32.524  0.00  0.00    +0.342 A 
BRANCH  21   4
ATOM      4  O   UNL     1     -10.741  11.981  33.837  0.00  0.00    -0.423 OA
BRANCH   4  25
ATOM     25  C   UNL     1     -10.108  11.006  34.596  0.00  0.00    +0.134 A 
ATOM     29  C   UNL     1     -10.865  10.105  35.345  0.00  0.00    +0.069 A 
ATOM     30  C   UNL     1      -8.716  10.929  34.612  0.00  0.00    +0.046 A 
ATOM     31  C   UNL     1     -10.229   9.126  36.108  0.00  0.00    +0.033 A 
ATOM     32  C   UNL     1      -8.080   9.950  35.375  0.00  0.00    +0.005 A 
ATOM     33  C   UNL     1      -8.837   9.049  36.124  0.00  0.00    +0.023 A 
BRANCH  31  14
ATOM     14  N   UNL     1     -10.994   8.216  36.867  0.00  0.00    -0.336 N 
ATOM     35  C   UNL     1     -12.432   8.147  36.699  0.00  0.00    +0.129 C 
ATOM     36  C   UNL     1     -10.355   7.347  37.834  0.00  0.00    +0.129 C 
ENDBRANCH  31  14
ENDBRANCH   4  25
ENDBRANCH  21   4
ENDBRANCH  18   9
BRANCH  17   8
ATOM      8  N   UNL     1     -14.567   6.883  32.546  0.00  0.00    -0.182 NA
ATOM     38  H   UNL     1     -13.629   6.687  32.177  0.00  0.00    +0.148 HD
BRANCH   8   1
ATOM      1  S   UNL     1     -15.557   5.622  33.104  0.00  0.00    +0.059 S 
ATOM      5  O   UNL     1     -16.915   5.832  32.640  0.00  0.00    -0.153 OA
ATOM      6  O   UNL     1     -15.292   5.411  34.515  0.00  0.00    -0.153 OA
BRANCH   1  22
ATOM     22  C   UNL     1     -14.895   4.229  32.242  0.00  0.00    +0.105 A 
ATOM     23  C   UNL     1     -15.080   4.109  30.865  0.00  0.00    +0.030 A 
ATOM     24  C   UNL     1     -14.186   3.250  32.938  0.00  0.00    +0.030 A 
ATOM     26  C   UNL     1     -14.557   3.009  30.184  0.00  0.00    +0.025 A 
ATOM     27  C   UNL     1     -13.663   2.151  32.257  0.00  0.00    +0.025 A 
ATOM     28  C   UNL     1     -13.848   2.030  30.880  0.00  0.00    +0.033 A 
BRANCH  28  13
ATOM      7  O   UNL     1     -15.097  -0.624  30.199  0.00  0.00    -0.276 OA
ATOM     13  N   UNL     1     -13.325   0.931  30.199  0.00  0.00    -0.286 N 
ATOM     34  C   UNL     1     -13.953  -0.288  29.910  0.00  0.00    +0.214 C 
ATOM     37  C   UNL     1     -13.043  -1.222  29.153  0.00  0.00    +0.109 C 
ATOM     39  H   UNL     1     -12.365   1.037  29.879  0.00  0.00    +0.155 HD
ENDBRANCH  28  13
ENDBRANCH   1  22
ENDBRANCH   8   1
ENDBRANCH  17   8
TORSDOF 8
ENDMDL
