MODEL 1
REMARK VINA RESULT:      -7.1      0.000      0.000
REMARK  Name = 7144217
REMARK  6 active torsions:
REMARK  status: ('A' for Active; 'I' for Inactive)
REMARK    1  A    between atoms: S_1  and  C_25
REMARK    2  A    between atoms: S_1  and  C_29
REMARK    3  A    between atoms: O_4  and  C_20
REMARK    4  A    between atoms: O_4  and  C_26
REMARK    5  A    between atoms: C_14  and  C_19
REMARK    6  A    between atoms: C_16  and  C_20
REMARK                            x       y       z     vdW  Elec       q    Type
REMARK                         _______ _______ _______ _____ _____    ______ ____
ROOT
ATOM      2  O   UNL     1      11.185   9.111  17.219  0.00  0.00    -0.268 OA
ATOM      3  O   UNL     1      11.166  11.977  21.639  0.00  0.00    -0.272 OA
ATOM      5  N   UNL     1      12.139   9.908  22.051  0.00  0.00    -0.298 N 
ATOM      6  N   UNL     1      12.203   8.449  19.222  0.00  0.00    -0.311 N 
ATOM      7  C   UNL     1      10.822   7.925  21.318  0.00  0.00    +0.027 C 
ATOM      8  C   UNL     1      13.275   7.791  21.399  0.00  0.00    +0.054 C 
ATOM      9  C   UNL     1      11.987   7.019  21.683  0.00  0.00    +0.018 C 
ATOM     10  C   UNL     1      10.853   9.217  22.151  0.00  0.00    +0.113 C 
ATOM     11  C   UNL     1      10.880   8.211  19.817  0.00  0.00    +0.130 C 
ATOM     12  C   UNL     1      13.317   9.059  22.276  0.00  0.00    +0.117 C 
ATOM     13  C   UNL     1      13.394   8.166  19.919  0.00  0.00    +0.034 A 
ATOM     14  C   UNL     1      14.589   8.257  19.280  0.00  0.00    +0.002 A 
ATOM     15  C   UNL     1      12.196   8.864  17.879  0.00  0.00    +0.252 A 
ATOM     16  C   UNL     1      12.169  11.284  21.827  0.00  0.00    +0.253 C 
ATOM     17  C   UNL     1      14.621   8.685  17.894  0.00  0.00    +0.015 A 
ATOM     18  C   UNL     1      13.514   8.989  17.218  0.00  0.00    +0.071 A 
ENDROOT
BRANCH  14  19
ATOM     19  C   UNL     1      15.865   7.951  19.965  0.00  0.00    -0.016 A 
ATOM     21  C   UNL     1      16.393   6.666  19.900  0.00  0.00    +0.009 A 
ATOM     22  C   UNL     1      16.527   8.952  20.672  0.00  0.00    +0.009 A 
ATOM     23  C   UNL     1      17.594   6.377  20.548  0.00  0.00    +0.015 A 
ATOM     24  C   UNL     1      17.727   8.662  21.319  0.00  0.00    +0.015 A 
ATOM     25  C   UNL     1      18.262   7.375  21.257  0.00  0.00    +0.008 A 
BRANCH  25   1
ATOM      1  S   UNL     1      19.796   7.006  22.084  0.00  0.00    -0.129 S 
ATOM     29  C   UNL     1      20.978   7.055  20.708  0.00  0.00    +0.090 C 
ENDBRANCH  25   1
ENDBRANCH  14  19
BRANCH  16  20
ATOM     20  C   UNL     1      13.528  11.936  21.808  0.00  0.00    +0.324 C 
BRANCH  20   4
ATOM      4  O   UNL     1      13.489  12.921  20.805  0.00  0.00    -0.483 OA
BRANCH   4  26
ATOM     26  C   UNL     1      14.207  12.682  19.654  0.00  0.00    +0.121 A 
ATOM     27  C   UNL     1      13.570  12.757  18.425  0.00  0.00    +0.045 A 
ATOM     28  C   UNL     1      15.554  12.368  19.746  0.00  0.00    +0.045 A 
ATOM     30  C   UNL     1      14.297  12.514  17.260  0.00  0.00    +0.004 A 
ATOM     31  C   UNL     1      16.282  12.124  18.581  0.00  0.00    +0.004 A 
ATOM     32  C   UNL     1      15.653  12.197  17.338  0.00  0.00    +0.000 A 
ENDBRANCH   4  26
ENDBRANCH  20   4
ENDBRANCH  16  20
TORSDOF 5
ENDMDL
MODEL 2
REMARK VINA RESULT:      -6.1     13.796     16.325
REMARK  Name = 7144217
REMARK  6 active torsions:
REMARK  status: ('A' for Active; 'I' for Inactive)
REMARK    1  A    between atoms: S_1  and  C_25
REMARK    2  A    between atoms: S_1  and  C_29
REMARK    3  A    between atoms: O_4  and  C_20
REMARK    4  A    between atoms: O_4  and  C_26
REMARK    5  A    between atoms: C_14  and  C_19
REMARK    6  A    between atoms: C_16  and  C_20
REMARK                            x       y       z     vdW  Elec       q    Type
REMARK                         _______ _______ _______ _____ _____    ______ ____
ROOT
ATOM      2  O   UNL     1       7.149   8.832   4.286  0.00  0.00    -0.268 OA
ATOM      3  O   UNL     1      11.088   9.908   7.612  0.00  0.00    -0.272 OA
ATOM      5  N   UNL     1      11.211   7.686   6.945  0.00  0.00    -0.298 N 
ATOM      6  N   UNL     1       8.866   7.332   4.821  0.00  0.00    -0.311 N 
ATOM      7  C   UNL     1       9.112   6.365   7.183  0.00  0.00    +0.027 C 
ATOM      8  C   UNL     1      10.732   5.764   5.435  0.00  0.00    +0.054 C 
ATOM      9  C   UNL     1       9.773   5.191   6.476  0.00  0.00    +0.018 C 
ATOM     10  C   UNL     1      10.164   7.251   7.870  0.00  0.00    +0.113 C 
ATOM     11  C   UNL     1       8.287   7.146   6.159  0.00  0.00    +0.130 C 
ATOM     12  C   UNL     1      11.811   6.611   6.142  0.00  0.00    +0.117 C 
ATOM     13  C   UNL     1       9.996   6.609   4.392  0.00  0.00    +0.034 A 
ATOM     14  C   UNL     1      10.405   6.700   3.099  0.00  0.00    +0.002 A 
ATOM     15  C   UNL     1       8.148   8.188   3.966  0.00  0.00    +0.252 A 
ATOM     16  C   UNL     1      11.609   9.022   6.928  0.00  0.00    +0.253 C 
ATOM     17  C   UNL     1       9.691   7.575   2.189  0.00  0.00    +0.015 A 
ATOM     18  C   UNL     1       8.638   8.295   2.574  0.00  0.00    +0.071 A 
ENDROOT
BRANCH  14  19
ATOM     19  C   UNL     1      11.575   5.944   2.598  0.00  0.00    -0.016 A 
ATOM     21  C   UNL     1      12.807   6.578   2.479  0.00  0.00    +0.009 A 
ATOM     22  C   UNL     1      11.433   4.604   2.247  0.00  0.00    +0.009 A 
ATOM     23  C   UNL     1      13.909   5.866   2.004  0.00  0.00    +0.015 A 
ATOM     24  C   UNL     1      12.534   3.893   1.772  0.00  0.00    +0.015 A 
ATOM     25  C   UNL     1      13.772   4.523   1.651  0.00  0.00    +0.008 A 
BRANCH  25   1
ATOM      1  S   UNL     1      15.180   3.613   1.045  0.00  0.00    -0.129 S 
ATOM     29  C   UNL     1      15.371   4.298  -0.625  0.00  0.00    +0.090 C 
ENDBRANCH  25   1
ENDBRANCH  14  19
BRANCH  16  20
ATOM     20  C   UNL     1      12.742   9.378   6.001  0.00  0.00    +0.324 C 
BRANCH  20   4
ATOM      4  O   UNL     1      13.931   9.213   6.735  0.00  0.00    -0.483 OA
BRANCH   4  26
ATOM     26  C   UNL     1      15.081   8.944   6.026  0.00  0.00    +0.121 A 
ATOM     27  C   UNL     1      16.189   9.761   6.190  0.00  0.00    +0.045 A 
ATOM     28  C   UNL     1      15.108   7.863   5.159  0.00  0.00    +0.045 A 
ATOM     30  C   UNL     1      17.353   9.489   5.471  0.00  0.00    +0.004 A 
ATOM     31  C   UNL     1      16.272   7.591   4.439  0.00  0.00    +0.004 A 
ATOM     32  C   UNL     1      17.395   8.404   4.595  0.00  0.00    +0.000 A 
ENDBRANCH   4  26
ENDBRANCH  20   4
ENDBRANCH  16  20
TORSDOF 5
ENDMDL
MODEL 3
REMARK VINA RESULT:      -5.9     12.784     15.790
REMARK  Name = 7144217
REMARK  6 active torsions:
REMARK  status: ('A' for Active; 'I' for Inactive)
REMARK    1  A    between atoms: S_1  and  C_25
REMARK    2  A    between atoms: S_1  and  C_29
REMARK    3  A    between atoms: O_4  and  C_20
REMARK    4  A    between atoms: O_4  and  C_26
REMARK    5  A    between atoms: C_14  and  C_19
REMARK    6  A    between atoms: C_16  and  C_20
REMARK                            x       y       z     vdW  Elec       q    Type
REMARK                         _______ _______ _______ _____ _____    ______ ____
ROOT
ATOM      2  O   UNL     1      13.611   6.980   6.488  0.00  0.00    -0.268 OA
ATOM      3  O   UNL     1       9.430   6.670   3.299  0.00  0.00    -0.272 OA
ATOM      5  N   UNL     1       8.736   7.197   5.453  0.00  0.00    -0.298 N 
ATOM      6  N   UNL     1      11.422   7.508   7.132  0.00  0.00    -0.311 N 
ATOM      7  C   UNL     1       9.594   5.715   7.262  0.00  0.00    +0.027 C 
ATOM      8  C   UNL     1       9.053   8.059   7.767  0.00  0.00    +0.054 C 
ATOM      9  C   UNL     1       8.972   6.631   8.304  0.00  0.00    +0.018 C 
ATOM     10  C   UNL     1       8.839   5.816   5.926  0.00  0.00    +0.113 C 
ATOM     11  C   UNL     1      11.071   6.081   7.113  0.00  0.00    +0.130 C 
ATOM     12  C   UNL     1       8.252   8.159   6.453  0.00  0.00    +0.117 C 
ATOM     13  C   UNL     1      10.503   8.495   7.538  0.00  0.00    +0.034 A 
ATOM     14  C   UNL     1      10.914   9.782   7.686  0.00  0.00    +0.002 A 
ATOM     15  C   UNL     1      12.764   7.804   6.833  0.00  0.00    +0.252 A 
ATOM     16  C   UNL     1       9.023   7.496   4.122  0.00  0.00    +0.253 C 
ATOM     17  C   UNL     1      12.290  10.125   7.384  0.00  0.00    +0.015 A 
ATOM     18  C   UNL     1      13.175   9.220   6.969  0.00  0.00    +0.071 A 
ENDROOT
BRANCH  14  19
ATOM     19  C   UNL     1       9.989  10.849   8.128  0.00  0.00    -0.016 A 
ATOM     21  C   UNL     1       9.437  11.717   7.191  0.00  0.00    +0.009 A 
ATOM     22  C   UNL     1       9.679  10.978   9.479  0.00  0.00    +0.009 A 
ATOM     23  C   UNL     1       8.567  12.725   7.609  0.00  0.00    +0.015 A 
ATOM     24  C   UNL     1       8.809  11.985   9.896  0.00  0.00    +0.015 A 
ATOM     25  C   UNL     1       8.252  12.858   8.961  0.00  0.00    +0.008 A 
BRANCH  25   1
ATOM      1  S   UNL     1       7.140  14.145   9.494  0.00  0.00    -0.129 S 
ATOM     29  C   UNL     1       5.951  14.195   8.125  0.00  0.00    +0.090 C 
ENDBRANCH  25   1
ENDBRANCH  14  19
BRANCH  16  20
ATOM     20  C   UNL     1       8.824   8.926   3.691  0.00  0.00    +0.324 C 
BRANCH  20   4
ATOM      4  O   UNL     1       7.563   8.989   3.071  0.00  0.00    -0.483 OA
BRANCH   4  26
ATOM     26  C   UNL     1       6.714  10.000   3.462  0.00  0.00    +0.121 A 
ATOM     27  C   UNL     1       5.438  10.065   2.923  0.00  0.00    +0.045 A 
ATOM     28  C   UNL     1       7.151  10.936   4.386  0.00  0.00    +0.045 A 
ATOM     30  C   UNL     1       4.579  11.090   3.317  0.00  0.00    +0.004 A 
ATOM     31  C   UNL     1       6.292  11.962   4.781  0.00  0.00    +0.004 A 
ATOM     32  C   UNL     1       5.005  12.039   4.247  0.00  0.00    +0.000 A 
ENDBRANCH   4  26
ENDBRANCH  20   4
ENDBRANCH  16  20
TORSDOF 5
ENDMDL
MODEL 4
REMARK VINA RESULT:      -5.7     14.827     17.672
REMARK  Name = 7144217
REMARK  6 active torsions:
REMARK  status: ('A' for Active; 'I' for Inactive)
REMARK    1  A    between atoms: S_1  and  C_25
REMARK    2  A    between atoms: S_1  and  C_29
REMARK    3  A    between atoms: O_4  and  C_20
REMARK    4  A    between atoms: O_4  and  C_26
REMARK    5  A    between atoms: C_14  and  C_19
REMARK    6  A    between atoms: C_16  and  C_20
REMARK                            x       y       z     vdW  Elec       q    Type
REMARK                         _______ _______ _______ _____ _____    ______ ____
ROOT
ATOM      2  O   UNL     1      10.490   6.182   8.326  0.00  0.00    -0.268 OA
ATOM      3  O   UNL     1      10.419  10.801   5.796  0.00  0.00    -0.272 OA
ATOM      5  N   UNL     1      11.847   9.330   4.702  0.00  0.00    -0.298 N 
ATOM      6  N   UNL     1      11.580   6.586   6.293  0.00  0.00    -0.311 N 
ATOM      7  C   UNL     1      13.555   8.213   6.131  0.00  0.00    +0.027 C 
ATOM      8  C   UNL     1      12.730   7.078   4.113  0.00  0.00    +0.054 C 
ATOM      9  C   UNL     1      13.978   7.355   4.950  0.00  0.00    +0.018 C 
ATOM     10  C   UNL     1      12.941   9.539   5.651  0.00  0.00    +0.113 C 
ATOM     11  C   UNL     1      12.577   7.410   6.990  0.00  0.00    +0.130 C 
ATOM     12  C   UNL     1      12.153   8.413   3.597  0.00  0.00    +0.117 C 
ATOM     13  C   UNL     1      11.670   6.318   4.913  0.00  0.00    +0.034 A 
ATOM     14  C   UNL     1      10.815   5.430   4.340  0.00  0.00    +0.002 A 
ATOM     15  C   UNL     1      10.605   5.993   7.115  0.00  0.00    +0.252 A 
ATOM     16  C   UNL     1      10.654  10.035   4.856  0.00  0.00    +0.253 C 
ATOM     17  C   UNL     1       9.795   4.800   5.156  0.00  0.00    +0.015 A 
ATOM     18  C   UNL     1       9.665   5.058   6.457  0.00  0.00    +0.071 A 
ENDROOT
BRANCH  14  19
ATOM     19  C   UNL     1      10.884   5.102   2.899  0.00  0.00    -0.016 A 
ATOM     21  C   UNL     1      11.715   4.074   2.463  0.00  0.00    +0.009 A 
ATOM     22  C   UNL     1      10.118   5.825   1.988  0.00  0.00    +0.009 A 
ATOM     23  C   UNL     1      11.781   3.766   1.104  0.00  0.00    +0.015 A 
ATOM     24  C   UNL     1      10.185   5.516   0.630  0.00  0.00    +0.015 A 
ATOM     25  C   UNL     1      11.016   4.487   0.188  0.00  0.00    +0.008 A 
BRANCH  25   1
ATOM      1  S   UNL     1      11.100   4.093  -1.548  0.00  0.00    -0.129 S 
ATOM     29  C   UNL     1      12.418   2.845  -1.580  0.00  0.00    +0.090 C 
ENDBRANCH  25   1
ENDBRANCH  14  19
BRANCH  16  20
ATOM     20  C   UNL     1       9.601   9.822   3.800  0.00  0.00    +0.324 C 
BRANCH  20   4
ATOM      4  O   UNL     1       8.370   9.714   4.473  0.00  0.00    -0.483 OA
BRANCH   4  26
ATOM     26  C   UNL     1       7.225   9.916   3.735  0.00  0.00    +0.121 A 
ATOM     27  C   UNL     1       6.120  10.497   4.338  0.00  0.00    +0.045 A 
ATOM     28  C   UNL     1       7.197   9.532   2.404  0.00  0.00    +0.045 A 
ATOM     30  C   UNL     1       4.960  10.700   3.591  0.00  0.00    +0.004 A 
ATOM     31  C   UNL     1       6.036   9.733   1.657  0.00  0.00    +0.004 A 
ATOM     32  C   UNL     1       4.917  10.318   2.250  0.00  0.00    +0.000 A 
ENDBRANCH   4  26
ENDBRANCH  20   4
ENDBRANCH  16  20
TORSDOF 5
ENDMDL
MODEL 5
REMARK VINA RESULT:      -5.7     28.010     30.988
REMARK  Name = 7144217
REMARK  6 active torsions:
REMARK  status: ('A' for Active; 'I' for Inactive)
REMARK    1  A    between atoms: S_1  and  C_25
REMARK    2  A    between atoms: S_1  and  C_29
REMARK    3  A    between atoms: O_4  and  C_20
REMARK    4  A    between atoms: O_4  and  C_26
REMARK    5  A    between atoms: C_14  and  C_19
REMARK    6  A    between atoms: C_16  and  C_20
REMARK                            x       y       z     vdW  Elec       q    Type
REMARK                         _______ _______ _______ _____ _____    ______ ____
ROOT
ATOM      2  O   UNL     1      -6.615 -14.869  15.522  0.00  0.00    -0.268 OA
ATOM      3  O   UNL     1      -4.304 -11.937  19.238  0.00  0.00    -0.272 OA
ATOM      5  N   UNL     1      -4.915 -10.592  17.445  0.00  0.00    -0.298 N 
ATOM      6  N   UNL     1      -6.439 -12.535  15.437  0.00  0.00    -0.311 N 
ATOM      7  C   UNL     1      -4.167 -11.371  15.201  0.00  0.00    +0.027 C 
ATOM      8  C   UNL     1      -6.219 -10.032  15.399  0.00  0.00    +0.054 C 
ATOM      9  C   UNL     1      -4.970 -10.255  14.549  0.00  0.00    +0.018 C 
ATOM     10  C   UNL     1      -3.764 -10.987  16.634  0.00  0.00    +0.113 C 
ATOM     11  C   UNL     1      -4.999 -12.653  15.165  0.00  0.00    +0.130 C 
ATOM     12  C   UNL     1      -5.801  -9.600  16.820  0.00  0.00    +0.117 C 
ATOM     13  C   UNL     1      -7.092 -11.288  15.463  0.00  0.00    +0.034 A 
ATOM     14  C   UNL     1      -8.446 -11.235  15.567  0.00  0.00    +0.002 A 
ATOM     15  C   UNL     1      -7.133 -13.753  15.552  0.00  0.00    +0.252 A 
ATOM     16  C   UNL     1      -5.061 -11.103  18.734  0.00  0.00    +0.253 C 
ATOM     17  C   UNL     1      -9.196 -12.471  15.689  0.00  0.00    +0.015 A 
ATOM     18  C   UNL     1      -8.603 -13.664  15.700  0.00  0.00    +0.071 A 
ENDROOT
BRANCH  14  19
ATOM     19  C   UNL     1      -9.177  -9.949  15.578  0.00  0.00    -0.016 A 
ATOM     21  C   UNL     1      -9.122  -9.133  16.704  0.00  0.00    +0.009 A 
ATOM     22  C   UNL     1      -9.917  -9.564  14.463  0.00  0.00    +0.009 A 
ATOM     23  C   UNL     1      -9.814  -7.921  16.715  0.00  0.00    +0.015 A 
ATOM     24  C   UNL     1     -10.607  -8.353  14.475  0.00  0.00    +0.015 A 
ATOM     25  C   UNL     1     -10.556  -7.531  15.601  0.00  0.00    +0.008 A 
BRANCH  25   1
ATOM      1  S   UNL     1     -11.438  -5.983  15.615  0.00  0.00    -0.129 S 
ATOM     29  C   UNL     1     -13.162  -6.541  15.710  0.00  0.00    +0.090 C 
ENDBRANCH  25   1
ENDBRANCH  14  19
BRANCH  16  20
ATOM     20  C   UNL     1      -6.233 -10.594  19.535  0.00  0.00    +0.324 C 
BRANCH  20   4
ATOM      4  O   UNL     1      -6.831 -11.718  20.133  0.00  0.00    -0.483 OA
BRANCH   4  26
ATOM     26  C   UNL     1      -8.123 -12.018  19.765  0.00  0.00    +0.121 A 
ATOM     27  C   UNL     1      -8.479 -13.340  19.544  0.00  0.00    +0.045 A 
ATOM     28  C   UNL     1      -9.046 -10.993  19.621  0.00  0.00    +0.045 A 
ATOM     30  C   UNL     1      -9.787 -13.645  19.170  0.00  0.00    +0.004 A 
ATOM     31  C   UNL     1     -10.354 -11.298  19.246  0.00  0.00    +0.004 A 
ATOM     32  C   UNL     1     -10.726 -12.623  19.021  0.00  0.00    +0.000 A 
ENDBRANCH   4  26
ENDBRANCH  20   4
ENDBRANCH  16  20
TORSDOF 5
ENDMDL
MODEL 6
REMARK VINA RESULT:      -5.7     26.729     29.747
REMARK  Name = 7144217
REMARK  6 active torsions:
REMARK  status: ('A' for Active; 'I' for Inactive)
REMARK    1  A    between atoms: S_1  and  C_25
REMARK    2  A    between atoms: S_1  and  C_29
REMARK    3  A    between atoms: O_4  and  C_20
REMARK    4  A    between atoms: O_4  and  C_26
REMARK    5  A    between atoms: C_14  and  C_19
REMARK    6  A    between atoms: C_16  and  C_20
REMARK                            x       y       z     vdW  Elec       q    Type
REMARK                         _______ _______ _______ _____ _____    ______ ____
ROOT
ATOM      2  O   UNL     1      -1.874 -10.696  17.093  0.00  0.00    -0.268 OA
ATOM      3  O   UNL     1      -5.563 -14.445  16.817  0.00  0.00    -0.272 OA
ATOM      5  N   UNL     1      -6.106 -12.703  15.378  0.00  0.00    -0.298 N 
ATOM      6  N   UNL     1      -3.664 -10.673  15.583  0.00  0.00    -0.311 N 
ATOM      7  C   UNL     1      -6.087 -10.423  16.381  0.00  0.00    +0.027 C 
ATOM      8  C   UNL     1      -5.605 -10.700  13.986  0.00  0.00    +0.054 C 
ATOM      9  C   UNL     1      -6.325  -9.819  15.005  0.00  0.00    +0.018 C 
ATOM     10  C   UNL     1      -6.635 -11.858  16.449  0.00  0.00    +0.113 C 
ATOM     11  C   UNL     1      -4.589 -10.369  16.683  0.00  0.00    +0.130 C 
ATOM     12  C   UNL     1      -6.198 -12.124  14.031  0.00  0.00    +0.117 C 
ATOM     13  C   UNL     1      -4.097 -10.747  14.244  0.00  0.00    +0.034 A 
ATOM     14  C   UNL     1      -3.186 -10.880  13.245  0.00  0.00    +0.002 A 
ATOM     15  C   UNL     1      -2.307 -10.767  15.942  0.00  0.00    +0.252 A 
ATOM     16  C   UNL     1      -5.632 -13.980  15.675  0.00  0.00    +0.253 C 
ATOM     17  C   UNL     1      -1.778 -10.983  13.578  0.00  0.00    +0.015 A 
ATOM     18  C   UNL     1      -1.341 -10.947  14.836  0.00  0.00    +0.071 A 
ENDROOT
BRANCH  14  19
ATOM     19  C   UNL     1      -3.592 -10.942  11.823  0.00  0.00    -0.016 A 
ATOM     21  C   UNL     1      -3.797  -9.764  11.111  0.00  0.00    +0.009 A 
ATOM     22  C   UNL     1      -3.769 -12.179  11.209  0.00  0.00    +0.009 A 
ATOM     23  C   UNL     1      -4.183  -9.824   9.772  0.00  0.00    +0.015 A 
ATOM     24  C   UNL     1      -4.154 -12.237   9.870  0.00  0.00    +0.015 A 
ATOM     25  C   UNL     1      -4.360 -11.060   9.151  0.00  0.00    +0.008 A 
BRANCH  25   1
ATOM      1  S   UNL     1      -4.852 -11.135   7.439  0.00  0.00    -0.129 S 
ATOM     29  C   UNL     1      -6.303 -10.045   7.424  0.00  0.00    +0.090 C 
ENDBRANCH  25   1
ENDBRANCH  14  19
BRANCH  16  20
ATOM     20  C   UNL     1      -5.170 -14.818  14.510  0.00  0.00    +0.324 C 
BRANCH  20   4
ATOM      4  O   UNL     1      -4.263 -15.761  15.027  0.00  0.00    -0.483 OA
BRANCH   4  26
ATOM     26  C   UNL     1      -2.974 -15.730  14.543  0.00  0.00    +0.121 A 
ATOM     27  C   UNL     1      -2.532 -14.612  13.853  0.00  0.00    +0.045 A 
ATOM     28  C   UNL     1      -2.141 -16.818  14.754  0.00  0.00    +0.045 A 
ATOM     30  C   UNL     1      -1.227 -14.580  13.362  0.00  0.00    +0.004 A 
ATOM     31  C   UNL     1      -0.836 -16.788  14.262  0.00  0.00    +0.004 A 
ATOM     32  C   UNL     1      -0.379 -15.668  13.566  0.00  0.00    +0.000 A 
ENDBRANCH   4  26
ENDBRANCH  20   4
ENDBRANCH  16  20
TORSDOF 5
ENDMDL
MODEL 7
REMARK VINA RESULT:      -5.6     14.617     17.168
REMARK  Name = 7144217
REMARK  6 active torsions:
REMARK  status: ('A' for Active; 'I' for Inactive)
REMARK    1  A    between atoms: S_1  and  C_25
REMARK    2  A    between atoms: S_1  and  C_29
REMARK    3  A    between atoms: O_4  and  C_20
REMARK    4  A    between atoms: O_4  and  C_26
REMARK    5  A    between atoms: C_14  and  C_19
REMARK    6  A    between atoms: C_16  and  C_20
REMARK                            x       y       z     vdW  Elec       q    Type
REMARK                         _______ _______ _______ _____ _____    ______ ____
ROOT
ATOM      2  O   UNL     1       7.100   9.372   4.932  0.00  0.00    -0.268 OA
ATOM      3  O   UNL     1      11.692   9.525   7.509  0.00  0.00    -0.272 OA
ATOM      5  N   UNL     1      11.357   7.401   6.629  0.00  0.00    -0.298 N 
ATOM      6  N   UNL     1       8.642   7.609   4.982  0.00  0.00    -0.311 N 
ATOM      7  C   UNL     1       9.162   6.345   7.150  0.00  0.00    +0.027 C 
ATOM      8  C   UNL     1      10.332   5.751   5.071  0.00  0.00    +0.054 C 
ATOM      9  C   UNL     1       9.502   5.188   6.223  0.00  0.00    +0.018 C 
ATOM     10  C   UNL     1      10.442   7.000   7.697  0.00  0.00    +0.113 C 
ATOM     11  C   UNL     1       8.293   7.342   6.384  0.00  0.00    +0.130 C 
ATOM     12  C   UNL     1      11.635   6.361   5.629  0.00  0.00    +0.117 C 
ATOM     13  C   UNL     1       9.554   6.802   4.275  0.00  0.00    +0.034 A 
ATOM     14  C   UNL     1       9.732   6.991   2.941  0.00  0.00    +0.002 A 
ATOM     15  C   UNL     1       7.918   8.646   4.366  0.00  0.00    +0.252 A 
ATOM     16  C   UNL     1      11.942   8.667   6.658  0.00  0.00    +0.253 C 
ATOM     17  C   UNL     1       9.005   8.053   2.273  0.00  0.00    +0.015 A 
ATOM     18  C   UNL     1       8.159   8.853   2.920  0.00  0.00    +0.071 A 
ENDROOT
BRANCH  14  19
ATOM     19  C   UNL     1      10.665   6.155   2.153  0.00  0.00    -0.016 A 
ATOM     21  C   UNL     1      11.973   6.584   1.949  0.00  0.00    +0.009 A 
ATOM     22  C   UNL     1      10.227   4.946   1.620  0.00  0.00    +0.009 A 
ATOM     23  C   UNL     1      12.852   5.797   1.204  0.00  0.00    +0.015 A 
ATOM     24  C   UNL     1      11.106   4.160   0.876  0.00  0.00    +0.015 A 
ATOM     25  C   UNL     1      12.418   4.584   0.668  0.00  0.00    +0.008 A 
BRANCH  25   1
ATOM      1  S   UNL     1      13.541   3.578  -0.282  0.00  0.00    -0.129 S 
ATOM     29  C   UNL     1      15.132   3.954   0.507  0.00  0.00    +0.090 C 
ENDBRANCH  25   1
ENDBRANCH  14  19
BRANCH  16  20
ATOM     20  C   UNL     1      12.929   8.981   5.564  0.00  0.00    +0.324 C 
BRANCH  20   4
ATOM      4  O   UNL     1      12.387  10.050   4.827  0.00  0.00    -0.483 OA
BRANCH   4  26
ATOM     26  C   UNL     1      12.578  10.040   3.463  0.00  0.00    +0.121 A 
ATOM     27  C   UNL     1      11.544  10.435   2.628  0.00  0.00    +0.045 A 
ATOM     28  C   UNL     1      13.799   9.633   2.949  0.00  0.00    +0.045 A 
ATOM     30  C   UNL     1      11.736  10.424   1.247  0.00  0.00    +0.004 A 
ATOM     31  C   UNL     1      13.992   9.621   1.568  0.00  0.00    +0.004 A 
ATOM     32  C   UNL     1      12.960  10.017   0.716  0.00  0.00    +0.000 A 
ENDBRANCH   4  26
ENDBRANCH  20   4
ENDBRANCH  16  20
TORSDOF 5
ENDMDL
MODEL 8
REMARK VINA RESULT:      -5.6     27.306     30.192
REMARK  Name = 7144217
REMARK  6 active torsions:
REMARK  status: ('A' for Active; 'I' for Inactive)
REMARK    1  A    between atoms: S_1  and  C_25
REMARK    2  A    between atoms: S_1  and  C_29
REMARK    3  A    between atoms: O_4  and  C_20
REMARK    4  A    between atoms: O_4  and  C_26
REMARK    5  A    between atoms: C_14  and  C_19
REMARK    6  A    between atoms: C_16  and  C_20
REMARK                            x       y       z     vdW  Elec       q    Type
REMARK                         _______ _______ _______ _____ _____    ______ ____
ROOT
ATOM      2  O   UNL     1      -3.787 -15.630  13.180  0.00  0.00    -0.268 OA
ATOM      3  O   UNL     1      -1.210 -11.503  15.196  0.00  0.00    -0.272 OA
ATOM      5  N   UNL     1      -2.911 -10.759  13.800  0.00  0.00    -0.298 N 
ATOM      6  N   UNL     1      -4.422 -13.398  12.862  0.00  0.00    -0.311 N 
ATOM      7  C   UNL     1      -2.965 -11.768  11.523  0.00  0.00    +0.027 C 
ATOM      8  C   UNL     1      -5.054 -10.985  12.554  0.00  0.00    +0.054 C 
ATOM      9  C   UNL     1      -4.277 -11.054  11.240  0.00  0.00    +0.018 C 
ATOM     10  C   UNL     1      -2.145 -11.007  12.578  0.00  0.00    +0.113 C 
ATOM     11  C   UNL     1      -3.275 -13.199  11.965  0.00  0.00    +0.130 C 
ATOM     12  C   UNL     1      -4.243 -10.177  13.587  0.00  0.00    +0.117 C 
ATOM     13  C   UNL     1      -5.366 -12.381  13.100  0.00  0.00    +0.034 A 
ATOM     14  C   UNL     1      -6.490 -12.655  13.813  0.00  0.00    +0.002 A 
ATOM     15  C   UNL     1      -4.574 -14.702  13.368  0.00  0.00    +0.252 A 
ATOM     16  C   UNL     1      -2.332 -11.012  15.043  0.00  0.00    +0.253 C 
ATOM     17  C   UNL     1      -6.680 -13.988  14.353  0.00  0.00    +0.015 A 
ATOM     18  C   UNL     1      -5.789 -14.962  14.171  0.00  0.00    +0.071 A 
ENDROOT
BRANCH  14  19
ATOM     19  C   UNL     1      -7.519 -11.624  14.072  0.00  0.00    -0.016 A 
ATOM     21  C   UNL     1      -8.530 -11.407  13.140  0.00  0.00    +0.009 A 
ATOM     22  C   UNL     1      -7.468 -10.876  15.246  0.00  0.00    +0.009 A 
ATOM     23  C   UNL     1      -9.498 -10.433  13.384  0.00  0.00    +0.015 A 
ATOM     24  C   UNL     1      -8.437  -9.903  15.488  0.00  0.00    +0.015 A 
ATOM     25  C   UNL     1      -9.453  -9.681  14.558  0.00  0.00    +0.008 A 
BRANCH  25   1
ATOM      1  S   UNL     1     -10.691  -8.438  14.869  0.00  0.00    -0.129 S 
ATOM     29  C   UNL     1     -10.023  -7.611  16.340  0.00  0.00    +0.090 C 
ENDBRANCH  25   1
ENDBRANCH  14  19
BRANCH  16  20
ATOM     20  C   UNL     1      -3.155 -10.664  16.256  0.00  0.00    +0.324 C 
BRANCH  20   4
ATOM      4  O   UNL     1      -3.731 -11.865  16.710  0.00  0.00    -0.483 OA
BRANCH   4  26
ATOM     26  C   UNL     1      -4.843 -11.768  17.517  0.00  0.00    +0.121 A 
ATOM     27  C   UNL     1      -5.658 -12.876  17.689  0.00  0.00    +0.045 A 
ATOM     28  C   UNL     1      -5.128 -10.564  18.141  0.00  0.00    +0.045 A 
ATOM     30  C   UNL     1      -6.785 -12.779  18.504  0.00  0.00    +0.004 A 
ATOM     31  C   UNL     1      -6.256 -10.465  18.956  0.00  0.00    +0.004 A 
ATOM     32  C   UNL     1      -7.085 -11.573  19.138  0.00  0.00    +0.000 A 
ENDBRANCH   4  26
ENDBRANCH  20   4
ENDBRANCH  16  20
TORSDOF 5
ENDMDL
MODEL 9
REMARK VINA RESULT:      -5.5     28.193     30.125
REMARK  Name = 7144217
REMARK  6 active torsions:
REMARK  status: ('A' for Active; 'I' for Inactive)
REMARK    1  A    between atoms: S_1  and  C_25
REMARK    2  A    between atoms: S_1  and  C_29
REMARK    3  A    between atoms: O_4  and  C_20
REMARK    4  A    between atoms: O_4  and  C_26
REMARK    5  A    between atoms: C_14  and  C_19
REMARK    6  A    between atoms: C_16  and  C_20
REMARK                            x       y       z     vdW  Elec       q    Type
REMARK                         _______ _______ _______ _____ _____    ______ ____
ROOT
ATOM      2  O   UNL     1      -7.280 -14.918  17.262  0.00  0.00    -0.268 OA
ATOM      3  O   UNL     1      -9.098 -10.283  18.980  0.00  0.00    -0.272 OA
ATOM      5  N   UNL     1      -7.082  -9.971  17.868  0.00  0.00    -0.298 N 
ATOM      6  N   UNL     1      -6.287 -12.853  16.776  0.00  0.00    -0.311 N 
ATOM      7  C   UNL     1      -5.199 -11.426  18.607  0.00  0.00    +0.027 C 
ATOM      8  C   UNL     1      -5.265 -10.609  16.289  0.00  0.00    +0.054 C 
ATOM      9  C   UNL     1      -4.341 -10.886  17.473  0.00  0.00    +0.018 C 
ATOM     10  C   UNL     1      -6.276 -10.405  19.010  0.00  0.00    +0.113 C 
ATOM     11  C   UNL     1      -5.810 -12.755  18.163  0.00  0.00    +0.130 C 
ATOM     12  C   UNL     1      -6.310  -9.547  16.692  0.00  0.00    +0.117 C 
ATOM     13  C   UNL     1      -5.964 -11.883  15.808  0.00  0.00    +0.034 A 
ATOM     14  C   UNL     1      -6.297 -12.089  14.506  0.00  0.00    +0.002 A 
ATOM     15  C   UNL     1      -6.984 -14.033  16.459  0.00  0.00    +0.252 A 
ATOM     16  C   UNL     1      -8.471  -9.920  17.981  0.00  0.00    +0.253 C 
ATOM     17  C   UNL     1      -7.018 -13.294  14.142  0.00  0.00    +0.015 A 
ATOM     18  C   UNL     1      -7.365 -14.215  15.040  0.00  0.00    +0.071 A 
ENDROOT
BRANCH  14  19
ATOM     19  C   UNL     1      -5.961 -11.108  13.451  0.00  0.00    -0.016 A 
ATOM     21  C   UNL     1      -6.864 -10.097  13.135  0.00  0.00    +0.009 A 
ATOM     22  C   UNL     1      -4.745 -11.204  12.780  0.00  0.00    +0.009 A 
ATOM     23  C   UNL     1      -6.548  -9.173  12.139  0.00  0.00    +0.015 A 
ATOM     24  C   UNL     1      -4.430 -10.280  11.784  0.00  0.00    +0.015 A 
ATOM     25  C   UNL     1      -5.331  -9.264  11.463  0.00  0.00    +0.008 A 
BRANCH  25   1
ATOM      1  S   UNL     1      -4.927  -8.084  10.191  0.00  0.00    -0.129 S 
ATOM     29  C   UNL     1      -4.388  -9.167   8.839  0.00  0.00    +0.090 C 
ENDBRANCH  25   1
ENDBRANCH  14  19
BRANCH  16  20
ATOM     20  C   UNL     1      -9.227  -9.395  16.788  0.00  0.00    +0.324 C 
BRANCH  20   4
ATOM      4  O   UNL     1      -9.526  -8.048  17.062  0.00  0.00    -0.483 OA
BRANCH   4  26
ATOM     26  C   UNL     1     -10.713  -7.550  16.573  0.00  0.00    +0.121 A 
ATOM     27  C   UNL     1     -10.721  -6.331  15.913  0.00  0.00    +0.045 A 
ATOM     28  C   UNL     1     -11.880  -8.277  16.751  0.00  0.00    +0.045 A 
ATOM     30  C   UNL     1     -11.923  -5.826  15.419  0.00  0.00    +0.004 A 
ATOM     31  C   UNL     1     -13.083  -7.772  16.257  0.00  0.00    +0.004 A 
ATOM     32  C   UNL     1     -13.105  -6.547  15.591  0.00  0.00    +0.000 A 
ENDBRANCH   4  26
ENDBRANCH  20   4
ENDBRANCH  16  20
TORSDOF 5
ENDMDL
MODEL 10
REMARK VINA RESULT:      -5.5     13.542     16.599
REMARK  Name = 7144217
REMARK  6 active torsions:
REMARK  status: ('A' for Active; 'I' for Inactive)
REMARK    1  A    between atoms: S_1  and  C_25
REMARK    2  A    between atoms: S_1  and  C_29
REMARK    3  A    between atoms: O_4  and  C_20
REMARK    4  A    between atoms: O_4  and  C_26
REMARK    5  A    between atoms: C_14  and  C_19
REMARK    6  A    between atoms: C_16  and  C_20
REMARK                            x       y       z     vdW  Elec       q    Type
REMARK                         _______ _______ _______ _____ _____    ______ ____
ROOT
ATOM      2  O   UNL     1      19.550  -4.833  21.336  0.00  0.00    -0.268 OA
ATOM      3  O   UNL     1      20.923  -1.266  24.960  0.00  0.00    -0.272 OA
ATOM      5  N   UNL     1      18.702  -1.878  25.264  0.00  0.00    -0.298 N 
ATOM      6  N   UNL     1      18.169  -4.150  23.100  0.00  0.00    -0.311 N 
ATOM      7  C   UNL     1      17.257  -1.758  23.239  0.00  0.00    +0.027 C 
ATOM      8  C   UNL     1      16.731  -3.378  25.011  0.00  0.00    +0.054 C 
ATOM      9  C   UNL     1      16.116  -2.394  24.019  0.00  0.00    +0.018 C 
ATOM     10  C   UNL     1      18.218  -1.019  24.184  0.00  0.00    +0.113 C 
ATOM     11  C   UNL     1      17.968  -2.852  22.441  0.00  0.00    +0.130 C 
ATOM     12  C   UNL     1      17.655  -2.616  25.984  0.00  0.00    +0.117 C 
ATOM     13  C   UNL     1      17.511  -4.486  24.299  0.00  0.00    +0.034 A 
ATOM     14  C   UNL     1      17.607  -5.749  24.792  0.00  0.00    +0.002 A 
ATOM     15  C   UNL     1      18.965  -5.070  22.393  0.00  0.00    +0.252 A 
ATOM     16  C   UNL     1      20.060  -1.894  25.580  0.00  0.00    +0.253 C 
ATOM     17  C   UNL     1      18.421  -6.724  24.091  0.00  0.00    +0.015 A 
ATOM     18  C   UNL     1      19.080  -6.427  22.971  0.00  0.00    +0.071 A 
ENDROOT
BRANCH  14  19
ATOM     19  C   UNL     1      16.918  -6.153  26.037  0.00  0.00    -0.016 A 
ATOM     21  C   UNL     1      17.500  -5.876  27.270  0.00  0.00    +0.009 A 
ATOM     22  C   UNL     1      15.692  -6.811  25.967  0.00  0.00    +0.009 A 
ATOM     23  C   UNL     1      16.851  -6.260  28.444  0.00  0.00    +0.015 A 
ATOM     24  C   UNL     1      15.044  -7.193  27.140  0.00  0.00    +0.015 A 
ATOM     25  C   UNL     1      15.623  -6.918  28.379  0.00  0.00    +0.008 A 
BRANCH  25   1
ATOM      1  S   UNL     1      14.794  -7.407  29.879  0.00  0.00    -0.129 S 
ATOM     29  C   UNL     1      14.297  -5.802  30.567  0.00  0.00    +0.090 C 
ENDBRANCH  25   1
ENDBRANCH  14  19
BRANCH  16  20
ATOM     20  C   UNL     1      20.472  -2.749  26.752  0.00  0.00    +0.324 C 
BRANCH  20   4
ATOM      4  O   UNL     1      21.716  -3.316  26.419  0.00  0.00    -0.483 OA
BRANCH   4  26
ATOM     26  C   UNL     1      21.732  -4.650  26.077  0.00  0.00    +0.121 A 
ATOM     27  C   UNL     1      21.114  -5.573  26.906  0.00  0.00    +0.045 A 
ATOM     28  C   UNL     1      22.368  -5.046  24.911  0.00  0.00    +0.045 A 
ATOM     30  C   UNL     1      21.131  -6.924  26.562  0.00  0.00    +0.004 A 
ATOM     31  C   UNL     1      22.386  -6.398  24.566  0.00  0.00    +0.004 A 
ATOM     32  C   UNL     1      21.767  -7.337  25.391  0.00  0.00    +0.000 A 
ENDBRANCH   4  26
ENDBRANCH  20   4
ENDBRANCH  16  20
TORSDOF 5
ENDMDL
