MODEL 1
REMARK VINA RESULT:      -6.7      0.000      0.000
REMARK  Name = 56776058
REMARK  7 active torsions:
REMARK  status: ('A' for Active; 'I' for Inactive)
REMARK    1  A    between atoms: O_5  and  C_13
REMARK    2  A    between atoms: O_5  and  C_24
REMARK    3  A    between atoms: C_10  and  C_16
REMARK    4  A    between atoms: C_13  and  C_14
REMARK    5  A    between atoms: C_13  and  C_17
REMARK    6  A    between atoms: C_13  and  C_18
REMARK    7  A    between atoms: C_19  and  C_23
REMARK                            x       y       z     vdW  Elec       q    Type
REMARK                         _______ _______ _______ _____ _____    ______ ____
ROOT
ATOM      4  O   UNL     1      13.605  11.025  16.456  0.00  0.00    -0.376 OA
ATOM      6  O   UNL     1      15.628   9.853  20.852  0.00  0.00    -0.272 OA
ATOM      7  N   UNL     1      14.221   9.942  19.001  0.00  0.00    -0.284 N 
ATOM     10  C   UNL     1      14.527  11.359  18.718  0.00  0.00    +0.168 C 
ATOM     11  C   UNL     1      13.225   9.315  18.122  0.00  0.00    +0.136 C 
ATOM     12  C   UNL     1      14.674  11.603  17.206  0.00  0.00    +0.190 C 
ATOM     14  C   UNL     1      14.792   9.322  20.117  0.00  0.00    +0.262 C 
ATOM     15  C   UNL     1      13.530   9.615  16.664  0.00  0.00    +0.179 C 
ENDROOT
BRANCH  10  16
ATOM      8  N   UNL     1      13.136  12.057  20.704  0.00  0.00    -0.340 N 
ATOM      9  N   UNL     1      13.015  13.390  18.933  0.00  0.00    -0.238 NA
ATOM     16  C   UNL     1      13.553  12.297  19.424  0.00  0.00    +0.130 A 
ATOM     19  C   UNL     1      12.277  13.062  21.050  0.00  0.00    +0.066 A 
ATOM     20  C   UNL     1      12.219  13.872  19.940  0.00  0.00    +0.139 A 
ATOM     33  H   UNL     1      13.423  11.279  21.284  0.00  0.00    +0.167 HD
BRANCH  19  23
ATOM     23  C   UNL     1      11.631  13.146  22.333  0.00  0.00    -0.000 A 
ATOM     28  C   UNL     1      12.167  12.469  23.429  0.00  0.00    +0.010 A 
ATOM     29  C   UNL     1      10.471  13.906  22.482  0.00  0.00    +0.010 A 
ATOM     30  C   UNL     1      11.542  12.551  24.673  0.00  0.00    +0.001 A 
ATOM     31  C   UNL     1       9.846  13.988  23.727  0.00  0.00    +0.001 A 
ATOM     32  C   UNL     1      10.381  13.310  24.822  0.00  0.00    +0.000 A 
ENDBRANCH  19  23
ENDBRANCH  10  16
BRANCH  14  13
ATOM     13  C   UNL     1      14.341   7.914  20.413  0.00  0.00    +0.265 C 
BRANCH  13  17
ATOM     17  C   UNL     1      12.974   7.890  21.069  0.00  0.00    +0.002 A 
ATOM     21  C   UNL     1      12.148   6.776  20.922  0.00  0.00    +0.007 A 
ATOM     22  C   UNL     1      12.543   8.983  21.821  0.00  0.00    +0.007 A 
ATOM     25  C   UNL     1      10.890   6.755  21.526  0.00  0.00    +0.000 A 
ATOM     26  C   UNL     1      11.286   8.962  22.425  0.00  0.00    +0.000 A 
ATOM     27  C   UNL     1      10.459   7.848  22.278  0.00  0.00    +0.000 A 
ENDBRANCH  13  17
BRANCH  13  18
ATOM      1  F   UNL     1      16.629   7.638  20.981  0.00  0.00    -0.167 F 
ATOM      2  F   UNL     1      15.381   5.851  20.998  0.00  0.00    -0.167 F 
ATOM      3  F   UNL     1      15.161   7.352  22.566  0.00  0.00    -0.167 F 
ATOM     18  C   UNL     1      15.382   7.180  21.242  0.00  0.00    +0.431 C 
ENDBRANCH  13  18
BRANCH  13   5
ATOM      5  O   UNL     1      14.303   7.319  19.115  0.00  0.00    -0.356 OA
ATOM     24  C   UNL     1      15.585   6.852  18.726  0.00  0.00    +0.196 C 
ENDBRANCH  13   5
ENDBRANCH  14  13
TORSDOF 6
ENDMDL
MODEL 2
REMARK VINA RESULT:      -6.3     13.718     16.953
REMARK  Name = 56776058
REMARK  7 active torsions:
REMARK  status: ('A' for Active; 'I' for Inactive)
REMARK    1  A    between atoms: O_5  and  C_13
REMARK    2  A    between atoms: O_5  and  C_24
REMARK    3  A    between atoms: C_10  and  C_16
REMARK    4  A    between atoms: C_13  and  C_14
REMARK    5  A    between atoms: C_13  and  C_17
REMARK    6  A    between atoms: C_13  and  C_18
REMARK    7  A    between atoms: C_19  and  C_23
REMARK                            x       y       z     vdW  Elec       q    Type
REMARK                         _______ _______ _______ _____ _____    ______ ____
ROOT
ATOM      4  O   UNL     1      19.497  -7.201  24.233  0.00  0.00    -0.376 OA
ATOM      6  O   UNL     1      15.948  -3.735  24.665  0.00  0.00    -0.272 OA
ATOM      7  N   UNL     1      17.967  -4.883  24.799  0.00  0.00    -0.284 N 
ATOM     10  C   UNL     1      17.319  -6.210  24.829  0.00  0.00    +0.168 C 
ATOM     11  C   UNL     1      19.431  -4.884  24.921  0.00  0.00    +0.136 C 
ATOM     12  C   UNL     1      18.094  -7.225  23.969  0.00  0.00    +0.190 C 
ATOM     14  C   UNL     1      17.178  -3.730  24.767  0.00  0.00    +0.262 C 
ATOM     15  C   UNL     1      20.048  -5.909  23.983  0.00  0.00    +0.179 C 
ENDROOT
BRANCH  10  16
ATOM      8  N   UNL     1      16.173  -5.982  27.065  0.00  0.00    -0.340 N 
ATOM      9  N   UNL     1      17.552  -7.711  26.866  0.00  0.00    -0.238 NA
ATOM     16  C   UNL     1      17.037  -6.667  26.256  0.00  0.00    +0.130 A 
ATOM     19  C   UNL     1      16.136  -6.631  28.267  0.00  0.00    +0.066 A 
ATOM     20  C   UNL     1      16.995  -7.694  28.119  0.00  0.00    +0.139 A 
ATOM     33  H   UNL     1      15.655  -5.151  26.808  0.00  0.00    +0.167 HD
BRANCH  19  23
ATOM     23  C   UNL     1      15.329  -6.196  29.377  0.00  0.00    -0.000 A 
ATOM     28  C   UNL     1      15.784  -5.178  30.213  0.00  0.00    +0.010 A 
ATOM     29  C   UNL     1      14.090  -6.794  29.614  0.00  0.00    +0.010 A 
ATOM     30  C   UNL     1      15.002  -4.756  31.288  0.00  0.00    +0.001 A 
ATOM     31  C   UNL     1      13.308  -6.372  30.690  0.00  0.00    +0.001 A 
ATOM     32  C   UNL     1      13.763  -5.353  31.527  0.00  0.00    +0.000 A 
ENDBRANCH  19  23
ENDBRANCH  10  16
BRANCH  14  13
ATOM     13  C   UNL     1      17.903  -2.411  24.861  0.00  0.00    +0.265 C 
BRANCH  13  17
ATOM     17  C   UNL     1      18.595  -2.247  26.200  0.00  0.00    +0.002 A 
ATOM     21  C   UNL     1      18.002  -2.747  27.359  0.00  0.00    +0.007 A 
ATOM     22  C   UNL     1      19.827  -1.596  26.272  0.00  0.00    +0.007 A 
ATOM     25  C   UNL     1      18.639  -2.595  28.590  0.00  0.00    +0.000 A 
ATOM     26  C   UNL     1      20.464  -1.446  27.503  0.00  0.00    +0.000 A 
ATOM     27  C   UNL     1      19.871  -1.944  28.663  0.00  0.00    +0.000 A 
ENDBRANCH  13  17
BRANCH  13  18
ATOM      1  F   UNL     1      16.170  -0.983  25.631  0.00  0.00    -0.167 F 
ATOM      2  F   UNL     1      16.144  -1.525  23.520  0.00  0.00    -0.167 F 
ATOM      3  F   UNL     1      17.642  -0.129  24.271  0.00  0.00    -0.167 F 
ATOM     18  C   UNL     1      16.957  -1.258  24.565  0.00  0.00    +0.431 C 
ENDBRANCH  13  18
BRANCH  13   5
ATOM      5  O   UNL     1      18.848  -2.499  23.794  0.00  0.00    -0.356 OA
ATOM     24  C   UNL     1      18.198  -2.628  22.540  0.00  0.00    +0.196 C 
ENDBRANCH  13   5
ENDBRANCH  14  13
TORSDOF 6
ENDMDL
MODEL 3
REMARK VINA RESULT:      -6.3     15.174     18.288
REMARK  Name = 56776058
REMARK  7 active torsions:
REMARK  status: ('A' for Active; 'I' for Inactive)
REMARK    1  A    between atoms: O_5  and  C_13
REMARK    2  A    between atoms: O_5  and  C_24
REMARK    3  A    between atoms: C_10  and  C_16
REMARK    4  A    between atoms: C_13  and  C_14
REMARK    5  A    between atoms: C_13  and  C_17
REMARK    6  A    between atoms: C_13  and  C_18
REMARK    7  A    between atoms: C_19  and  C_23
REMARK                            x       y       z     vdW  Elec       q    Type
REMARK                         _______ _______ _______ _____ _____    ______ ____
ROOT
ATOM      4  O   UNL     1      15.133   8.882   2.209  0.00  0.00    -0.376 OA
ATOM      6  O   UNL     1      12.470   4.674   2.198  0.00  0.00    -0.272 OA
ATOM      7  N   UNL     1      13.100   6.912   2.080  0.00  0.00    -0.284 N 
ATOM     10  C   UNL     1      14.219   6.744   3.030  0.00  0.00    +0.168 C 
ATOM     11  C   UNL     1      12.874   8.279   1.593  0.00  0.00    +0.136 C 
ATOM     12  C   UNL     1      15.456   7.541   2.576  0.00  0.00    +0.190 C 
ATOM     14  C   UNL     1      12.276   5.821   1.787  0.00  0.00    +0.262 C 
ATOM     15  C   UNL     1      14.181   8.914   1.147  0.00  0.00    +0.179 C 
ENDROOT
BRANCH  10  16
ATOM      8  N   UNL     1      12.493   6.796   4.869  0.00  0.00    -0.340 N 
ATOM      9  N   UNL     1      14.533   7.450   5.450  0.00  0.00    -0.238 NA
ATOM     16  C   UNL     1      13.783   7.009   4.467  0.00  0.00    +0.130 A 
ATOM     19  C   UNL     1      12.418   7.123   6.194  0.00  0.00    +0.066 A 
ATOM     20  C   UNL     1      13.690   7.524   6.529  0.00  0.00    +0.139 A 
ATOM     33  H   UNL     1      11.741   6.451   4.286  0.00  0.00    +0.167 HD
BRANCH  19  23
ATOM     23  C   UNL     1      11.207   7.026   6.966  0.00  0.00    -0.000 A 
ATOM     28  C   UNL     1      10.281   8.068   6.944  0.00  0.00    +0.010 A 
ATOM     29  C   UNL     1      10.960   5.888   7.735  0.00  0.00    +0.010 A 
ATOM     30  C   UNL     1       9.108   7.974   7.691  0.00  0.00    +0.001 A 
ATOM     31  C   UNL     1       9.786   5.795   8.484  0.00  0.00    +0.001 A 
ATOM     32  C   UNL     1       8.860   6.837   8.462  0.00  0.00    +0.000 A 
ENDBRANCH  19  23
ENDBRANCH  10  16
BRANCH  14  13
ATOM     13  C   UNL     1      11.083   6.094   0.906  0.00  0.00    +0.265 C 
BRANCH  13  17
ATOM     17  C   UNL     1      10.056   6.962   1.607  0.00  0.00    +0.002 A 
ATOM     21  C   UNL     1       9.438   8.006   0.919  0.00  0.00    +0.007 A 
ATOM     22  C   UNL     1       9.729   6.715   2.940  0.00  0.00    +0.007 A 
ATOM     25  C   UNL     1       8.494   8.805   1.565  0.00  0.00    +0.000 A 
ATOM     26  C   UNL     1       8.785   7.513   3.585  0.00  0.00    +0.000 A 
ATOM     27  C   UNL     1       8.167   8.558   2.898  0.00  0.00    +0.000 A 
ENDBRANCH  13  17
BRANCH  13  18
ATOM      1  F   UNL     1       9.835   4.135   1.395  0.00  0.00    -0.167 F 
ATOM      2  F   UNL     1      11.418   3.956  -0.092  0.00  0.00    -0.167 F 
ATOM      3  F   UNL     1       9.576   5.020  -0.578  0.00  0.00    -0.167 F 
ATOM     18  C   UNL     1      10.479   4.792   0.403  0.00  0.00    +0.431 C 
ENDBRANCH  13  18
BRANCH  13   5
ATOM      5  O   UNL     1      11.666   6.774  -0.206  0.00  0.00    -0.356 OA
ATOM     24  C   UNL     1      12.464   5.897  -0.985  0.00  0.00    +0.196 C 
ENDBRANCH  13   5
ENDBRANCH  14  13
TORSDOF 6
ENDMDL
MODEL 4
REMARK VINA RESULT:      -6.2     14.708     17.721
REMARK  Name = 56776058
REMARK  7 active torsions:
REMARK  status: ('A' for Active; 'I' for Inactive)
REMARK    1  A    between atoms: O_5  and  C_13
REMARK    2  A    between atoms: O_5  and  C_24
REMARK    3  A    between atoms: C_10  and  C_16
REMARK    4  A    between atoms: C_13  and  C_14
REMARK    5  A    between atoms: C_13  and  C_17
REMARK    6  A    between atoms: C_13  and  C_18
REMARK    7  A    between atoms: C_19  and  C_23
REMARK                            x       y       z     vdW  Elec       q    Type
REMARK                         _______ _______ _______ _____ _____    ______ ____
ROOT
ATOM      4  O   UNL     1      20.133  -5.162  28.346  0.00  0.00    -0.376 OA
ATOM      6  O   UNL     1      18.864  -7.552  24.167  0.00  0.00    -0.272 OA
ATOM      7  N   UNL     1      19.271  -5.894  25.748  0.00  0.00    -0.284 N 
ATOM     10  C   UNL     1      18.973  -6.780  26.892  0.00  0.00    +0.168 C 
ATOM     11  C   UNL     1      19.592  -4.501  26.085  0.00  0.00    +0.136 C 
ATOM     12  C   UNL     1      19.964  -6.548  28.046  0.00  0.00    +0.190 C 
ATOM     14  C   UNL     1      19.134  -6.380  24.445  0.00  0.00    +0.262 C 
ATOM     15  C   UNL     1      20.610  -4.441  27.212  0.00  0.00    +0.179 C 
ENDROOT
BRANCH  10  16
ATOM      8  N   UNL     1      17.118  -6.224  28.509  0.00  0.00    -0.340 N 
ATOM      9  N   UNL     1      16.471  -7.080  26.565  0.00  0.00    -0.238 NA
ATOM     16  C   UNL     1      17.502  -6.709  27.289  0.00  0.00    +0.130 A 
ATOM     19  C   UNL     1      15.754  -6.291  28.565  0.00  0.00    +0.066 A 
ATOM     20  C   UNL     1      15.379  -6.823  27.354  0.00  0.00    +0.139 A 
ATOM     33  H   UNL     1      17.737  -5.874  29.229  0.00  0.00    +0.167 HD
BRANCH  19  23
ATOM     23  C   UNL     1      14.986  -5.865  29.705  0.00  0.00    -0.000 A 
ATOM     28  C   UNL     1      15.439  -4.810  30.496  0.00  0.00    +0.010 A 
ATOM     29  C   UNL     1      13.788  -6.509  30.018  0.00  0.00    +0.010 A 
ATOM     30  C   UNL     1      14.695  -4.397  31.600  0.00  0.00    +0.001 A 
ATOM     31  C   UNL     1      13.044  -6.095  31.124  0.00  0.00    +0.001 A 
ATOM     32  C   UNL     1      13.497  -5.040  31.915  0.00  0.00    +0.000 A 
ENDBRANCH  19  23
ENDBRANCH  10  16
BRANCH  14  13
ATOM     13  C   UNL     1      19.337  -5.388  23.328  0.00  0.00    +0.265 C 
BRANCH  13  17
ATOM     17  C   UNL     1      18.265  -4.315  23.330  0.00  0.00    +0.002 A 
ATOM     21  C   UNL     1      17.003  -4.590  23.857  0.00  0.00    +0.007 A 
ATOM     22  C   UNL     1      18.541  -3.053  22.805  0.00  0.00    +0.007 A 
ATOM     25  C   UNL     1      16.017  -3.604  23.858  0.00  0.00    +0.000 A 
ATOM     26  C   UNL     1      17.555  -2.066  22.807  0.00  0.00    +0.000 A 
ATOM     27  C   UNL     1      16.293  -2.341  23.333  0.00  0.00    +0.000 A 
ENDBRANCH  13  17
BRANCH  13  18
ATOM      1  F   UNL     1      19.911  -5.280  21.027  0.00  0.00    -0.167 F 
ATOM      2  F   UNL     1      18.219  -6.542  21.568  0.00  0.00    -0.167 F 
ATOM      3  F   UNL     1      20.251  -7.169  22.057  0.00  0.00    -0.167 F 
ATOM     18  C   UNL     1      19.425  -6.100  21.987  0.00  0.00    +0.431 C 
ENDBRANCH  13  18
BRANCH  13   5
ATOM      5  O   UNL     1      20.621  -4.839  23.628  0.00  0.00    -0.356 OA
ATOM     24  C   UNL     1      21.646  -5.803  23.450  0.00  0.00    +0.196 C 
ENDBRANCH  13   5
ENDBRANCH  14  13
TORSDOF 6
ENDMDL
MODEL 5
REMARK VINA RESULT:      -6.2     28.280     31.077
REMARK  Name = 56776058
REMARK  7 active torsions:
REMARK  status: ('A' for Active; 'I' for Inactive)
REMARK    1  A    between atoms: O_5  and  C_13
REMARK    2  A    between atoms: O_5  and  C_24
REMARK    3  A    between atoms: C_10  and  C_16
REMARK    4  A    between atoms: C_13  and  C_14
REMARK    5  A    between atoms: C_13  and  C_17
REMARK    6  A    between atoms: C_13  and  C_18
REMARK    7  A    between atoms: C_19  and  C_23
REMARK                            x       y       z     vdW  Elec       q    Type
REMARK                         _______ _______ _______ _____ _____    ______ ____
ROOT
ATOM      4  O   UNL     1     -13.132 -11.105  19.131  0.00  0.00    -0.376 OA
ATOM      6  O   UNL     1     -10.209  -7.304  17.789  0.00  0.00    -0.272 OA
ATOM      7  N   UNL     1     -11.524  -9.223  17.751  0.00  0.00    -0.284 N 
ATOM     10  C   UNL     1     -11.177  -9.602  19.136  0.00  0.00    +0.168 C 
ATOM     11  C   UNL     1     -12.396 -10.161  17.030  0.00  0.00    +0.136 C 
ATOM     12  C   UNL     1     -12.409 -10.135  19.890  0.00  0.00    +0.190 C 
ATOM     14  C   UNL     1     -10.940  -8.089  17.180  0.00  0.00    +0.262 C 
ATOM     15  C   UNL     1     -13.583 -10.561  17.892  0.00  0.00    +0.179 C 
ENDROOT
BRANCH  10  16
ATOM      8  N   UNL     1      -8.760 -10.132  18.642  0.00  0.00    -0.340 N 
ATOM      9  N   UNL     1      -9.891 -11.719  19.706  0.00  0.00    -0.238 NA
ATOM     16  C   UNL     1      -9.957 -10.516  19.180  0.00  0.00    +0.130 A 
ATOM     19  C   UNL     1      -7.876 -11.156  18.836  0.00  0.00    +0.066 A 
ATOM     20  C   UNL     1      -8.598 -12.123  19.494  0.00  0.00    +0.139 A 
ATOM     33  H   UNL     1      -8.572  -9.246  18.190  0.00  0.00    +0.167 HD
BRANCH  19  23
ATOM     23  C   UNL     1      -6.506 -11.112  18.398  0.00  0.00    -0.000 A 
ATOM     28  C   UNL     1      -5.530 -11.829  19.090  0.00  0.00    +0.010 A 
ATOM     29  C   UNL     1      -6.155 -10.354  17.281  0.00  0.00    +0.010 A 
ATOM     30  C   UNL     1      -4.202 -11.788  18.665  0.00  0.00    +0.001 A 
ATOM     31  C   UNL     1      -4.826 -10.313  16.857  0.00  0.00    +0.001 A 
ATOM     32  C   UNL     1      -3.850 -11.029  17.548  0.00  0.00    +0.000 A 
ENDBRANCH  19  23
ENDBRANCH  10  16
BRANCH  14  13
ATOM     13  C   UNL     1     -11.246  -7.831  15.725  0.00  0.00    +0.265 C 
BRANCH  13  17
ATOM     17  C   UNL     1     -10.459  -8.755  14.816  0.00  0.00    +0.002 A 
ATOM     21  C   UNL     1     -11.011  -9.183  13.609  0.00  0.00    +0.007 A 
ATOM     22  C   UNL     1      -9.182  -9.176  15.187  0.00  0.00    +0.007 A 
ATOM     25  C   UNL     1     -10.287 -10.034  12.773  0.00  0.00    +0.000 A 
ATOM     26  C   UNL     1      -8.458 -10.026  14.351  0.00  0.00    +0.000 A 
ATOM     27  C   UNL     1      -9.010 -10.455  13.144  0.00  0.00    +0.000 A 
ENDBRANCH  13  17
BRANCH  13  18
ATOM      1  F   UNL     1      -9.701  -6.091  15.252  0.00  0.00    -0.167 F 
ATOM      2  F   UNL     1     -11.514  -5.542  16.330  0.00  0.00    -0.167 F 
ATOM      3  F   UNL     1     -11.613  -6.044  14.210  0.00  0.00    -0.167 F 
ATOM     18  C   UNL     1     -11.020  -6.367  15.381  0.00  0.00    +0.431 C 
ENDBRANCH  13  18
BRANCH  13   5
ATOM      5  O   UNL     1     -12.647  -8.097  15.649  0.00  0.00    -0.356 OA
ATOM     24  C   UNL     1     -13.407  -6.942  15.967  0.00  0.00    +0.196 C 
ENDBRANCH  13   5
ENDBRANCH  14  13
TORSDOF 6
ENDMDL
MODEL 6
REMARK VINA RESULT:      -6.1     16.254     19.506
REMARK  Name = 56776058
REMARK  7 active torsions:
REMARK  status: ('A' for Active; 'I' for Inactive)
REMARK    1  A    between atoms: O_5  and  C_13
REMARK    2  A    between atoms: O_5  and  C_24
REMARK    3  A    between atoms: C_10  and  C_16
REMARK    4  A    between atoms: C_13  and  C_14
REMARK    5  A    between atoms: C_13  and  C_17
REMARK    6  A    between atoms: C_13  and  C_18
REMARK    7  A    between atoms: C_19  and  C_23
REMARK                            x       y       z     vdW  Elec       q    Type
REMARK                         _______ _______ _______ _____ _____    ______ ____
ROOT
ATOM      4  O   UNL     1       9.129   7.636  -0.435  0.00  0.00    -0.376 OA
ATOM      6  O   UNL     1      13.145   6.839   2.400  0.00  0.00    -0.272 OA
ATOM      7  N   UNL     1      11.242   6.530   1.096  0.00  0.00    -0.284 N 
ATOM     10  C   UNL     1      10.636   7.812   1.509  0.00  0.00    +0.168 C 
ATOM     11  C   UNL     1      10.430   5.698   0.198  0.00  0.00    +0.136 C 
ATOM     12  C   UNL     1       9.965   8.517   0.316  0.00  0.00    +0.190 C 
ATOM     14  C   UNL     1      12.466   6.137   1.646  0.00  0.00    +0.262 C 
ATOM     15  C   UNL     1       9.871   6.529  -0.946  0.00  0.00    +0.179 C 
ENDROOT
BRANCH  10  16
ATOM      8  N   UNL     1      10.197   7.016   3.862  0.00  0.00    -0.340 N 
ATOM      9  N   UNL     1       8.504   8.054   2.870  0.00  0.00    -0.238 NA
ATOM     16  C   UNL     1       9.746   7.645   2.735  0.00  0.00    +0.130 A 
ATOM     19  C   UNL     1       9.178   7.024   4.772  0.00  0.00    +0.066 A 
ATOM     20  C   UNL     1       8.144   7.670   4.136  0.00  0.00    +0.139 A 
ATOM     33  H   UNL     1      11.122   6.625   3.991  0.00  0.00    +0.167 HD
BRANCH  19  23
ATOM     23  C   UNL     1       9.284   6.446   6.086  0.00  0.00    -0.000 A 
ATOM     28  C   UNL     1       8.896   7.181   7.205  0.00  0.00    +0.010 A 
ATOM     29  C   UNL     1       9.776   5.149   6.239  0.00  0.00    +0.010 A 
ATOM     30  C   UNL     1       8.998   6.621   8.478  0.00  0.00    +0.001 A 
ATOM     31  C   UNL     1       9.879   4.589   7.513  0.00  0.00    +0.001 A 
ATOM     32  C   UNL     1       9.490   5.324   8.632  0.00  0.00    +0.000 A 
ENDBRANCH  19  23
ENDBRANCH  10  16
BRANCH  14  13
ATOM     13  C   UNL     1      12.964   4.763   1.273  0.00  0.00    +0.265 C 
BRANCH  13  17
ATOM     17  C   UNL     1      13.133   4.617  -0.227  0.00  0.00    +0.002 A 
ATOM     21  C   UNL     1      13.675   5.663  -0.974  0.00  0.00    +0.007 A 
ATOM     22  C   UNL     1      12.746   3.436  -0.860  0.00  0.00    +0.007 A 
ATOM     25  C   UNL     1      13.829   5.528  -2.354  0.00  0.00    +0.000 A 
ATOM     26  C   UNL     1      12.901   3.301  -2.240  0.00  0.00    +0.000 A 
ATOM     27  C   UNL     1      13.442   4.347  -2.987  0.00  0.00    +0.000 A 
ENDBRANCH  13  17
BRANCH  13  18
ATOM      1  F   UNL     1      12.729   2.529   2.040  0.00  0.00    -0.167 F 
ATOM      2  F   UNL     1      11.010   3.420   1.038  0.00  0.00    -0.167 F 
ATOM      3  F   UNL     1      11.558   4.064   3.049  0.00  0.00    -0.167 F 
ATOM     18  C   UNL     1      12.057   3.688   1.850  0.00  0.00    +0.431 C 
ENDBRANCH  13  18
BRANCH  13   5
ATOM      5  O   UNL     1      14.222   4.695   1.946  0.00  0.00    -0.356 OA
ATOM     24  C   UNL     1      15.073   3.730   1.349  0.00  0.00    +0.196 C 
ENDBRANCH  13   5
ENDBRANCH  14  13
TORSDOF 6
ENDMDL
MODEL 7
REMARK VINA RESULT:      -6.0     12.182     15.147
REMARK  Name = 56776058
REMARK  7 active torsions:
REMARK  status: ('A' for Active; 'I' for Inactive)
REMARK    1  A    between atoms: O_5  and  C_13
REMARK    2  A    between atoms: O_5  and  C_24
REMARK    3  A    between atoms: C_10  and  C_16
REMARK    4  A    between atoms: C_13  and  C_14
REMARK    5  A    between atoms: C_13  and  C_17
REMARK    6  A    between atoms: C_13  and  C_18
REMARK    7  A    between atoms: C_19  and  C_23
REMARK                            x       y       z     vdW  Elec       q    Type
REMARK                         _______ _______ _______ _____ _____    ______ ____
ROOT
ATOM      4  O   UNL     1      14.295   8.802   3.569  0.00  0.00    -0.376 OA
ATOM      6  O   UNL     1      11.505   6.227   6.789  0.00  0.00    -0.272 OA
ATOM      7  N   UNL     1      12.194   7.597   5.040  0.00  0.00    -0.284 N 
ATOM     10  C   UNL     1      13.416   8.039   5.742  0.00  0.00    +0.168 C 
ATOM     11  C   UNL     1      11.957   8.206   3.724  0.00  0.00    +0.136 C 
ATOM     12  C   UNL     1      14.614   8.113   4.778  0.00  0.00    +0.190 C 
ATOM     14  C   UNL     1      11.301   6.736   5.684  0.00  0.00    +0.262 C 
ATOM     15  C   UNL     1      13.220   8.167   2.879  0.00  0.00    +0.179 C 
ENDROOT
BRANCH  10  16
ATOM      8  N   UNL     1      12.169   9.375   7.481  0.00  0.00    -0.340 N 
ATOM      9  N   UNL     1      13.845  10.432   6.480  0.00  0.00    -0.238 NA
ATOM     16  C   UNL     1      13.172   9.306   6.554  0.00  0.00    +0.130 A 
ATOM     19  C   UNL     1      12.205  10.625   8.032  0.00  0.00    +0.066 A 
ATOM     20  C   UNL     1      13.248  11.258   7.398  0.00  0.00    +0.139 A 
ATOM     33  H   UNL     1      11.526   8.628   7.714  0.00  0.00    +0.167 HD
BRANCH  19  23
ATOM     23  C   UNL     1      11.291  11.067   9.052  0.00  0.00    -0.000 A 
ATOM     28  C   UNL     1      11.766  11.786  10.149  0.00  0.00    +0.010 A 
ATOM     29  C   UNL     1       9.931  10.778   8.943  0.00  0.00    +0.010 A 
ATOM     30  C   UNL     1      10.881  12.216  11.137  0.00  0.00    +0.001 A 
ATOM     31  C   UNL     1       9.045  11.208   9.932  0.00  0.00    +0.001 A 
ATOM     32  C   UNL     1       9.520  11.926  11.029  0.00  0.00    +0.000 A 
ENDBRANCH  19  23
ENDBRANCH  10  16
BRANCH  14  13
ATOM     13  C   UNL     1      10.018   6.424   4.956  0.00  0.00    +0.265 C 
BRANCH  13  17
ATOM     17  C   UNL     1       9.136   7.651   4.826  0.00  0.00    +0.002 A 
ATOM     21  C   UNL     1       9.070   8.577   5.866  0.00  0.00    +0.007 A 
ATOM     22  C   UNL     1       8.390   7.853   3.664  0.00  0.00    +0.007 A 
ATOM     25  C   UNL     1       8.258   9.705   5.746  0.00  0.00    +0.000 A 
ATOM     26  C   UNL     1       7.579   8.981   3.544  0.00  0.00    +0.000 A 
ATOM     27  C   UNL     1       7.512   9.907   4.585  0.00  0.00    +0.000 A 
ENDBRANCH  13  17
BRANCH  13  18
ATOM      1  F   UNL     1       8.933   5.581   6.892  0.00  0.00    -0.167 F 
ATOM      2  F   UNL     1      10.051   4.155   5.682  0.00  0.00    -0.167 F 
ATOM      3  F   UNL     1       8.156   4.955   4.955  0.00  0.00    -0.167 F 
ATOM     18  C   UNL     1       9.289   5.269   5.624  0.00  0.00    +0.431 C 
ENDBRANCH  13  18
BRANCH  13   5
ATOM      5  O   UNL     1      10.483   5.981   3.681  0.00  0.00    -0.356 OA
ATOM     24  C   UNL     1      10.857   4.613   3.716  0.00  0.00    +0.196 C 
ENDBRANCH  13   5
ENDBRANCH  14  13
TORSDOF 6
ENDMDL
MODEL 8
REMARK VINA RESULT:      -6.0     14.073     17.345
REMARK  Name = 56776058
REMARK  7 active torsions:
REMARK  status: ('A' for Active; 'I' for Inactive)
REMARK    1  A    between atoms: O_5  and  C_13
REMARK    2  A    between atoms: O_5  and  C_24
REMARK    3  A    between atoms: C_10  and  C_16
REMARK    4  A    between atoms: C_13  and  C_14
REMARK    5  A    between atoms: C_13  and  C_17
REMARK    6  A    between atoms: C_13  and  C_18
REMARK    7  A    between atoms: C_19  and  C_23
REMARK                            x       y       z     vdW  Elec       q    Type
REMARK                         _______ _______ _______ _____ _____    ______ ____
ROOT
ATOM      4  O   UNL     1      11.605  11.226   6.634  0.00  0.00    -0.376 OA
ATOM      6  O   UNL     1       8.331   7.480   6.812  0.00  0.00    -0.272 OA
ATOM      7  N   UNL     1      10.097   8.867   6.202  0.00  0.00    -0.284 N 
ATOM     10  C   UNL     1       9.415  10.094   6.661  0.00  0.00    +0.168 C 
ATOM     11  C   UNL     1      11.412   9.061   5.577  0.00  0.00    +0.136 C 
ATOM     12  C   UNL     1      10.397  11.041   7.373  0.00  0.00    +0.190 C 
ATOM     14  C   UNL     1       9.435   7.638   6.285  0.00  0.00    +0.262 C 
ATOM     15  C   UNL     1      12.276   9.986   6.418  0.00  0.00    +0.179 C 
ENDROOT
BRANCH  10  16
ATOM      8  N   UNL     1       7.827   9.990   4.703  0.00  0.00    -0.340 N 
ATOM      9  N   UNL     1       8.548  12.019   5.246  0.00  0.00    -0.238 NA
ATOM     16  C   UNL     1       8.605  10.739   5.541  0.00  0.00    +0.130 A 
ATOM     19  C   UNL     1       7.237  10.847   3.817  0.00  0.00    +0.066 A 
ATOM     20  C   UNL     1       7.697  12.093   4.173  0.00  0.00    +0.139 A 
ATOM     33  H   UNL     1       7.710   8.986   4.745  0.00  0.00    +0.167 HD
BRANCH  19  23
ATOM     23  C   UNL     1       6.341  10.417   2.776  0.00  0.00    -0.000 A 
ATOM     28  C   UNL     1       4.964  10.422   2.994  0.00  0.00    +0.010 A 
ATOM     29  C   UNL     1       6.852   9.995   1.548  0.00  0.00    +0.010 A 
ATOM     30  C   UNL     1       4.096  10.006   1.985  0.00  0.00    +0.001 A 
ATOM     31  C   UNL     1       5.983   9.578   0.538  0.00  0.00    +0.001 A 
ATOM     32  C   UNL     1       4.606   9.583   0.757  0.00  0.00    +0.000 A 
ENDBRANCH  19  23
ENDBRANCH  10  16
BRANCH  14  13
ATOM     13  C   UNL     1      10.143   6.447   5.688  0.00  0.00    +0.265 C 
BRANCH  13  17
ATOM     17  C   UNL     1      10.294   6.582   4.185  0.00  0.00    +0.002 A 
ATOM     21  C   UNL     1      11.448   6.118   3.555  0.00  0.00    +0.007 A 
ATOM     22  C   UNL     1       9.278   7.171   3.432  0.00  0.00    +0.007 A 
ATOM     25  C   UNL     1      11.588   6.243   2.173  0.00  0.00    +0.000 A 
ATOM     26  C   UNL     1       9.418   7.296   2.050  0.00  0.00    +0.000 A 
ATOM     27  C   UNL     1      10.572   6.832   1.420  0.00  0.00    +0.000 A 
ENDBRANCH  13  17
BRANCH  13  18
ATOM      1  F   UNL     1       8.236   5.051   5.463  0.00  0.00    -0.167 F 
ATOM      2  F   UNL     1       9.224   5.075   7.406  0.00  0.00    -0.167 F 
ATOM      3  F   UNL     1      10.168   4.076   5.712  0.00  0.00    -0.167 F 
ATOM     18  C   UNL     1       9.439   5.156   6.074  0.00  0.00    +0.431 C 
ENDBRANCH  13  18
BRANCH  13   5
ATOM      5  O   UNL     1      11.411   6.478   6.343  0.00  0.00    -0.356 OA
ATOM     24  C   UNL     1      11.281   6.203   7.729  0.00  0.00    +0.196 C 
ENDBRANCH  13   5
ENDBRANCH  14  13
TORSDOF 6
ENDMDL
MODEL 9
REMARK VINA RESULT:      -6.0     27.157     29.258
REMARK  Name = 56776058
REMARK  7 active torsions:
REMARK  status: ('A' for Active; 'I' for Inactive)
REMARK    1  A    between atoms: O_5  and  C_13
REMARK    2  A    between atoms: O_5  and  C_24
REMARK    3  A    between atoms: C_10  and  C_16
REMARK    4  A    between atoms: C_13  and  C_14
REMARK    5  A    between atoms: C_13  and  C_17
REMARK    6  A    between atoms: C_13  and  C_18
REMARK    7  A    between atoms: C_19  and  C_23
REMARK                            x       y       z     vdW  Elec       q    Type
REMARK                         _______ _______ _______ _____ _____    ______ ____
ROOT
ATOM      4  O   UNL     1      -2.651 -14.327  13.420  0.00  0.00    -0.376 OA
ATOM      6  O   UNL     1      -3.664 -10.303  16.171  0.00  0.00    -0.272 OA
ATOM      7  N   UNL     1      -3.865 -12.160  14.783  0.00  0.00    -0.284 N 
ATOM     10  C   UNL     1      -2.513 -11.996  14.212  0.00  0.00    +0.168 C 
ATOM     11  C   UNL     1      -4.664 -13.262  14.231  0.00  0.00    +0.136 C 
ATOM     12  C   UNL     1      -1.812 -13.357  14.047  0.00  0.00    +0.190 C 
ATOM     14  C   UNL     1      -4.340 -11.227  15.710  0.00  0.00    +0.262 C 
ATOM     15  C   UNL     1      -3.845 -14.541  14.170  0.00  0.00    +0.179 C 
ENDROOT
BRANCH  10  16
ATOM      8  N   UNL     1      -3.671 -10.993  12.207  0.00  0.00    -0.340 N 
ATOM      9  N   UNL     1      -1.531 -10.453  12.448  0.00  0.00    -0.238 NA
ATOM     16  C   UNL     1      -2.534 -11.134  12.954  0.00  0.00    +0.130 A 
ATOM     19  C   UNL     1      -3.372 -10.170  11.158  0.00  0.00    +0.066 A 
ATOM     20  C   UNL     1      -2.046  -9.851  11.328  0.00  0.00    +0.139 A 
ATOM     33  H   UNL     1      -4.567 -11.418  12.408  0.00  0.00    +0.167 HD
BRANCH  19  23
ATOM     23  C   UNL     1      -4.329  -9.792  10.151  0.00  0.00    -0.000 A 
ATOM     28  C   UNL     1      -5.183  -8.712  10.371  0.00  0.00    +0.010 A 
ATOM     29  C   UNL     1      -4.400 -10.505   8.954  0.00  0.00    +0.010 A 
ATOM     30  C   UNL     1      -6.109  -8.344   9.396  0.00  0.00    +0.001 A 
ATOM     31  C   UNL     1      -5.327 -10.138   7.978  0.00  0.00    +0.001 A 
ATOM     32  C   UNL     1      -6.181  -9.058   8.198  0.00  0.00    +0.000 A 
ENDBRANCH  19  23
ENDBRANCH  10  16
BRANCH  14  13
ATOM     13  C   UNL     1      -5.770 -11.388  16.159  0.00  0.00    +0.265 C 
BRANCH  13  17
ATOM     17  C   UNL     1      -6.745 -11.119  15.030  0.00  0.00    +0.002 A 
ATOM     21  C   UNL     1      -7.900 -11.890  14.905  0.00  0.00    +0.007 A 
ATOM     22  C   UNL     1      -6.487 -10.099  14.114  0.00  0.00    +0.007 A 
ATOM     25  C   UNL     1      -8.796 -11.643  13.865  0.00  0.00    +0.000 A 
ATOM     26  C   UNL     1      -7.383  -9.851  13.075  0.00  0.00    +0.000 A 
ATOM     27  C   UNL     1      -8.538 -10.623  12.949  0.00  0.00    +0.000 A 
ENDBRANCH  13  17
BRANCH  13  18
ATOM      1  F   UNL     1      -7.100 -10.990  18.085  0.00  0.00    -0.167 F 
ATOM      2  F   UNL     1      -6.343  -9.243  17.026  0.00  0.00    -0.167 F 
ATOM      3  F   UNL     1      -4.986 -10.479  18.205  0.00  0.00    -0.167 F 
ATOM     18  C   UNL     1      -6.052 -10.516  17.373  0.00  0.00    +0.431 C 
ENDBRANCH  13  18
BRANCH  13   5
ATOM      5  O   UNL     1      -5.816 -12.754  16.570  0.00  0.00    -0.356 OA
ATOM     24  C   UNL     1      -5.030 -12.969  17.732  0.00  0.00    +0.196 C 
ENDBRANCH  13   5
ENDBRANCH  14  13
TORSDOF 6
ENDMDL
MODEL 10
REMARK VINA RESULT:      -5.9     27.522     29.015
REMARK  Name = 56776058
REMARK  7 active torsions:
REMARK  status: ('A' for Active; 'I' for Inactive)
REMARK    1  A    between atoms: O_5  and  C_13
REMARK    2  A    between atoms: O_5  and  C_24
REMARK    3  A    between atoms: C_10  and  C_16
REMARK    4  A    between atoms: C_13  and  C_14
REMARK    5  A    between atoms: C_13  and  C_17
REMARK    6  A    between atoms: C_13  and  C_18
REMARK    7  A    between atoms: C_19  and  C_23
REMARK                            x       y       z     vdW  Elec       q    Type
REMARK                         _______ _______ _______ _____ _____    ______ ____
ROOT
ATOM      4  O   UNL     1      -1.728 -13.996  13.572  0.00  0.00    -0.376 OA
ATOM      6  O   UNL     1      -3.658 -10.328  16.332  0.00  0.00    -0.272 OA
ATOM      7  N   UNL     1      -3.412 -12.228  15.010  0.00  0.00    -0.284 N 
ATOM     10  C   UNL     1      -2.233 -11.694  14.298  0.00  0.00    +0.168 C 
ATOM     11  C   UNL     1      -3.885 -13.545  14.566  0.00  0.00    +0.136 C 
ATOM     12  C   UNL     1      -1.170 -12.788  14.089  0.00  0.00    +0.190 C 
ATOM     14  C   UNL     1      -4.059 -11.435  15.962  0.00  0.00    +0.262 C 
ATOM     15  C   UNL     1      -2.725 -14.521  14.446  0.00  0.00    +0.179 C 
ENDROOT
BRANCH  10  16
ATOM      8  N   UNL     1      -3.935 -10.612  12.783  0.00  0.00    -0.340 N 
ATOM      9  N   UNL     1      -1.834 -10.539  12.070  0.00  0.00    -0.238 NA
ATOM     16  C   UNL     1      -2.633 -10.943  13.032  0.00  0.00    +0.130 A 
ATOM     19  C   UNL     1      -3.969  -9.955  11.585  0.00  0.00    +0.066 A 
ATOM     20  C   UNL     1      -2.661  -9.922  11.165  0.00  0.00    +0.139 A 
ATOM     33  H   UNL     1      -4.723 -10.814  13.386  0.00  0.00    +0.167 HD
BRANCH  19  23
ATOM     23  C   UNL     1      -5.180  -9.451  10.992  0.00  0.00    -0.000 A 
ATOM     28  C   UNL     1      -5.128  -8.754   9.786  0.00  0.00    +0.010 A 
ATOM     29  C   UNL     1      -6.406  -9.660  11.625  0.00  0.00    +0.010 A 
ATOM     30  C   UNL     1      -6.301  -8.267   9.210  0.00  0.00    +0.001 A 
ATOM     31  C   UNL     1      -7.579  -9.172  11.050  0.00  0.00    +0.001 A 
ATOM     32  C   UNL     1      -7.527  -8.475   9.843  0.00  0.00    +0.000 A 
ENDBRANCH  19  23
ENDBRANCH  10  16
BRANCH  14  13
ATOM     13  C   UNL     1      -5.325 -11.995  16.561  0.00  0.00    +0.265 C 
BRANCH  13  17
ATOM     17  C   UNL     1      -6.429 -10.957  16.607  0.00  0.00    +0.002 A 
ATOM     21  C   UNL     1      -6.866 -10.457  17.834  0.00  0.00    +0.007 A 
ATOM     22  C   UNL     1      -7.009 -10.503  15.423  0.00  0.00    +0.007 A 
ATOM     25  C   UNL     1      -7.882  -9.502  17.876  0.00  0.00    +0.000 A 
ATOM     26  C   UNL     1      -8.025  -9.548  15.466  0.00  0.00    +0.000 A 
ATOM     27  C   UNL     1      -8.462  -9.048  16.692  0.00  0.00    +0.000 A 
ENDBRANCH  13  17
BRANCH  13  18
ATOM      1  F   UNL     1      -4.457 -13.807  17.826  0.00  0.00    -0.167 F 
ATOM      2  F   UNL     1      -6.184 -12.761  18.647  0.00  0.00    -0.167 F 
ATOM      3  F   UNL     1      -4.223 -11.805  18.652  0.00  0.00    -0.167 F 
ATOM     18  C   UNL     1      -5.051 -12.595  17.930  0.00  0.00    +0.431 C 
ENDBRANCH  13  18
BRANCH  13   5
ATOM      5  O   UNL     1      -5.649 -13.058  15.664  0.00  0.00    -0.356 OA
ATOM     24  C   UNL     1      -6.943 -13.577  15.928  0.00  0.00    +0.196 C 
ENDBRANCH  13   5
ENDBRANCH  14  13
TORSDOF 6
ENDMDL
