REMARK  Name = 11867292
REMARK  12 active torsions:
REMARK  status: ('A' for Active; 'I' for Inactive)
REMARK    1  A    between atoms: O_2  and  C_16
REMARK    2  A    between atoms: O_3  and  C_21
REMARK    3  A    between atoms: O_6  and  C_30
REMARK    4  A    between atoms: O_6  and  C_35
REMARK    5  A    between atoms: N_8  and  C_27
REMARK    6  A    between atoms: C_11  and  C_19
REMARK    7  A    between atoms: C_13  and  C_21
REMARK    8  A    between atoms: C_13  and  C_22
REMARK    9  A    between atoms: C_14  and  C_24
REMARK   10  A    between atoms: C_24  and  C_25
REMARK   11  A    between atoms: C_27  and  C_29
REMARK   12  A    between atoms: C_28  and  C_30
REMARK                            x       y       z     vdW  Elec       q    Type
REMARK                         _______ _______ _______ _____ _____    ______ ____
ROOT
ATOM      1  S   UNL     1      -0.598   3.266   0.199  0.00  0.00    -0.057 S 
ATOM      5  O   UNL     1       3.522   1.125  -0.236  0.00  0.00    -0.273 OA
ATOM      7  N   UNL     1       0.560   0.971  -0.087  0.00  0.00    -0.229 NA
ATOM      9  N   UNL     1       1.993   2.906   0.024  0.00  0.00    -0.263 N 
ATOM     11  C   UNL     1      -2.897  -0.682   0.347  0.00  0.00    -0.019 C 
ATOM     12  C   UNL     1      -3.658   0.556  -0.304  0.00  0.00    +0.011 C 
ATOM     13  C   UNL     1      -5.234   0.510  -0.299  0.00  0.00    +0.021 C 
ATOM     14  C   UNL     1      -1.378  -0.643  -0.149  0.00  0.00    +0.054 C 
ATOM     15  C   UNL     1      -3.540  -2.002  -0.152  0.00  0.00    +0.010 C 
ATOM     16  C   UNL     1      -5.707  -0.891  -0.779  0.00  0.00    +0.123 C 
ATOM     17  C   UNL     1      -3.068   1.910   0.191  0.00  0.00    +0.049 C 
ATOM     18  C   UNL     1      -5.055  -2.039  -0.018  0.00  0.00    +0.032 C 
ATOM     19  C   UNL     1      -2.934  -0.665   1.895  0.00  0.00    +0.012 C 
ATOM     20  C   UNL     1      -0.802   0.745  -0.024  0.00  0.00    +0.058 A 
ATOM     22  C   UNL     1      -5.775   1.555  -1.316  0.00  0.00    +0.016 C 
ATOM     23  C   UNL     1      -1.579   1.877   0.110  0.00  0.00    +0.015 A 
ATOM     26  C   UNL     1       0.784   2.262   0.027  0.00  0.00    +0.165 A 
ATOM     28  C   UNL     1       3.264   2.317  -0.105  0.00  0.00    +0.244 C 
ATOM     39  H   UNL     1       1.942   3.916   0.125  0.00  0.00    +0.157 HD
ENDROOT
BRANCH  16   2
ATOM      2  O   UNL     1      -7.125  -1.010  -0.664  0.00  0.00    -0.391 OA
ATOM     36  H   UNL     1      -7.378  -1.879  -1.018  0.00  0.00    +0.210 HD
ENDBRANCH  16   2
BRANCH  13  21
ATOM     21  C   UNL     1      -5.882   0.876   1.055  0.00  0.00    +0.165 C 
BRANCH  21   3
ATOM      3  O   UNL     1      -7.281   0.801   0.898  0.00  0.00    -0.394 OA
ATOM     37  H   UNL     1      -7.681   1.042   1.751  0.00  0.00    +0.209 HD
ENDBRANCH  21   3
ENDBRANCH  13  21
BRANCH  14  24
ATOM     24  C   UNL     1      -0.467  -1.690   0.505  0.00  0.00    +0.106 C 
BRANCH  24  25
ATOM      4  O   UNL     1       0.889  -1.577  -1.496  0.00  0.00    -0.276 OA
ATOM      8  N   UNL     1       1.517  -2.994   0.236  0.00  0.00    -0.311 N 
ATOM     25  C   UNL     1       0.703  -2.055  -0.380  0.00  0.00    +0.214 C 
ATOM     38  H   UNL     1       1.278  -3.322   1.168  0.00  0.00    +0.149 HD
BRANCH   8  27
ATOM     27  C   UNL     1       2.710  -3.530  -0.379  0.00  0.00    +0.141 C 
BRANCH  27  29
ATOM     10  N   UNL     1       5.957  -1.639  -0.806  0.00  0.00    -0.263 NA
ATOM     29  C   UNL     1       3.926  -2.713  -0.052  0.00  0.00    -0.012 A 
ATOM     31  C   UNL     1       4.170  -2.277   1.246  0.00  0.00    +0.008 A 
ATOM     32  C   UNL     1       4.843  -2.370  -1.034  0.00  0.00    +0.115 A 
ATOM     33  C   UNL     1       5.305  -1.523   1.519  0.00  0.00    +0.020 A 
ATOM     34  C   UNL     1       6.160  -1.234   0.467  0.00  0.00    +0.111 A 
ENDBRANCH  27  29
ENDBRANCH   8  27
ENDBRANCH  24  25
ENDBRANCH  14  24
BRANCH  28  30
ATOM     30  C   UNL     1       4.363   3.363  -0.064  0.00  0.00    +0.255 C 
BRANCH  30   6
ATOM      6  O   UNL     1       5.634   2.765  -0.206  0.00  0.00    -0.374 OA
ATOM     35  C   UNL     1       6.682   3.729  -0.171  0.00  0.00    +0.194 C 
ENDBRANCH  30   6
ENDBRANCH  28  30
TORSDOF 9
