REMARK  Name = 26763084
REMARK  8 active torsions:
REMARK  status: ('A' for Active; 'I' for Inactive)
REMARK    1  A    between atoms: O_3  and  C_23
REMARK    2  A    between atoms: O_3  and  C_28
REMARK    3  A    between atoms: N_7  and  C_11
REMARK    4  A    between atoms: C_10  and  C_15
REMARK    5  A    between atoms: C_15  and  C_17
REMARK    6  A    between atoms: C_17  and  C_20
REMARK    7  A    between atoms: C_18  and  C_23
REMARK    8  A    between atoms: C_24  and  C_25
REMARK                            x       y       z     vdW  Elec       q    Type
REMARK                         _______ _______ _______ _____ _____    ______ ____
ROOT
ATOM      1  O   UNL     1      -2.748   4.372  -0.092  0.00  0.00    -0.274 OA
ATOM      5  N   UNL     1      -0.040   1.960  -0.308  0.00  0.00    -0.285 NA
ATOM      6  N   UNL     1      -0.929   4.115   1.249  0.00  0.00    -0.313 N 
ATOM      9  C   UNL     1      -1.073   2.832  -0.874  0.00  0.00    +0.145 C 
ATOM     10  C   UNL     1       0.931   2.672   0.518  0.00  0.00    +0.075 C 
ATOM     11  C   UNL     1      -1.774   0.500  -0.771  0.00  0.00    +0.089 C 
ATOM     12  C   UNL     1      -2.125   1.850  -1.404  0.00  0.00    +0.052 C 
ATOM     13  C   UNL     1      -0.734   0.827   0.293  0.00  0.00    +0.107 C 
ATOM     14  C   UNL     1       0.249   3.392   1.674  0.00  0.00    +0.123 C 
ATOM     16  C   UNL     1      -1.673   3.811   0.133  0.00  0.00    +0.230 C 
ATOM     32  H   UNL     1      -1.313   4.799   1.894  0.00  0.00    +0.149 HD
ENDROOT
BRANCH  11   7
ATOM      4  O   UNL     1      -3.443  -1.388  -2.140  0.00  0.00    -0.270 OA
ATOM      7  N   UNL     1      -2.918  -0.180  -0.231  0.00  0.00    -0.307 N 
ATOM     24  C   UNL     1      -3.669  -1.082  -0.972  0.00  0.00    +0.244 C 
ATOM     33  H   UNL     1      -3.232   0.106   0.690  0.00  0.00    +0.149 HD
BRANCH  24  25
ATOM     25  C   UNL     1      -4.837  -1.681  -0.278  0.00  0.00    +0.037 A 
ATOM     26  C   UNL     1      -5.937  -2.120  -1.014  0.00  0.00    +0.013 A 
ATOM     27  C   UNL     1      -4.833  -1.807   1.111  0.00  0.00    +0.013 A 
ATOM     29  C   UNL     1      -7.034  -2.684  -0.362  0.00  0.00    +0.001 A 
ATOM     30  C   UNL     1      -5.929  -2.371   1.764  0.00  0.00    +0.001 A 
ATOM     31  C   UNL     1      -7.030  -2.809   1.027  0.00  0.00    +0.000 A 
ENDBRANCH  24  25
ENDBRANCH  11   7
BRANCH  10  15
ATOM     15  C   UNL     1       2.052   1.762   1.022  0.00  0.00    +0.029 C 
BRANCH  15  17
ATOM     17  C   UNL     1       2.800   1.081  -0.114  0.00  0.00    +0.097 C 
BRANCH  17  20
ATOM      2  O   UNL     1       4.131   0.149   1.626  0.00  0.00    -0.276 OA
ATOM      8  N   UNL     1       4.670  -0.439  -0.546  0.00  0.00    -0.296 N 
ATOM     18  C   UNL     1       5.856  -1.233  -0.215  0.00  0.00    +0.102 C 
ATOM     19  C   UNL     1       6.575  -1.390  -1.557  0.00  0.00    +0.026 C 
ATOM     20  C   UNL     1       3.925   0.226   0.414  0.00  0.00    +0.216 C 
ATOM     21  C   UNL     1       4.462  -0.377  -1.991  0.00  0.00    +0.108 C 
ATOM     22  C   UNL     1       5.436  -1.392  -2.570  0.00  0.00    +0.021 C 
BRANCH  18  23
ATOM     23  C   UNL     1       5.473  -2.579   0.396  0.00  0.00    +0.181 C 
BRANCH  23   3
ATOM      3  O   UNL     1       5.264  -2.400   1.784  0.00  0.00    -0.381 OA
ATOM     28  C   UNL     1       4.902  -3.618   2.425  0.00  0.00    +0.194 C 
ENDBRANCH  23   3
ENDBRANCH  18  23
ENDBRANCH  17  20
ENDBRANCH  15  17
ENDBRANCH  10  15
TORSDOF 7
