MODEL 1
REMARK VINA RESULT:      -7.7      0.000      0.000
REMARK  Name = 51137536
REMARK  7 active torsions:
REMARK  status: ('A' for Active; 'I' for Inactive)
REMARK    1  A    between atoms: N_4  and  C_12
REMARK    2  A    between atoms: N_7  and  C_25
REMARK    3  A    between atoms: N_7  and  C_28
REMARK    4  A    between atoms: N_7  and  C_29
REMARK    5  A    between atoms: C_8  and  C_13
REMARK    6  A    between atoms: C_12  and  C_14
REMARK    7  A    between atoms: C_17  and  C_21
REMARK                            x       y       z     vdW  Elec       q    Type
REMARK                         _______ _______ _______ _____ _____    ______ ____
ROOT
ATOM      4  N   UNL     1      12.668   9.623  20.501  0.00  0.00    -0.297 NA
ATOM      8  C   UNL     1      14.662   8.871  19.523  0.00  0.00    +0.092 C 
ATOM      9  C   UNL     1      13.568   8.974  18.447  0.00  0.00    +0.029 C 
ATOM     10  C   UNL     1      13.902   8.918  20.856  0.00  0.00    +0.097 C 
ATOM     11  C   UNL     1      12.258   9.045  19.221  0.00  0.00    +0.085 C 
ENDROOT
BRANCH   8  13
ATOM      1  O   UNL     1      16.714   7.676  20.125  0.00  0.00    -0.420 OA
ATOM      5  N   UNL     1      15.402   6.570  18.689  0.00  0.00    -0.112 NA
ATOM      6  N   UNL     1      16.514   5.789  18.941  0.00  0.00    -0.107 NA
ATOM     13  C   UNL     1      15.561   7.661  19.401  0.00  0.00    +0.222 A 
ATOM     17  C   UNL     1      17.252   6.474  19.783  0.00  0.00    +0.248 A 
BRANCH  17  21
ATOM     21  C   UNL     1      18.513   6.157  20.387  0.00  0.00    +0.039 A 
ATOM     23  C   UNL     1      18.973   6.900  21.475  0.00  0.00    +0.015 A 
ATOM     24  C   UNL     1      19.282   5.106  19.885  0.00  0.00    +0.015 A 
ATOM     25  C   UNL     1      20.968   5.539  21.562  0.00  0.00    +0.029 A 
ATOM     26  C   UNL     1      20.200   6.591  22.062  0.00  0.00    +0.024 A 
ATOM     27  C   UNL     1      20.509   4.797  20.473  0.00  0.00    +0.024 A 
BRANCH  25   7
ATOM      7  N   UNL     1      22.208   5.229  22.154  0.00  0.00    -0.336 N 
ATOM     28  C   UNL     1      23.315   6.162  22.072  0.00  0.00    +0.129 C 
ATOM     29  C   UNL     1      22.397   3.969  22.846  0.00  0.00    +0.129 C 
ENDBRANCH  25   7
ENDBRANCH  17  21
ENDBRANCH   8  13
BRANCH   4  12
ATOM     12  C   UNL     1      11.640   9.490  21.523  0.00  0.00    +0.119 C 
BRANCH  12  14
ATOM      2  O   UNL     1      10.545  12.203  25.516  0.00  0.00    -0.453 OA
ATOM      3  O   UNL     1      10.676  14.274  24.291  0.00  0.00    -0.453 OA
ATOM     14  C   UNL     1      11.385  10.794  22.234  0.00  0.00    -0.030 A 
ATOM     15  C   UNL     1      11.079  10.791  23.596  0.00  0.00    +0.054 A 
ATOM     16  C   UNL     1      11.461  12.002  21.519  0.00  0.00    +0.009 A 
ATOM     18  C   UNL     1      10.856  12.010  24.205  0.00  0.00    +0.167 A 
ATOM     19  C   UNL     1      11.232  13.222  22.159  0.00  0.00    +0.050 A 
ATOM     20  C   UNL     1      10.930  13.193  23.505  0.00  0.00    +0.166 A 
ATOM     22  C   UNL     1      10.434  13.640  25.563  0.00  0.00    +0.466 C 
ENDBRANCH  12  14
ENDBRANCH   4  12
TORSDOF 5
ENDMDL
MODEL 2
REMARK VINA RESULT:      -7.3     27.377     31.550
REMARK  Name = 51137536
REMARK  7 active torsions:
REMARK  status: ('A' for Active; 'I' for Inactive)
REMARK    1  A    between atoms: N_4  and  C_12
REMARK    2  A    between atoms: N_7  and  C_25
REMARK    3  A    between atoms: N_7  and  C_28
REMARK    4  A    between atoms: N_7  and  C_29
REMARK    5  A    between atoms: C_8  and  C_13
REMARK    6  A    between atoms: C_12  and  C_14
REMARK    7  A    between atoms: C_17  and  C_21
REMARK                            x       y       z     vdW  Elec       q    Type
REMARK                         _______ _______ _______ _____ _____    ______ ____
ROOT
ATOM      4  N   UNL     1     -17.021   2.780  26.945  0.00  0.00    -0.297 NA
ATOM      8  C   UNL     1     -16.454   4.385  25.332  0.00  0.00    +0.092 C 
ATOM      9  C   UNL     1     -17.966   4.112  25.277  0.00  0.00    +0.029 C 
ATOM     10  C   UNL     1     -15.876   3.215  26.140  0.00  0.00    +0.097 C 
ATOM     11  C   UNL     1     -18.158   2.799  26.025  0.00  0.00    +0.085 C 
ENDROOT
BRANCH   8  13
ATOM      1  O   UNL     1     -15.114   5.717  23.774  0.00  0.00    -0.420 OA
ATOM      5  N   UNL     1     -15.759   3.736  22.959  0.00  0.00    -0.112 NA
ATOM      6  N   UNL     1     -15.017   4.378  21.985  0.00  0.00    -0.107 NA
ATOM     13  C   UNL     1     -15.789   4.554  23.985  0.00  0.00    +0.222 A 
ATOM     17  C   UNL     1     -14.662   5.529  22.504  0.00  0.00    +0.248 A 
BRANCH  17  21
ATOM     21  C   UNL     1     -13.886   6.600  21.950  0.00  0.00    +0.039 A 
ATOM     23  C   UNL     1     -12.695   6.324  21.277  0.00  0.00    +0.015 A 
ATOM     24  C   UNL     1     -14.321   7.920  22.084  0.00  0.00    +0.015 A 
ATOM     25  C   UNL     1     -12.376   8.684  20.871  0.00  0.00    +0.029 A 
ATOM     26  C   UNL     1     -11.940   7.365  20.738  0.00  0.00    +0.024 A 
ATOM     27  C   UNL     1     -13.566   8.961  21.545  0.00  0.00    +0.024 A 
BRANCH  25   7
ATOM      7  N   UNL     1     -11.612   9.737  20.328  0.00  0.00    -0.336 N 
ATOM     28  C   UNL     1     -11.976  11.117  20.584  0.00  0.00    +0.129 C 
ATOM     29  C   UNL     1     -10.457   9.454  19.499  0.00  0.00    +0.129 C 
ENDBRANCH  25   7
ENDBRANCH  17  21
ENDBRANCH   8  13
BRANCH   4  12
ATOM     12  C   UNL     1     -16.813   1.469  27.542  0.00  0.00    +0.119 C 
BRANCH  12  14
ATOM      2  O   UNL     1     -16.051   3.664  31.912  0.00  0.00    -0.453 OA
ATOM      3  O   UNL     1     -14.521   1.951  32.639  0.00  0.00    -0.453 OA
ATOM     14  C   UNL     1     -16.178   1.567  28.904  0.00  0.00    -0.030 A 
ATOM     15  C   UNL     1     -16.482   2.648  29.734  0.00  0.00    +0.054 A 
ATOM     16  C   UNL     1     -15.284   0.567  29.328  0.00  0.00    +0.009 A 
ATOM     18  C   UNL     1     -15.878   2.693  30.974  0.00  0.00    +0.167 A 
ATOM     19  C   UNL     1     -14.686   0.637  30.589  0.00  0.00    +0.050 A 
ATOM     20  C   UNL     1     -15.003   1.715  31.390  0.00  0.00    +0.166 A 
ATOM     22  C   UNL     1     -15.189   3.187  32.964  0.00  0.00    +0.466 C 
ENDBRANCH  12  14
ENDBRANCH   4  12
TORSDOF 5
ENDMDL
MODEL 3
REMARK VINA RESULT:      -7.2     27.735     30.761
REMARK  Name = 51137536
REMARK  7 active torsions:
REMARK  status: ('A' for Active; 'I' for Inactive)
REMARK    1  A    between atoms: N_4  and  C_12
REMARK    2  A    between atoms: N_7  and  C_25
REMARK    3  A    between atoms: N_7  and  C_28
REMARK    4  A    between atoms: N_7  and  C_29
REMARK    5  A    between atoms: C_8  and  C_13
REMARK    6  A    between atoms: C_12  and  C_14
REMARK    7  A    between atoms: C_17  and  C_21
REMARK                            x       y       z     vdW  Elec       q    Type
REMARK                         _______ _______ _______ _____ _____    ______ ____
ROOT
ATOM      4  N   UNL     1      -2.312 -11.059  13.796  0.00  0.00    -0.297 NA
ATOM      8  C   UNL     1      -3.237 -10.338  15.826  0.00  0.00    +0.092 C 
ATOM      9  C   UNL     1      -1.760 -10.711  16.037  0.00  0.00    +0.029 C 
ATOM     10  C   UNL     1      -3.607 -10.963  14.474  0.00  0.00    +0.097 C 
ATOM     11  C   UNL     1      -1.385 -11.544  14.818  0.00  0.00    +0.085 C 
ENDROOT
BRANCH   8  13
ATOM      1  O   UNL     1      -5.452 -10.323  16.871  0.00  0.00    -0.420 OA
ATOM      5  N   UNL     1      -3.919 -11.499  17.999  0.00  0.00    -0.112 NA
ATOM      6  N   UNL     1      -5.111 -11.574  18.694  0.00  0.00    -0.107 NA
ATOM     13  C   UNL     1      -4.165 -10.759  16.943  0.00  0.00    +0.222 A 
ATOM     17  C   UNL     1      -5.977 -10.873  17.999  0.00  0.00    +0.248 A 
BRANCH  17  21
ATOM     21  C   UNL     1      -7.364 -10.603  18.242  0.00  0.00    +0.039 A 
ATOM     23  C   UNL     1      -8.035 -11.266  19.270  0.00  0.00    +0.015 A 
ATOM     24  C   UNL     1      -8.044  -9.678  17.448  0.00  0.00    +0.015 A 
ATOM     25  C   UNL     1     -10.064 -10.078  18.713  0.00  0.00    +0.029 A 
ATOM     26  C   UNL     1      -9.384 -11.004  19.506  0.00  0.00    +0.024 A 
ATOM     27  C   UNL     1      -9.393  -9.416  17.684  0.00  0.00    +0.024 A 
BRANCH  25   7
ATOM      7  N   UNL     1     -11.428  -9.814  18.950  0.00  0.00    -0.336 N 
ATOM     28  C   UNL     1     -12.007 -10.058  20.257  0.00  0.00    +0.129 C 
ATOM     29  C   UNL     1     -12.272  -9.304  17.888  0.00  0.00    +0.129 C 
ENDBRANCH  25   7
ENDBRANCH  17  21
ENDBRANCH   8  13
BRANCH   4  12
ATOM     12  C   UNL     1      -2.359 -11.933  12.632  0.00  0.00    +0.119 C 
BRANCH  12  14
ATOM      2  O   UNL     1      -5.266 -11.789   8.628  0.00  0.00    -0.453 OA
ATOM      3  O   UNL     1      -4.713  -9.489   8.164  0.00  0.00    -0.453 OA
ATOM     14  C   UNL     1      -2.971 -11.246  11.439  0.00  0.00    -0.030 A 
ATOM     15  C   UNL     1      -3.855 -11.945  10.615  0.00  0.00    +0.054 A 
ATOM     16  C   UNL     1      -2.648  -9.904  11.169  0.00  0.00    +0.009 A 
ATOM     18  C   UNL     1      -4.393 -11.272   9.537  0.00  0.00    +0.167 A 
ATOM     19  C   UNL     1      -3.207  -9.247  10.070  0.00  0.00    +0.050 A 
ATOM     20  C   UNL     1      -4.077  -9.959   9.271  0.00  0.00    +0.166 A 
ATOM     22  C   UNL     1      -5.464 -10.653   7.762  0.00  0.00    +0.466 C 
ENDBRANCH  12  14
ENDBRANCH   4  12
TORSDOF 5
ENDMDL
MODEL 4
REMARK VINA RESULT:      -7.2     28.211     31.778
REMARK  Name = 51137536
REMARK  7 active torsions:
REMARK  status: ('A' for Active; 'I' for Inactive)
REMARK    1  A    between atoms: N_4  and  C_12
REMARK    2  A    between atoms: N_7  and  C_25
REMARK    3  A    between atoms: N_7  and  C_28
REMARK    4  A    between atoms: N_7  and  C_29
REMARK    5  A    between atoms: C_8  and  C_13
REMARK    6  A    between atoms: C_12  and  C_14
REMARK    7  A    between atoms: C_17  and  C_21
REMARK                            x       y       z     vdW  Elec       q    Type
REMARK                         _______ _______ _______ _____ _____    ______ ____
ROOT
ATOM      4  N   UNL     1     -15.408   5.905  22.459  0.00  0.00    -0.297 NA
ATOM      8  C   UNL     1     -16.484   3.910  23.059  0.00  0.00    +0.092 C 
ATOM      9  C   UNL     1     -17.461   5.089  23.213  0.00  0.00    +0.029 C 
ATOM     10  C   UNL     1     -15.099   4.564  22.960  0.00  0.00    +0.097 C 
ATOM     11  C   UNL     1     -16.581   6.332  23.222  0.00  0.00    +0.085 C 
ENDROOT
BRANCH   8  13
ATOM      1  O   UNL     1     -16.260   3.276  25.414  0.00  0.00    -0.420 OA
ATOM      5  N   UNL     1     -16.897   1.601  24.075  0.00  0.00    -0.112 NA
ATOM      6  N   UNL     1     -16.812   1.109  25.364  0.00  0.00    -0.107 NA
ATOM     13  C   UNL     1     -16.567   2.869  24.152  0.00  0.00    +0.222 A 
ATOM     17  C   UNL     1     -16.436   2.121  26.110  0.00  0.00    +0.248 A 
BRANCH  17  21
ATOM     21  C   UNL     1     -16.188   2.195  27.521  0.00  0.00    +0.039 A 
ATOM     23  C   UNL     1     -15.814   3.407  28.102  0.00  0.00    +0.015 A 
ATOM     24  C   UNL     1     -16.319   1.053  28.313  0.00  0.00    +0.015 A 
ATOM     25  C   UNL     1     -15.705   2.338  30.265  0.00  0.00    +0.029 A 
ATOM     26  C   UNL     1     -15.573   3.480  29.473  0.00  0.00    +0.024 A 
ATOM     27  C   UNL     1     -16.077   1.126  29.684  0.00  0.00    +0.024 A 
BRANCH  25   7
ATOM      7  N   UNL     1     -15.459   2.411  31.651  0.00  0.00    -0.336 N 
ATOM     28  C   UNL     1     -15.920   3.550  32.420  0.00  0.00    +0.129 C 
ATOM     29  C   UNL     1     -14.735   1.351  32.325  0.00  0.00    +0.129 C 
ENDBRANCH  25   7
ENDBRANCH  17  21
ENDBRANCH   8  13
BRANCH   4  12
ATOM     12  C   UNL     1     -14.288   6.824  22.606  0.00  0.00    +0.119 C 
BRANCH  12  14
ATOM      2  O   UNL     1     -14.287   8.266  17.871  0.00  0.00    -0.453 OA
ATOM      3  O   UNL     1     -11.914   7.919  17.643  0.00  0.00    -0.453 OA
ATOM     14  C   UNL     1     -13.617   7.106  21.287  0.00  0.00    -0.030 A 
ATOM     15  C   UNL     1     -14.375   7.569  20.210  0.00  0.00    +0.054 A 
ATOM     16  C   UNL     1     -12.232   6.902  21.154  0.00  0.00    +0.009 A 
ATOM     18  C   UNL     1     -13.717   7.816  19.022  0.00  0.00    +0.167 A 
ATOM     19  C   UNL     1     -11.590   7.161  19.940  0.00  0.00    +0.050 A 
ATOM     20  C   UNL     1     -12.361   7.617  18.891  0.00  0.00    +0.166 A 
ATOM     22  C   UNL     1     -13.138   8.329  17.002  0.00  0.00    +0.466 C 
ENDBRANCH  12  14
ENDBRANCH   4  12
TORSDOF 5
ENDMDL
MODEL 5
REMARK VINA RESULT:      -7.1     27.124     31.182
REMARK  Name = 51137536
REMARK  7 active torsions:
REMARK  status: ('A' for Active; 'I' for Inactive)
REMARK    1  A    between atoms: N_4  and  C_12
REMARK    2  A    between atoms: N_7  and  C_25
REMARK    3  A    between atoms: N_7  and  C_28
REMARK    4  A    between atoms: N_7  and  C_29
REMARK    5  A    between atoms: C_8  and  C_13
REMARK    6  A    between atoms: C_12  and  C_14
REMARK    7  A    between atoms: C_17  and  C_21
REMARK                            x       y       z     vdW  Elec       q    Type
REMARK                         _______ _______ _______ _____ _____    ______ ____
ROOT
ATOM      4  N   UNL     1     -14.651   6.515  22.146  0.00  0.00    -0.297 NA
ATOM      8  C   UNL     1     -15.558   4.570  23.090  0.00  0.00    +0.092 C 
ATOM      9  C   UNL     1     -16.387   4.982  21.862  0.00  0.00    +0.029 C 
ATOM     10  C   UNL     1     -14.722   5.813  23.429  0.00  0.00    +0.097 C 
ATOM     11  C   UNL     1     -16.002   6.430  21.592  0.00  0.00    +0.085 C 
ENDROOT
BRANCH   8  13
ATOM      1  O   UNL     1     -15.669   3.599  25.336  0.00  0.00    -0.420 OA
ATOM      5  N   UNL     1     -17.668   4.007  24.417  0.00  0.00    -0.112 NA
ATOM      6  N   UNL     1     -17.877   3.466  25.672  0.00  0.00    -0.107 NA
ATOM     13  C   UNL     1     -16.366   4.067  24.264  0.00  0.00    +0.222 A 
ATOM     17  C   UNL     1     -16.683   3.244  26.170  0.00  0.00    +0.248 A 
BRANCH  17  21
ATOM     21  C   UNL     1     -16.290   2.694  27.435  0.00  0.00    +0.039 A 
ATOM     23  C   UNL     1     -16.445   1.330  27.683  0.00  0.00    +0.015 A 
ATOM     24  C   UNL     1     -15.754   3.525  28.420  0.00  0.00    +0.015 A 
ATOM     25  C   UNL     1     -15.526   1.625  29.897  0.00  0.00    +0.029 A 
ATOM     26  C   UNL     1     -16.063   0.795  28.913  0.00  0.00    +0.024 A 
ATOM     27  C   UNL     1     -15.372   2.990  29.650  0.00  0.00    +0.024 A 
BRANCH  25   7
ATOM      7  N   UNL     1     -15.142   1.086  31.141  0.00  0.00    -0.336 N 
ATOM     28  C   UNL     1     -15.000  -0.347  31.308  0.00  0.00    +0.129 C 
ATOM     29  C   UNL     1     -14.890   1.956  32.273  0.00  0.00    +0.129 C 
ENDBRANCH  25   7
ENDBRANCH  17  21
ENDBRANCH   8  13
BRANCH   4  12
ATOM     12  C   UNL     1     -14.197   7.891  22.291  0.00  0.00    +0.119 C 
BRANCH  12  14
ATOM      2  O   UNL     1     -11.514  11.016  19.546  0.00  0.00    -0.453 OA
ATOM      3  O   UNL     1     -10.098   9.253  18.711  0.00  0.00    -0.453 OA
ATOM     14  C   UNL     1     -13.088   8.221  21.326  0.00  0.00    -0.030 A 
ATOM     15  C   UNL     1     -12.887   9.543  20.927  0.00  0.00    +0.054 A 
ATOM     16  C   UNL     1     -12.262   7.192  20.839  0.00  0.00    +0.009 A 
ATOM     18  C   UNL     1     -11.857   9.796  20.045  0.00  0.00    +0.167 A 
ATOM     19  C   UNL     1     -11.226   7.475  19.947  0.00  0.00    +0.050 A 
ATOM     20  C   UNL     1     -11.048   8.790  19.567  0.00  0.00    +0.166 A 
ATOM     22  C   UNL     1     -10.399  10.663  18.702  0.00  0.00    +0.466 C 
ENDBRANCH  12  14
ENDBRANCH   4  12
TORSDOF 5
ENDMDL
MODEL 6
REMARK VINA RESULT:      -6.9     27.307     31.042
REMARK  Name = 51137536
REMARK  7 active torsions:
REMARK  status: ('A' for Active; 'I' for Inactive)
REMARK    1  A    between atoms: N_4  and  C_12
REMARK    2  A    between atoms: N_7  and  C_25
REMARK    3  A    between atoms: N_7  and  C_28
REMARK    4  A    between atoms: N_7  and  C_29
REMARK    5  A    between atoms: C_8  and  C_13
REMARK    6  A    between atoms: C_12  and  C_14
REMARK    7  A    between atoms: C_17  and  C_21
REMARK                            x       y       z     vdW  Elec       q    Type
REMARK                         _______ _______ _______ _____ _____    ______ ____
ROOT
ATOM      4  N   UNL     1     -13.553   6.419  21.251  0.00  0.00    -0.297 NA
ATOM      8  C   UNL     1     -15.355   5.132  22.023  0.00  0.00    +0.092 C 
ATOM      9  C   UNL     1     -15.639   6.622  22.278  0.00  0.00    +0.029 C 
ATOM     10  C   UNL     1     -13.849   5.068  21.734  0.00  0.00    +0.097 C 
ATOM     11  C   UNL     1     -14.286   7.310  22.150  0.00  0.00    +0.085 C 
ENDROOT
BRANCH   8  13
ATOM      1  O   UNL     1     -15.808   4.724  24.395  0.00  0.00    -0.420 OA
ATOM      5  N   UNL     1     -16.138   2.942  23.083  0.00  0.00    -0.112 NA
ATOM      6  N   UNL     1     -16.428   2.575  24.384  0.00  0.00    -0.107 NA
ATOM     13  C   UNL     1     -15.781   4.204  23.137  0.00  0.00    +0.222 A 
ATOM     17  C   UNL     1     -16.221   3.646  25.114  0.00  0.00    +0.248 A 
BRANCH  17  21
ATOM     21  C   UNL     1     -16.360   3.850  26.527  0.00  0.00    +0.039 A 
ATOM     23  C   UNL     1     -15.792   2.945  27.423  0.00  0.00    +0.015 A 
ATOM     24  C   UNL     1     -17.066   4.955  27.005  0.00  0.00    +0.015 A 
ATOM     25  C   UNL     1     -16.632   4.249  29.275  0.00  0.00    +0.029 A 
ATOM     26  C   UNL     1     -15.928   3.143  28.797  0.00  0.00    +0.024 A 
ATOM     27  C   UNL     1     -17.202   5.154  28.379  0.00  0.00    +0.024 A 
BRANCH  25   7
ATOM      7  N   UNL     1     -16.771   4.449  30.663  0.00  0.00    -0.336 N 
ATOM     28  C   UNL     1     -15.606   4.442  31.526  0.00  0.00    +0.129 C 
ATOM     29  C   UNL     1     -18.081   4.656  31.248  0.00  0.00    +0.129 C 
ENDBRANCH  25   7
ENDBRANCH  17  21
ENDBRANCH   8  13
BRANCH   4  12
ATOM     12  C   UNL     1     -12.125   6.701  21.235  0.00  0.00    +0.119 C 
BRANCH  12  14
ATOM      2  O   UNL     1     -10.674   7.919  16.662  0.00  0.00    -0.453 OA
ATOM      3  O   UNL     1     -10.754  10.280  17.138  0.00  0.00    -0.453 OA
ATOM     14  C   UNL     1     -11.761   7.691  20.159  0.00  0.00    -0.030 A 
ATOM     15  C   UNL     1     -11.385   7.232  18.895  0.00  0.00    +0.054 A 
ATOM     16  C   UNL     1     -11.807   9.068  20.437  0.00  0.00    +0.009 A 
ATOM     18  C   UNL     1     -11.063   8.177  17.941  0.00  0.00    +0.167 A 
ATOM     19  C   UNL     1     -11.477  10.004  19.453  0.00  0.00    +0.050 A 
ATOM     20  C   UNL     1     -11.108   9.525  18.213  0.00  0.00    +0.166 A 
ATOM     22  C   UNL     1     -10.481   9.257  16.159  0.00  0.00    +0.466 C 
ENDBRANCH  12  14
ENDBRANCH   4  12
TORSDOF 5
ENDMDL
MODEL 7
REMARK VINA RESULT:      -6.9     27.910     30.311
REMARK  Name = 51137536
REMARK  7 active torsions:
REMARK  status: ('A' for Active; 'I' for Inactive)
REMARK    1  A    between atoms: N_4  and  C_12
REMARK    2  A    between atoms: N_7  and  C_25
REMARK    3  A    between atoms: N_7  and  C_28
REMARK    4  A    between atoms: N_7  and  C_29
REMARK    5  A    between atoms: C_8  and  C_13
REMARK    6  A    between atoms: C_12  and  C_14
REMARK    7  A    between atoms: C_17  and  C_21
REMARK                            x       y       z     vdW  Elec       q    Type
REMARK                         _______ _______ _______ _____ _____    ______ ____
ROOT
ATOM      4  N   UNL     1      -3.093 -11.430  15.154  0.00  0.00    -0.297 NA
ATOM      8  C   UNL     1      -3.538 -11.453  12.852  0.00  0.00    +0.092 C 
ATOM      9  C   UNL     1      -2.235 -12.221  13.132  0.00  0.00    +0.029 C 
ATOM     10  C   UNL     1      -3.801 -10.651  14.135  0.00  0.00    +0.097 C 
ATOM     11  C   UNL     1      -1.820 -11.795  14.534  0.00  0.00    +0.085 C 
ENDROOT
BRANCH   8  13
ATOM      1  O   UNL     1      -4.670 -10.490  10.904  0.00  0.00    -0.420 OA
ATOM      5  N   UNL     1      -2.521  -9.895  11.098  0.00  0.00    -0.112 NA
ATOM      6  N   UNL     1      -3.033  -9.287   9.967  0.00  0.00    -0.107 NA
ATOM     13  C   UNL     1      -3.511 -10.587  11.613  0.00  0.00    +0.222 A 
ATOM     17  C   UNL     1      -4.289  -9.663   9.894  0.00  0.00    +0.248 A 
BRANCH  17  21
ATOM     21  C   UNL     1      -5.302  -9.342   8.931  0.00  0.00    +0.039 A 
ATOM     23  C   UNL     1      -6.321  -8.448   9.261  0.00  0.00    +0.015 A 
ATOM     24  C   UNL     1      -5.268  -9.924   7.663  0.00  0.00    +0.015 A 
ATOM     25  C   UNL     1      -7.272  -8.717   7.056  0.00  0.00    +0.029 A 
ATOM     26  C   UNL     1      -7.306  -8.136   8.325  0.00  0.00    +0.024 A 
ATOM     27  C   UNL     1      -6.253  -9.612   6.727  0.00  0.00    +0.024 A 
BRANCH  25   7
ATOM      7  N   UNL     1      -8.269  -8.403   6.111  0.00  0.00    -0.336 N 
ATOM     28  C   UNL     1      -8.424  -9.206   4.913  0.00  0.00    +0.129 C 
ATOM     29  C   UNL     1      -9.146  -7.268   6.318  0.00  0.00    +0.129 C 
ENDBRANCH  25   7
ENDBRANCH  17  21
ENDBRANCH   8  13
BRANCH   4  12
ATOM     12  C   UNL     1      -2.914 -10.688  16.394  0.00  0.00    +0.119 C 
BRANCH  12  14
ATOM      2  O   UNL     1      -7.544 -10.264  18.089  0.00  0.00    -0.453 OA
ATOM      3  O   UNL     1      -7.102 -11.671  19.994  0.00  0.00    -0.453 OA
ATOM     14  C   UNL     1      -4.015 -10.972  17.382  0.00  0.00    -0.030 A 
ATOM     15  C   UNL     1      -5.282 -10.420  17.185  0.00  0.00    +0.054 A 
ATOM     16  C   UNL     1      -3.756 -11.793  18.494  0.00  0.00    +0.009 A 
ATOM     18  C   UNL     1      -6.259 -10.710  18.115  0.00  0.00    +0.167 A 
ATOM     19  C   UNL     1      -4.763 -12.071  19.421  0.00  0.00    +0.050 A 
ATOM     20  C   UNL     1      -6.006 -11.514  19.204  0.00  0.00    +0.166 A 
ATOM     22  C   UNL     1      -8.072 -10.877  19.283  0.00  0.00    +0.466 C 
ENDBRANCH  12  14
ENDBRANCH   4  12
TORSDOF 5
ENDMDL
MODEL 8
REMARK VINA RESULT:      -6.8     28.063     30.042
REMARK  Name = 51137536
REMARK  7 active torsions:
REMARK  status: ('A' for Active; 'I' for Inactive)
REMARK    1  A    between atoms: N_4  and  C_12
REMARK    2  A    between atoms: N_7  and  C_25
REMARK    3  A    between atoms: N_7  and  C_28
REMARK    4  A    between atoms: N_7  and  C_29
REMARK    5  A    between atoms: C_8  and  C_13
REMARK    6  A    between atoms: C_12  and  C_14
REMARK    7  A    between atoms: C_17  and  C_21
REMARK                            x       y       z     vdW  Elec       q    Type
REMARK                         _______ _______ _______ _____ _____    ______ ____
ROOT
ATOM      4  N   UNL     1      -6.794  -8.714   8.893  0.00  0.00    -0.297 NA
ATOM      8  C   UNL     1      -4.732  -8.952   9.984  0.00  0.00    +0.092 C 
ATOM      9  C   UNL     1      -4.624  -9.504   8.552  0.00  0.00    +0.029 C 
ATOM     10  C   UNL     1      -6.240  -8.838  10.244  0.00  0.00    +0.097 C 
ATOM     11  C   UNL     1      -6.063  -9.698   8.094  0.00  0.00    +0.085 C 
ENDROOT
BRANCH   8  13
ATOM      1  O   UNL     1      -4.526  -9.734  12.296  0.00  0.00    -0.420 OA
ATOM      5  N   UNL     1      -2.947 -10.523  10.923  0.00  0.00    -0.112 NA
ATOM      6  N   UNL     1      -2.713 -11.039  12.184  0.00  0.00    -0.107 NA
ATOM     13  C   UNL     1      -4.014  -9.768  11.036  0.00  0.00    +0.222 A 
ATOM     17  C   UNL     1      -3.659 -10.551  12.952  0.00  0.00    +0.248 A 
BRANCH  17  21
ATOM     21  C   UNL     1      -3.914 -10.744  14.350  0.00  0.00    +0.039 A 
ATOM     23  C   UNL     1      -5.215 -10.975  14.797  0.00  0.00    +0.015 A 
ATOM     24  C   UNL     1      -2.860 -10.700  15.264  0.00  0.00    +0.015 A 
ATOM     25  C   UNL     1      -4.409 -11.119  17.071  0.00  0.00    +0.029 A 
ATOM     26  C   UNL     1      -5.463 -11.163  16.157  0.00  0.00    +0.024 A 
ATOM     27  C   UNL     1      -3.108 -10.887  16.623  0.00  0.00    +0.024 A 
BRANCH  25   7
ATOM      7  N   UNL     1      -4.659 -11.307  18.445  0.00  0.00    -0.336 N 
ATOM     28  C   UNL     1      -5.797 -10.668  19.078  0.00  0.00    +0.129 C 
ATOM     29  C   UNL     1      -3.778 -12.134  19.245  0.00  0.00    +0.129 C 
ENDBRANCH  25   7
ENDBRANCH  17  21
ENDBRANCH   8  13
BRANCH   4  12
ATOM     12  C   UNL     1      -8.233  -8.933   8.861  0.00  0.00    +0.119 C 
BRANCH  12  14
ATOM      2  O   UNL     1     -12.202  -6.158   9.884  0.00  0.00    -0.453 OA
ATOM      3  O   UNL     1     -11.185  -4.164   8.992  0.00  0.00    -0.453 OA
ATOM     14  C   UNL     1      -8.998  -7.635   8.878  0.00  0.00    -0.030 A 
ATOM     15  C   UNL     1     -10.287  -7.598   9.413  0.00  0.00    +0.054 A 
ATOM     16  C   UNL     1      -8.404  -6.472   8.357  0.00  0.00    +0.009 A 
ATOM     18  C   UNL     1     -10.947  -6.385   9.409  0.00  0.00    +0.167 A 
ATOM     19  C   UNL     1      -9.094  -5.257   8.366  0.00  0.00    +0.050 A 
ATOM     20  C   UNL     1     -10.366  -5.246   8.899  0.00  0.00    +0.166 A 
ATOM     22  C   UNL     1     -12.346  -4.749   9.616  0.00  0.00    +0.466 C 
ENDBRANCH  12  14
ENDBRANCH   4  12
TORSDOF 5
ENDMDL
MODEL 9
REMARK VINA RESULT:      -6.7     18.769     22.148
REMARK  Name = 51137536
REMARK  7 active torsions:
REMARK  status: ('A' for Active; 'I' for Inactive)
REMARK    1  A    between atoms: N_4  and  C_12
REMARK    2  A    between atoms: N_7  and  C_25
REMARK    3  A    between atoms: N_7  and  C_28
REMARK    4  A    between atoms: N_7  and  C_29
REMARK    5  A    between atoms: C_8  and  C_13
REMARK    6  A    between atoms: C_12  and  C_14
REMARK    7  A    between atoms: C_17  and  C_21
REMARK                            x       y       z     vdW  Elec       q    Type
REMARK                         _______ _______ _______ _____ _____    ______ ____
ROOT
ATOM      4  N   UNL     1      10.876   5.549   3.560  0.00  0.00    -0.297 NA
ATOM      8  C   UNL     1      11.948   4.226   1.948  0.00  0.00    +0.092 C 
ATOM      9  C   UNL     1      12.861   5.400   2.340  0.00  0.00    +0.029 C 
ATOM     10  C   UNL     1      10.560   4.620   2.472  0.00  0.00    +0.097 C 
ATOM     11  C   UNL     1      11.943   6.399   3.032  0.00  0.00    +0.085 C 
ENDROOT
BRANCH   8  13
ATOM      1  O   UNL     1      10.907   4.361  -0.265  0.00  0.00    -0.420 OA
ATOM      5  N   UNL     1      12.811   3.188  -0.223  0.00  0.00    -0.112 NA
ATOM      6  N   UNL     1      12.335   3.184  -1.521  0.00  0.00    -0.107 NA
ATOM     13  C   UNL     1      11.947   3.886   0.475  0.00  0.00    +0.222 A 
ATOM     17  C   UNL     1      11.223   3.880  -1.497  0.00  0.00    +0.248 A 
BRANCH  17  21
ATOM     21  C   UNL     1      10.306   4.205  -2.551  0.00  0.00    +0.039 A 
ATOM     23  C   UNL     1       9.560   5.382  -2.490  0.00  0.00    +0.015 A 
ATOM     24  C   UNL     1      10.159   3.342  -3.639  0.00  0.00    +0.015 A 
ATOM     25  C   UNL     1       8.523   4.837  -4.602  0.00  0.00    +0.029 A 
ATOM     26  C   UNL     1       8.669   5.699  -3.514  0.00  0.00    +0.024 A 
ATOM     27  C   UNL     1       9.268   3.659  -4.664  0.00  0.00    +0.024 A 
BRANCH  25   7
ATOM      7  N   UNL     1       7.621   5.155  -5.637  0.00  0.00    -0.336 N 
ATOM     28  C   UNL     1       6.342   5.769  -5.334  0.00  0.00    +0.129 C 
ATOM     29  C   UNL     1       7.956   4.867  -7.018  0.00  0.00    +0.129 C 
ENDBRANCH  25   7
ENDBRANCH  17  21
ENDBRANCH   8  13
BRANCH   4  12
ATOM     12  C   UNL     1       9.716   6.317   3.987  0.00  0.00    +0.119 C 
BRANCH  12  14
ATOM      2  O   UNL     1      10.010   4.005   8.354  0.00  0.00    -0.453 OA
ATOM      3  O   UNL     1       8.964   5.833   9.526  0.00  0.00    -0.453 OA
ATOM     14  C   UNL     1       9.497   6.220   5.475  0.00  0.00    -0.030 A 
ATOM     15  C   UNL     1       9.903   5.075   6.162  0.00  0.00    +0.054 A 
ATOM     16  C   UNL     1       8.886   7.287   6.158  0.00  0.00    +0.009 A 
ATOM     18  C   UNL     1       9.684   5.034   7.524  0.00  0.00    +0.167 A 
ATOM     19  C   UNL     1       8.676   7.220   7.537  0.00  0.00    +0.050 A 
ATOM     20  C   UNL     1       9.086   6.078   8.193  0.00  0.00    +0.166 A 
ATOM     22  C   UNL     1       9.551   4.520   9.621  0.00  0.00    +0.466 C 
ENDBRANCH  12  14
ENDBRANCH   4  12
TORSDOF 5
ENDMDL
MODEL 10
REMARK VINA RESULT:      -6.6     28.059     31.375
REMARK  Name = 51137536
REMARK  7 active torsions:
REMARK  status: ('A' for Active; 'I' for Inactive)
REMARK    1  A    between atoms: N_4  and  C_12
REMARK    2  A    between atoms: N_7  and  C_25
REMARK    3  A    between atoms: N_7  and  C_28
REMARK    4  A    between atoms: N_7  and  C_29
REMARK    5  A    between atoms: C_8  and  C_13
REMARK    6  A    between atoms: C_12  and  C_14
REMARK    7  A    between atoms: C_17  and  C_21
REMARK                            x       y       z     vdW  Elec       q    Type
REMARK                         _______ _______ _______ _____ _____    ______ ____
ROOT
ATOM      4  N   UNL     1      -4.551 -11.608  17.191  0.00  0.00    -0.297 NA
ATOM      8  C   UNL     1      -6.236 -10.321  18.192  0.00  0.00    +0.092 C 
ATOM      9  C   UNL     1      -5.616 -11.262  19.239  0.00  0.00    +0.029 C 
ATOM     10  C   UNL     1      -5.777 -10.886  16.841  0.00  0.00    +0.097 C 
ATOM     11  C   UNL     1      -4.871 -12.316  18.430  0.00  0.00    +0.085 C 
ENDROOT
BRANCH   8  13
ATOM      1  O   UNL     1      -8.321  -9.294  17.419  0.00  0.00    -0.420 OA
ATOM      5  N   UNL     1      -8.589 -10.755  19.092  0.00  0.00    -0.112 NA
ATOM      6  N   UNL     1      -9.834 -10.256  18.757  0.00  0.00    -0.107 NA
ATOM     13  C   UNL     1      -7.737 -10.166  18.286  0.00  0.00    +0.222 A 
ATOM     17  C   UNL     1      -9.628  -9.407  17.777  0.00  0.00    +0.248 A 
BRANCH  17  21
ATOM     21  C   UNL     1     -10.553  -8.596  17.039  0.00  0.00    +0.039 A 
ATOM     23  C   UNL     1     -10.199  -7.300  16.662  0.00  0.00    +0.015 A 
ATOM     24  C   UNL     1     -11.808  -9.103  16.699  0.00  0.00    +0.015 A 
ATOM     25  C   UNL     1     -12.353  -7.019  15.603  0.00  0.00    +0.029 A 
ATOM     26  C   UNL     1     -11.098  -6.512  15.944  0.00  0.00    +0.024 A 
ATOM     27  C   UNL     1     -12.707  -8.314  15.982  0.00  0.00    +0.024 A 
BRANCH  25   7
ATOM      7  N   UNL     1     -13.262  -6.222  14.880  0.00  0.00    -0.336 N 
ATOM     28  C   UNL     1     -12.789  -5.102  14.089  0.00  0.00    +0.129 C 
ATOM     29  C   UNL     1     -14.683  -6.506  14.923  0.00  0.00    +0.129 C 
ENDBRANCH  25   7
ENDBRANCH  17  21
ENDBRANCH   8  13
BRANCH   4  12
ATOM     12  C   UNL     1      -4.118 -12.511  16.134  0.00  0.00    +0.119 C 
BRANCH  12  14
ATOM      2  O   UNL     1      -3.949 -11.095  11.394  0.00  0.00    -0.453 OA
ATOM      3  O   UNL     1      -1.959  -9.780  11.735  0.00  0.00    -0.453 OA
ATOM     14  C   UNL     1      -3.510 -11.766  14.974  0.00  0.00    -0.030 A 
ATOM     15  C   UNL     1      -4.106 -11.841  13.714  0.00  0.00    +0.054 A 
ATOM     16  C   UNL     1      -2.348 -10.999  15.174  0.00  0.00    +0.009 A 
ATOM     18  C   UNL     1      -3.514 -11.139  12.683  0.00  0.00    +0.167 A 
ATOM     19  C   UNL     1      -1.770 -10.297  14.113  0.00  0.00    +0.050 A 
ATOM     20  C   UNL     1      -2.377 -10.388  12.878  0.00  0.00    +0.166 A 
ATOM     22  C   UNL     1      -2.959 -10.231  10.800  0.00  0.00    +0.466 C 
ENDBRANCH  12  14
ENDBRANCH   4  12
TORSDOF 5
ENDMDL
