REMARK  Name = 75536633
REMARK  7 active torsions:
REMARK  status: ('A' for Active; 'I' for Inactive)
REMARK    1  A    between atoms: O_3  and  C_8
REMARK    2  A    between atoms: N_5  and  C_7
REMARK    3  A    between atoms: N_5  and  C_12
REMARK    4  A    between atoms: N_5  and  C_13
REMARK    5  A    between atoms: N_6  and  C_11
REMARK    6  A    between atoms: C_9  and  C_11
REMARK    7  A    between atoms: C_14  and  C_15
REMARK                            x       y       z     vdW  Elec       q    Type
REMARK                         _______ _______ _______ _____ _____    ______ ____
ROOT
ATOM      4  O   UNL     1       1.257  -2.107   0.323  0.00  0.00    -0.270 OA
ATOM      6  N   UNL     1       0.601  -0.301  -0.979  0.00  0.00    -0.309 N 
ATOM     14  C   UNL     1       1.508  -1.034  -0.219  0.00  0.00    +0.244 C 
ATOM     22  H   UNL     1       0.853   0.613  -1.340  0.00  0.00    +0.149 HD
ENDROOT
BRANCH  14  15
ATOM      1  F   UNL     1       6.609   1.227   0.414  0.00  0.00    -0.205 F 
ATOM     15  C   UNL     1       2.858  -0.435  -0.051  0.00  0.00    +0.037 A 
ATOM     16  C   UNL     1       3.622  -0.741   1.075  0.00  0.00    +0.016 A 
ATOM     17  C   UNL     1       3.361   0.433  -1.020  0.00  0.00    +0.016 A 
ATOM     18  C   UNL     1       4.888  -0.180   1.233  0.00  0.00    +0.039 A 
ATOM     19  C   UNL     1       4.628   0.994  -0.863  0.00  0.00    +0.039 A 
ATOM     20  C   UNL     1       5.392   0.688   0.264  0.00  0.00    +0.123 A 
ENDBRANCH  14  15
BRANCH   6  11
ATOM     11  C   UNL     1      -0.746  -0.735  -1.210  0.00  0.00    +0.138 C 
BRANCH  11   9
ATOM      2  O   UNL     1      -1.694   1.221  -0.151  0.00  0.00    -0.371 OA
ATOM      7  C   UNL     1      -3.872   0.450   0.400  0.00  0.00    +0.113 C 
ATOM      8  C   UNL     1      -3.132  -0.648  -0.342  0.00  0.00    +0.164 C 
ATOM      9  C   UNL     1      -1.686  -0.216  -0.136  0.00  0.00    +0.165 C 
ATOM     10  C   UNL     1      -3.048   1.672   0.030  0.00  0.00    +0.181 C 
BRANCH   7   5
ATOM      5  N   UNL     1      -5.269   0.572   0.018  0.00  0.00    -0.301 NA
ATOM     12  C   UNL     1      -6.007  -0.652   0.342  0.00  0.00    +0.105 C 
ATOM     13  C   UNL     1      -5.891   1.724   0.678  0.00  0.00    +0.105 C 
ENDBRANCH   7   5
BRANCH   8   3
ATOM      3  O   UNL     1      -3.380  -1.933   0.195  0.00  0.00    -0.388 OA
ATOM     21  H   UNL     1      -3.153  -1.918   1.140  0.00  0.00    +0.210 HD
ENDBRANCH   8   3
ENDBRANCH  11   9
ENDBRANCH   6  11
TORSDOF 5
