REMARK  Name = 11912417
REMARK  11 active torsions:
REMARK  status: ('A' for Active; 'I' for Inactive)
REMARK    1  A    between atoms: O_3  and  C_26
REMARK    2  A    between atoms: O_3  and  C_28
REMARK    3  A    between atoms: N_6  and  C_18
REMARK    4  A    between atoms: N_7  and  C_19
REMARK    5  A    between atoms: C_8  and  C_14
REMARK    6  A    between atoms: C_9  and  C_13
REMARK    7  A    between atoms: C_13  and  C_15
REMARK    8  A    between atoms: C_14  and  C_17
REMARK    9  A    between atoms: C_19  and  C_23
REMARK   10  A    between atoms: C_22  and  C_26
REMARK   11  A    between atoms: C_28  and  C_29
REMARK                            x       y       z     vdW  Elec       q    Type
REMARK                         _______ _______ _______ _____ _____    ______ ____
ROOT
ATOM      1  O   UNL     1       0.720   3.195  -0.801  0.00  0.00    -0.252 OA
ATOM      5  N   UNL     1      -0.919   2.057   0.367  0.00  0.00    -0.285 N 
ATOM      6  N   UNL     1       1.172   1.048  -0.048  0.00  0.00    -0.269 N 
ATOM      8  C   UNL     1      -3.750   1.464   0.282  0.00  0.00    +0.004 C 
ATOM      9  C   UNL     1      -2.700   0.335   0.459  0.00  0.00    +0.010 C 
ATOM     10  C   UNL     1      -3.156   2.692  -0.430  0.00  0.00    +0.023 C 
ATOM     11  C   UNL     1      -1.437   0.908   1.124  0.00  0.00    +0.113 C 
ATOM     12  C   UNL     1      -1.869   3.164   0.245  0.00  0.00    +0.109 C 
ATOM     16  C   UNL     1       0.368   2.176  -0.200  0.00  0.00    +0.306 C 
ATOM     30  H   UNL     1       0.729   0.153   0.091  0.00  0.00    +0.156 HD
ENDROOT
BRANCH   6  18
ATOM     18  C   UNL     1       2.588   0.995  -0.049  0.00  0.00    +0.036 A 
ATOM     20  C   UNL     1       3.235  -0.236   0.012  0.00  0.00    +0.038 A 
ATOM     21  C   UNL     1       3.324   2.175  -0.111  0.00  0.00    +0.023 A 
ATOM     22  C   UNL     1       4.629  -0.287   0.011  0.00  0.00    +0.061 A 
ATOM     24  C   UNL     1       4.718   2.124  -0.113  0.00  0.00    +0.003 A 
ATOM     25  C   UNL     1       5.370   0.893  -0.052  0.00  0.00    +0.015 A 
BRANCH  22  26
ATOM      4  O   UNL     1       4.736  -2.666   0.133  0.00  0.00    -0.245 OA
ATOM     26  C   UNL     1       5.310  -1.570   0.075  0.00  0.00    +0.339 C 
BRANCH  26   3
ATOM      3  O   UNL     1       6.670  -1.419   0.064  0.00  0.00    -0.461 OA
BRANCH   3  28
ATOM     28  C   UNL     1       7.455  -2.615   0.122  0.00  0.00    +0.229 C 
ATOM     29  C   UNL     1       8.922  -2.244   0.099  0.00  0.00    +0.048 C 
ENDBRANCH   3  28
ENDBRANCH  26   3
ENDBRANCH  22  26
ENDBRANCH   6  18
BRANCH   9  13
ATOM     13  C   UNL     1      -2.339  -0.391  -0.843  0.00  0.00    +0.002 C 
ATOM     15  C   UNL     1      -1.410  -1.557  -0.579  0.00  0.00    +0.004 C 
ENDBRANCH   9  13
BRANCH   8  14
ATOM     14  C   UNL     1      -5.023   0.995  -0.423  0.00  0.00    +0.099 C 
BRANCH  14  17
ATOM      2  O   UNL     1      -5.609  -0.329   1.515  0.00  0.00    -0.276 OA
ATOM      7  N   UNL     1      -6.383  -0.968  -0.582  0.00  0.00    -0.304 N 
ATOM     17  C   UNL     1      -5.688  -0.155   0.302  0.00  0.00    +0.214 C 
ATOM     31  H   UNL     1      -6.383  -0.746  -1.573  0.00  0.00    +0.150 HD
BRANCH   7  19
ATOM     19  C   UNL     1      -7.112  -2.144  -0.165  0.00  0.00    +0.193 C 
BRANCH  19  23
ATOM     23  C   UNL     1      -6.259  -3.332  -0.195  0.00  0.00    -0.087 C 
ATOM     27  C   UNL     1      -5.562  -4.309  -0.219  0.00  0.00    +0.005 C 
ENDBRANCH  19  23
ENDBRANCH   7  19
ENDBRANCH  14  17
ENDBRANCH   8  14
TORSDOF 9
