REMARK  Name = 86769373
REMARK  11 active torsions:
REMARK  status: ('A' for Active; 'I' for Inactive)
REMARK    1  A    between atoms: O_2  and  C_8
REMARK    2  A    between atoms: O_4  and  C_20
REMARK    3  A    between atoms: O_4  and  C_21
REMARK    4  A    between atoms: N_5  and  C_12
REMARK    5  A    between atoms: N_5  and  C_15
REMARK    6  A    between atoms: C_7  and  C_12
REMARK    7  A    between atoms: C_9  and  C_13
REMARK    8  A    between atoms: C_13  and  C_14
REMARK    9  A    between atoms: C_15  and  C_17
REMARK   10  A    between atoms: C_15  and  C_18
REMARK   11  A    between atoms: C_19  and  C_20
REMARK                            x       y       z     vdW  Elec       q    Type
REMARK                         _______ _______ _______ _____ _____    ______ ____
ROOT
ATOM      1  O   UNL     1       1.652  -0.506   0.821  0.00  0.00    -0.369 OA
ATOM      7  C   UNL     1       2.515   0.634   0.710  0.00  0.00    +0.161 C 
ATOM      8  C   UNL     1       3.939   0.220   0.317  0.00  0.00    +0.145 C 
ATOM      9  C   UNL     1       1.589  -1.336  -0.341  0.00  0.00    +0.125 C 
ATOM     10  C   UNL     1       3.961  -0.718  -0.886  0.00  0.00    +0.036 C 
ATOM     11  C   UNL     1       2.976  -1.868  -0.700  0.00  0.00    +0.034 C 
ENDROOT
BRANCH   8   2
ATOM      2  O   UNL     1       4.539  -0.468   1.418  0.00  0.00    -0.389 OA
ATOM     23  H   UNL     1       5.454  -0.680   1.169  0.00  0.00    +0.210 HD
ENDBRANCH   8   2
BRANCH   7  12
ATOM     12  C   UNL     1       1.920   1.685  -0.225  0.00  0.00    +0.115 C 
BRANCH  12   5
ATOM      5  N   UNL     1       0.581   2.061   0.201  0.00  0.00    -0.311 NA
ATOM     22  H   UNL     1      -0.007   1.228   0.201  0.00  0.00    +0.122 HD
BRANCH   5  15
ATOM     15  C   UNL     1       0.015   3.071  -0.683  0.00  0.00    +0.048 C 
ATOM     17  C   UNL     1       0.572   4.449  -0.337  0.00  0.00    +0.023 C 
ATOM     18  C   UNL     1      -1.506   3.051  -0.570  0.00  0.00    +0.023 C 
ENDBRANCH   5  15
ENDBRANCH  12   5
ENDBRANCH   7  12
BRANCH   9  13
ATOM     13  C   UNL     1       0.631  -2.481  -0.035  0.00  0.00    +0.090 C 
BRANCH  13  14
ATOM      3  O   UNL     1      -2.734  -1.668  -1.036  0.00  0.00    -0.357 OA
ATOM      6  N   UNL     1      -1.455  -2.144  -1.296  0.00  0.00    -0.083 NA
ATOM     14  C   UNL     1      -0.807  -2.046  -0.131  0.00  0.00    +0.086 A 
ATOM     16  C   UNL     1      -1.619  -1.521   0.889  0.00  0.00    +0.073 A 
ATOM     19  C   UNL     1      -2.820  -1.301   0.268  0.00  0.00    +0.163 A 
BRANCH  19  20
ATOM     20  C   UNL     1      -4.113  -0.772   0.717  0.00  0.00    +0.236 C 
BRANCH  20   4
ATOM      4  O   UNL     1      -4.296   0.563   0.238  0.00  0.00    -0.375 OA
ATOM     21  C   UNL     1      -5.542   1.093   0.661  0.00  0.00    +0.194 C 
ENDBRANCH  20   4
ENDBRANCH  19  20
ENDBRANCH  13  14
ENDBRANCH   9  13
TORSDOF 8
