MODEL 1
REMARK VINA RESULT:      -7.0      0.000      0.000
REMARK  Name = 51137036
REMARK  3 active torsions:
REMARK  status: ('A' for Active; 'I' for Inactive)
REMARK    1  A    between atoms: N_3  and  C_12
REMARK    2  A    between atoms: C_7  and  C_11
REMARK    3  A    between atoms: C_12  and  C_13
REMARK                            x       y       z     vdW  Elec       q    Type
REMARK                         _______ _______ _______ _____ _____    ______ ____
ROOT
ATOM      3  N   UNL     1      16.570   7.547  20.539  0.00  0.00    -0.297 NA
ATOM      7  C   UNL     1      18.706   6.661  20.149  0.00  0.00    +0.070 C 
ATOM      8  C   UNL     1      17.658   5.841  19.375  0.00  0.00    +0.028 C 
ATOM      9  C   UNL     1      17.891   7.470  21.167  0.00  0.00    +0.096 C 
ATOM     10  C   UNL     1      16.323   6.206  20.012  0.00  0.00    +0.085 C 
ENDROOT
BRANCH   7  11
ATOM      4  N   UNL     1      20.389   4.799  20.128  0.00  0.00    -0.340 N 
ATOM      5  N   UNL     1      20.315   6.019  21.989  0.00  0.00    -0.213 NA
ATOM      6  N   UNL     1      22.062   4.834  23.188  0.00  0.00    -0.234 NA
ATOM     11  C   UNL     1      19.805   5.845  20.789  0.00  0.00    +0.114 A 
ATOM     14  C   UNL     1      21.337   4.263  20.956  0.00  0.00    +0.085 A 
ATOM     15  C   UNL     1      21.271   5.041  22.106  0.00  0.00    +0.178 A 
ATOM     18  C   UNL     1      22.232   3.205  20.832  0.00  0.00    +0.031 A 
ATOM     21  C   UNL     1      23.050   2.980  21.936  0.00  0.00    +0.022 A 
ATOM     23  C   UNL     1      22.926   3.801  23.052  0.00  0.00    +0.113 A 
ATOM     24  H   UNL     1      20.162   4.478  19.196  0.00  0.00    +0.167 HD
ENDBRANCH   7  11
BRANCH   3  12
ATOM     12  C   UNL     1      15.537   7.976  21.471  0.00  0.00    +0.119 C 
BRANCH  12  13
ATOM      1  F   UNL     1      10.744   7.088  21.213  0.00  0.00    -0.202 F 
ATOM      2  F   UNL     1      10.543   8.584  18.933  0.00  0.00    -0.202 F 
ATOM     13  C   UNL     1      14.202   8.138  20.793  0.00  0.00    -0.030 A 
ATOM     16  C   UNL     1      13.069   7.525  21.327  0.00  0.00    +0.046 A 
ATOM     17  C   UNL     1      14.100   8.902  19.630  0.00  0.00    +0.008 A 
ATOM     19  C   UNL     1      11.833   7.676  20.699  0.00  0.00    +0.159 A 
ATOM     20  C   UNL     1      12.864   9.052  19.002  0.00  0.00    +0.041 A 
ATOM     22  C   UNL     1      11.730   8.440  19.536  0.00  0.00    +0.158 A 
ENDBRANCH  12  13
ENDBRANCH   3  12
TORSDOF 3
ENDMDL
MODEL 2
REMARK VINA RESULT:      -7.0     28.698     31.696
REMARK  Name = 51137036
REMARK  3 active torsions:
REMARK  status: ('A' for Active; 'I' for Inactive)
REMARK    1  A    between atoms: N_3  and  C_12
REMARK    2  A    between atoms: C_7  and  C_11
REMARK    3  A    between atoms: C_12  and  C_13
REMARK                            x       y       z     vdW  Elec       q    Type
REMARK                         _______ _______ _______ _____ _____    ______ ____
ROOT
ATOM      3  N   UNL     1     -13.249   6.978  21.035  0.00  0.00    -0.297 NA
ATOM      7  C   UNL     1     -15.074   5.678  21.726  0.00  0.00    +0.070 C 
ATOM      8  C   UNL     1     -15.403   7.169  21.915  0.00  0.00    +0.028 C 
ATOM      9  C   UNL     1     -13.551   5.637  21.540  0.00  0.00    +0.096 C 
ATOM     10  C   UNL     1     -14.058   7.880  21.854  0.00  0.00    +0.085 C 
ENDROOT
BRANCH   7  11
ATOM      4  N   UNL     1     -15.631   5.219  24.131  0.00  0.00    -0.340 N 
ATOM      5  N   UNL     1     -15.942   3.522  22.722  0.00  0.00    -0.213 NA
ATOM      6  N   UNL     1     -16.738   1.920  24.363  0.00  0.00    -0.234 NA
ATOM     11  C   UNL     1     -15.556   4.775  22.839  0.00  0.00    +0.114 A 
ATOM     14  C   UNL     1     -16.095   4.186  24.897  0.00  0.00    +0.085 A 
ATOM     15  C   UNL     1     -16.280   3.143  23.997  0.00  0.00    +0.178 A 
ATOM     18  C   UNL     1     -16.371   4.046  26.254  0.00  0.00    +0.031 A 
ATOM     21  C   UNL     1     -16.841   2.795  26.644  0.00  0.00    +0.022 A 
ATOM     23  C   UNL     1     -17.001   1.800  25.685  0.00  0.00    +0.113 A 
ATOM     24  H   UNL     1     -15.387   6.144  24.461  0.00  0.00    +0.167 HD
ENDBRANCH   7  11
BRANCH   3  12
ATOM     12  C   UNL     1     -11.829   7.290  21.104  0.00  0.00    +0.119 C 
BRANCH  12  13
ATOM      1  F   UNL     1      -9.942  11.028  18.596  0.00  0.00    -0.202 F 
ATOM      2  F   UNL     1      -9.941   9.546  16.298  0.00  0.00    -0.202 F 
ATOM     13  C   UNL     1     -11.324   7.893  19.820  0.00  0.00    -0.030 A 
ATOM     16  C   UNL     1     -10.858   9.207  19.802  0.00  0.00    +0.046 A 
ATOM     17  C   UNL     1     -11.323   7.137  18.647  0.00  0.00    +0.008 A 
ATOM     19  C   UNL     1     -10.391   9.766  18.613  0.00  0.00    +0.159 A 
ATOM     20  C   UNL     1     -10.856   7.695  17.458  0.00  0.00    +0.041 A 
ATOM     22  C   UNL     1     -10.389   9.009  17.440  0.00  0.00    +0.158 A 
ENDBRANCH  12  13
ENDBRANCH   3  12
TORSDOF 3
ENDMDL
MODEL 3
REMARK VINA RESULT:      -6.9     27.805     29.916
REMARK  Name = 51137036
REMARK  3 active torsions:
REMARK  status: ('A' for Active; 'I' for Inactive)
REMARK    1  A    between atoms: N_3  and  C_12
REMARK    2  A    between atoms: C_7  and  C_11
REMARK    3  A    between atoms: C_12  and  C_13
REMARK                            x       y       z     vdW  Elec       q    Type
REMARK                         _______ _______ _______ _____ _____    ______ ____
ROOT
ATOM      3  N   UNL     1      -4.266 -10.720  14.711  0.00  0.00    -0.297 NA
ATOM      7  C   UNL     1      -5.503  -9.775  16.465  0.00  0.00    +0.070 C 
ATOM      8  C   UNL     1      -4.256 -10.475  17.033  0.00  0.00    +0.028 C 
ATOM      9  C   UNL     1      -5.636 -10.319  15.036  0.00  0.00    +0.096 C 
ATOM     10  C   UNL     1      -3.773 -11.389  15.914  0.00  0.00    +0.085 C 
ENDROOT
BRANCH   7  11
ATOM      4  N   UNL     1      -7.938  -9.361  16.915  0.00  0.00    -0.340 N 
ATOM      5  N   UNL     1      -6.886 -10.660  18.386  0.00  0.00    -0.213 NA
ATOM      6  N   UNL     1      -8.793 -11.070  19.832  0.00  0.00    -0.234 NA
ATOM     11  C   UNL     1      -6.761  -9.955  17.283  0.00  0.00    +0.114 A 
ATOM     14  C   UNL     1      -8.883  -9.705  17.842  0.00  0.00    +0.085 A 
ATOM     15  C   UNL     1      -8.203 -10.513  18.745  0.00  0.00    +0.178 A 
ATOM     18  C   UNL     1     -10.234  -9.409  17.991  0.00  0.00    +0.031 A 
ATOM     21  C   UNL     1     -10.853  -9.972  19.103  0.00  0.00    +0.022 A 
ATOM     23  C   UNL     1     -10.106 -10.771  19.963  0.00  0.00    +0.113 A 
ATOM     24  H   UNL     1      -8.084  -8.773  16.104  0.00  0.00    +0.167 HD
ENDBRANCH   7  11
BRANCH   3  12
ATOM     12  C   UNL     1      -4.201 -11.576  13.535  0.00  0.00    +0.119 C 
BRANCH  12  13
ATOM      1  F   UNL     1      -1.476  -8.960  10.444  0.00  0.00    -0.202 F 
ATOM      2  F   UNL     1      -3.623  -8.587   8.793  0.00  0.00    -0.202 F 
ATOM     13  C   UNL     1      -4.046 -10.777  12.268  0.00  0.00    -0.030 A 
ATOM     16  C   UNL     1      -2.809 -10.227  11.937  0.00  0.00    +0.046 A 
ATOM     17  C   UNL     1      -5.142 -10.587  11.426  0.00  0.00    +0.008 A 
ATOM     19  C   UNL     1      -2.665  -9.487  10.763  0.00  0.00    +0.159 A 
ATOM     20  C   UNL     1      -4.999  -9.848  10.252  0.00  0.00    +0.041 A 
ATOM     22  C   UNL     1      -3.761  -9.298   9.920  0.00  0.00    +0.158 A 
ENDBRANCH  12  13
ENDBRANCH   3  12
TORSDOF 3
ENDMDL
MODEL 4
REMARK VINA RESULT:      -6.8     27.459     28.926
REMARK  Name = 51137036
REMARK  3 active torsions:
REMARK  status: ('A' for Active; 'I' for Inactive)
REMARK    1  A    between atoms: N_3  and  C_12
REMARK    2  A    between atoms: C_7  and  C_11
REMARK    3  A    between atoms: C_12  and  C_13
REMARK                            x       y       z     vdW  Elec       q    Type
REMARK                         _______ _______ _______ _____ _____    ______ ____
ROOT
ATOM      3  N   UNL     1      -2.413 -11.391  12.610  0.00  0.00    -0.297 NA
ATOM      7  C   UNL     1      -2.700 -10.648  14.815  0.00  0.00    +0.070 C 
ATOM      8  C   UNL     1      -1.602 -11.725  14.773  0.00  0.00    +0.028 C 
ATOM      9  C   UNL     1      -3.429 -10.784  13.471  0.00  0.00    +0.096 C 
ATOM     10  C   UNL     1      -1.788 -12.425  13.433  0.00  0.00    +0.085 C 
ENDROOT
BRANCH   7  11
ATOM      4  N   UNL     1      -3.293 -11.451  17.118  0.00  0.00    -0.340 N 
ATOM      5  N   UNL     1      -4.815 -10.171  16.115  0.00  0.00    -0.213 NA
ATOM      6  N   UNL     1      -6.446 -10.189  17.913  0.00  0.00    -0.234 NA
ATOM     11  C   UNL     1      -3.631 -10.735  16.002  0.00  0.00    +0.114 A 
ATOM     14  C   UNL     1      -4.326 -11.343  18.008  0.00  0.00    +0.085 A 
ATOM     15  C   UNL     1      -5.259 -10.542  17.360  0.00  0.00    +0.178 A 
ATOM     18  C   UNL     1      -4.548 -11.845  19.287  0.00  0.00    +0.031 A 
ATOM     21  C   UNL     1      -5.763 -11.492  19.867  0.00  0.00    +0.022 A 
ATOM     23  C   UNL     1      -6.647 -10.685  19.156  0.00  0.00    +0.113 A 
ATOM     24  H   UNL     1      -2.436 -11.969  17.260  0.00  0.00    +0.167 HD
ENDBRANCH   7  11
BRANCH   3  12
ATOM     12  C   UNL     1      -2.976 -11.927  11.379  0.00  0.00    +0.119 C 
BRANCH  12  13
ATOM      1  F   UNL     1      -7.331 -10.486   9.712  0.00  0.00    -0.202 F 
ATOM      2  F   UNL     1      -6.248  -8.165   8.754  0.00  0.00    -0.202 F 
ATOM     13  C   UNL     1      -3.851 -10.922  10.678  0.00  0.00    -0.030 A 
ATOM     16  C   UNL     1      -5.212 -11.175  10.516  0.00  0.00    +0.046 A 
ATOM     17  C   UNL     1      -3.298  -9.738  10.189  0.00  0.00    +0.008 A 
ATOM     19  C   UNL     1      -6.023 -10.243   9.866  0.00  0.00    +0.159 A 
ATOM     20  C   UNL     1      -4.107  -8.807   9.539  0.00  0.00    +0.041 A 
ATOM     22  C   UNL     1      -5.470  -9.059   9.378  0.00  0.00    +0.158 A 
ENDBRANCH  12  13
ENDBRANCH   3  12
TORSDOF 3
ENDMDL
MODEL 5
REMARK VINA RESULT:      -6.7     17.674     20.029
REMARK  Name = 51137036
REMARK  3 active torsions:
REMARK  status: ('A' for Active; 'I' for Inactive)
REMARK    1  A    between atoms: N_3  and  C_12
REMARK    2  A    between atoms: C_7  and  C_11
REMARK    3  A    between atoms: C_12  and  C_13
REMARK                            x       y       z     vdW  Elec       q    Type
REMARK                         _______ _______ _______ _____ _____    ______ ____
ROOT
ATOM      3  N   UNL     1      10.832   5.860   3.913  0.00  0.00    -0.297 NA
ATOM      7  C   UNL     1      11.738   4.540   2.201  0.00  0.00    +0.070 C 
ATOM      8  C   UNL     1      12.657   5.746   2.463  0.00  0.00    +0.028 C 
ATOM      9  C   UNL     1      10.414   4.905   2.885  0.00  0.00    +0.096 C 
ATOM     10  C   UNL     1      11.801   6.730   3.249  0.00  0.00    +0.085 C 
ENDROOT
BRANCH   7  11
ATOM      4  N   UNL     1      12.555   3.526   0.054  0.00  0.00    -0.340 N 
ATOM      5  N   UNL     1      10.516   4.417  -0.008  0.00  0.00    -0.213 NA
ATOM      6  N   UNL     1      10.049   3.921  -2.338  0.00  0.00    -0.234 NA
ATOM     11  C   UNL     1      11.567   4.175   0.744  0.00  0.00    +0.114 A 
ATOM     14  C   UNL     1      12.111   3.338  -1.225  0.00  0.00    +0.085 A 
ATOM     15  C   UNL     1      10.841   3.901  -1.238  0.00  0.00    +0.178 A 
ATOM     18  C   UNL     1      12.666   2.747  -2.357  0.00  0.00    +0.031 A 
ATOM     21  C   UNL     1      11.865   2.762  -3.495  0.00  0.00    +0.022 A 
ATOM     23  C   UNL     1      10.603   3.344  -3.430  0.00  0.00    +0.113 A 
ATOM     24  H   UNL     1      13.452   3.237   0.423  0.00  0.00    +0.167 HD
ENDBRANCH   7  11
BRANCH   3  12
ATOM     12  C   UNL     1       9.710   6.603   4.469  0.00  0.00    +0.119 C 
BRANCH  12  13
ATOM      1  F   UNL     1       9.840   3.551   8.276  0.00  0.00    -0.202 F 
ATOM      2  F   UNL     1       8.997   5.537   9.956  0.00  0.00    -0.202 F 
ATOM     13  C   UNL     1       9.519   6.318   5.935  0.00  0.00    -0.030 A 
ATOM     16  C   UNL     1       9.773   5.042   6.436  0.00  0.00    +0.046 A 
ATOM     17  C   UNL     1       9.089   7.331   6.792  0.00  0.00    +0.008 A 
ATOM     19  C   UNL     1       9.596   4.777   7.794  0.00  0.00    +0.159 A 
ATOM     20  C   UNL     1       8.913   7.067   8.150  0.00  0.00    +0.041 A 
ATOM     22  C   UNL     1       9.166   5.791   8.652  0.00  0.00    +0.158 A 
ENDBRANCH  12  13
ENDBRANCH   3  12
TORSDOF 3
ENDMDL
MODEL 6
REMARK VINA RESULT:      -6.7     27.195     30.544
REMARK  Name = 51137036
REMARK  3 active torsions:
REMARK  status: ('A' for Active; 'I' for Inactive)
REMARK    1  A    between atoms: N_3  and  C_12
REMARK    2  A    between atoms: C_7  and  C_11
REMARK    3  A    between atoms: C_12  and  C_13
REMARK                            x       y       z     vdW  Elec       q    Type
REMARK                         _______ _______ _______ _____ _____    ______ ____
ROOT
ATOM      3  N   UNL     1      -4.871 -11.607  17.454  0.00  0.00    -0.297 NA
ATOM      7  C   UNL     1      -6.584 -10.557  18.663  0.00  0.00    +0.070 C 
ATOM      8  C   UNL     1      -5.661 -11.318  19.631  0.00  0.00    +0.028 C 
ATOM      9  C   UNL     1      -6.240 -11.120  17.277  0.00  0.00    +0.096 C 
ATOM     10  C   UNL     1      -4.874 -12.281  18.752  0.00  0.00    +0.085 C 
ENDROOT
BRANCH   7  11
ATOM      4  N   UNL     1      -8.967  -9.819  18.387  0.00  0.00    -0.340 N 
ATOM      5  N   UNL     1      -8.627 -11.478  19.832  0.00  0.00    -0.213 NA
ATOM      6  N   UNL     1     -10.945 -11.779  20.487  0.00  0.00    -0.234 NA
ATOM     11  C   UNL     1      -8.057 -10.647  18.986  0.00  0.00    +0.114 A 
ATOM     14  C   UNL     1     -10.203 -10.137  18.879  0.00  0.00    +0.085 A 
ATOM     15  C   UNL     1      -9.963 -11.171  19.775  0.00  0.00    +0.178 A 
ATOM     18  C   UNL     1     -11.484  -9.646  18.646  0.00  0.00    +0.031 A 
ATOM     21  C   UNL     1     -12.502 -10.260  19.370  0.00  0.00    +0.022 A 
ATOM     23  C   UNL     1     -12.184 -11.290  20.249  0.00  0.00    +0.113 A 
ATOM     24  H   UNL     1      -8.764  -9.101  17.704  0.00  0.00    +0.167 HD
ENDBRANCH   7  11
BRANCH   3  12
ATOM     12  C   UNL     1      -4.451 -12.488  16.373  0.00  0.00    +0.119 C 
BRANCH  12  13
ATOM      1  F   UNL     1      -0.719  -9.575  15.190  0.00  0.00    -0.202 F 
ATOM      2  F   UNL     1      -1.345  -9.772  12.535  0.00  0.00    -0.202 F 
ATOM     13  C   UNL     1      -3.621 -11.762  15.348  0.00  0.00    -0.030 A 
ATOM     16  C   UNL     1      -2.533 -10.989  15.752  0.00  0.00    +0.046 A 
ATOM     17  C   UNL     1      -3.941 -11.863  13.994  0.00  0.00    +0.008 A 
ATOM     19  C   UNL     1      -1.764 -10.317  14.802  0.00  0.00    +0.159 A 
ATOM     20  C   UNL     1      -3.172 -11.191  13.044  0.00  0.00    +0.041 A 
ATOM     22  C   UNL     1      -2.084 -10.418  13.447  0.00  0.00    +0.158 A 
ENDBRANCH  12  13
ENDBRANCH   3  12
TORSDOF 3
ENDMDL
MODEL 7
REMARK VINA RESULT:      -6.6     14.992     17.243
REMARK  Name = 51137036
REMARK  3 active torsions:
REMARK  status: ('A' for Active; 'I' for Inactive)
REMARK    1  A    between atoms: N_3  and  C_12
REMARK    2  A    between atoms: C_7  and  C_11
REMARK    3  A    between atoms: C_12  and  C_13
REMARK                            x       y       z     vdW  Elec       q    Type
REMARK                         _______ _______ _______ _____ _____    ______ ____
ROOT
ATOM      3  N   UNL     1      16.142   8.638   5.296  0.00  0.00    -0.297 NA
ATOM      7  C   UNL     1      14.053   7.578   5.199  0.00  0.00    +0.070 C 
ATOM      8  C   UNL     1      14.064   8.784   4.242  0.00  0.00    +0.028 C 
ATOM      9  C   UNL     1      15.265   7.797   6.114  0.00  0.00    +0.096 C 
ATOM     10  C   UNL     1      15.254   9.625   4.684  0.00  0.00    +0.085 C 
ENDROOT
BRANCH   7  11
ATOM      4  N   UNL     1      12.565   6.287   6.755  0.00  0.00    -0.340 N 
ATOM      5  N   UNL     1      11.727   8.197   5.974  0.00  0.00    -0.213 NA
ATOM      6  N   UNL     1       9.591   8.073   7.121  0.00  0.00    -0.234 NA
ATOM     11  C   UNL     1      12.764   7.387   5.965  0.00  0.00    +0.114 A 
ATOM     14  C   UNL     1      11.319   6.396   7.309  0.00  0.00    +0.085 A 
ATOM     15  C   UNL     1      10.820   7.592   6.807  0.00  0.00    +0.178 A 
ATOM     18  C   UNL     1      10.583   5.598   8.180  0.00  0.00    +0.031 A 
ATOM     21  C   UNL     1       9.319   6.078   8.509  0.00  0.00    +0.022 A 
ATOM     23  C   UNL     1       8.888   7.285   7.967  0.00  0.00    +0.113 A 
ATOM     24  H   UNL     1      13.219   5.530   6.903  0.00  0.00    +0.167 HD
ENDBRANCH   7  11
BRANCH   3  12
ATOM     12  C   UNL     1      17.204   9.256   6.077  0.00  0.00    +0.119 C 
BRANCH  12  13
ATOM      1  F   UNL     1      20.347   7.075   3.046  0.00  0.00    -0.202 F 
ATOM      2  F   UNL     1      22.219   6.908   5.033  0.00  0.00    -0.202 F 
ATOM     13  C   UNL     1      18.544   8.629   5.798  0.00  0.00    -0.030 A 
ATOM     16  C   UNL     1      18.830   8.133   4.527  0.00  0.00    +0.046 A 
ATOM     17  C   UNL     1      19.499   8.543   6.812  0.00  0.00    +0.008 A 
ATOM     19  C   UNL     1      20.072   7.551   4.268  0.00  0.00    +0.159 A 
ATOM     20  C   UNL     1      20.739   7.962   6.553  0.00  0.00    +0.041 A 
ATOM     22  C   UNL     1      21.027   7.466   5.282  0.00  0.00    +0.158 A 
ENDBRANCH  12  13
ENDBRANCH   3  12
TORSDOF 3
ENDMDL
MODEL 8
REMARK VINA RESULT:      -6.5     27.316     30.428
REMARK  Name = 51137036
REMARK  3 active torsions:
REMARK  status: ('A' for Active; 'I' for Inactive)
REMARK    1  A    between atoms: N_3  and  C_12
REMARK    2  A    between atoms: C_7  and  C_11
REMARK    3  A    between atoms: C_12  and  C_13
REMARK                            x       y       z     vdW  Elec       q    Type
REMARK                         _______ _______ _______ _____ _____    ______ ____
ROOT
ATOM      3  N   UNL     1      -4.622  -9.848  11.479  0.00  0.00    -0.297 NA
ATOM      7  C   UNL     1      -4.457  -9.480   9.169  0.00  0.00    +0.070 C 
ATOM      8  C   UNL     1      -5.080  -8.245   9.844  0.00  0.00    +0.028 C 
ATOM      9  C   UNL     1      -4.565 -10.593  10.220  0.00  0.00    +0.096 C 
ATOM     10  C   UNL     1      -5.529  -8.731  11.216  0.00  0.00    +0.085 C 
ENDROOT
BRANCH   7  11
ATOM      4  N   UNL     1      -5.995  -9.050   7.232  0.00  0.00    -0.340 N 
ATOM      5  N   UNL     1      -4.831 -10.947   7.144  0.00  0.00    -0.213 NA
ATOM      6  N   UNL     1      -5.707 -11.733   5.022  0.00  0.00    -0.234 NA
ATOM     11  C   UNL     1      -5.076  -9.859   7.843  0.00  0.00    +0.114 A 
ATOM     14  C   UNL     1      -6.367  -9.656   6.063  0.00  0.00    +0.085 A 
ATOM     15  C   UNL     1      -5.628 -10.833   6.033  0.00  0.00    +0.178 A 
ATOM     18  C   UNL     1      -7.250  -9.315   5.044  0.00  0.00    +0.031 A 
ATOM     21  C   UNL     1      -7.343 -10.230   3.999  0.00  0.00    +0.022 A 
ATOM     23  C   UNL     1      -6.571 -11.387   4.039  0.00  0.00    +0.113 A 
ATOM     24  H   UNL     1      -6.339  -8.165   7.580  0.00  0.00    +0.167 HD
ENDBRANCH   7  11
BRANCH   3  12
ATOM     12  C   UNL     1      -5.066 -10.673  12.593  0.00  0.00    +0.119 C 
BRANCH  12  13
ATOM      1  F   UNL     1      -4.034 -10.737  17.363  0.00  0.00    -0.202 F 
ATOM      2  F   UNL     1      -1.353 -10.651  16.832  0.00  0.00    -0.202 F 
ATOM     13  C   UNL     1      -4.074 -10.667  13.726  0.00  0.00    -0.030 A 
ATOM     16  C   UNL     1      -4.523 -10.705  15.046  0.00  0.00    +0.046 A 
ATOM     17  C   UNL     1      -2.706 -10.623  13.455  0.00  0.00    +0.008 A 
ATOM     19  C   UNL     1      -3.603 -10.700  16.095  0.00  0.00    +0.159 A 
ATOM     20  C   UNL     1      -1.788 -10.618  14.503  0.00  0.00    +0.041 A 
ATOM     22  C   UNL     1      -2.235 -10.656  15.824  0.00  0.00    +0.158 A 
ENDBRANCH  12  13
ENDBRANCH   3  12
TORSDOF 3
ENDMDL
MODEL 9
REMARK VINA RESULT:      -6.4     29.249     32.479
REMARK  Name = 51137036
REMARK  3 active torsions:
REMARK  status: ('A' for Active; 'I' for Inactive)
REMARK    1  A    between atoms: N_3  and  C_12
REMARK    2  A    between atoms: C_7  and  C_11
REMARK    3  A    between atoms: C_12  and  C_13
REMARK                            x       y       z     vdW  Elec       q    Type
REMARK                         _______ _______ _______ _____ _____    ______ ____
ROOT
ATOM      3  N   UNL     1     -14.683   6.618  22.042  0.00  0.00    -0.297 NA
ATOM      7  C   UNL     1     -15.341   4.516  22.848  0.00  0.00    +0.070 C 
ATOM      8  C   UNL     1     -16.456   5.101  21.963  0.00  0.00    +0.028 C 
ATOM      9  C   UNL     1     -14.429   5.710  23.163  0.00  0.00    +0.096 C 
ATOM     10  C   UNL     1     -16.132   6.585  21.851  0.00  0.00    +0.085 C 
ENDROOT
BRANCH   7  11
ATOM      4  N   UNL     1     -16.043   2.450  24.088  0.00  0.00    -0.340 N 
ATOM      5  N   UNL     1     -16.081   4.344  25.259  0.00  0.00    -0.213 NA
ATOM      6  N   UNL     1     -16.855   3.382  27.349  0.00  0.00    -0.234 NA
ATOM     11  C   UNL     1     -15.823   3.800  24.089  0.00  0.00    +0.114 A 
ATOM     14  C   UNL     1     -16.470   2.100  25.339  0.00  0.00    +0.085 A 
ATOM     15  C   UNL     1     -16.485   3.295  26.047  0.00  0.00    +0.178 A 
ATOM     18  C   UNL     1     -16.839   0.892  25.925  0.00  0.00    +0.031 A 
ATOM     21  C   UNL     1     -17.223   0.966  27.261  0.00  0.00    +0.022 A 
ATOM     23  C   UNL     1     -17.211   2.200  27.904  0.00  0.00    +0.113 A 
ATOM     24  H   UNL     1     -15.914   1.822  23.305  0.00  0.00    +0.167 HD
ENDBRANCH   7  11
BRANCH   3  12
ATOM     12  C   UNL     1     -14.188   7.964  22.294  0.00  0.00    +0.119 C 
BRANCH  12  13
ATOM      1  F   UNL     1     -11.421  11.271  20.008  0.00  0.00    -0.202 F 
ATOM      2  F   UNL     1      -9.898   9.293  18.891  0.00  0.00    -0.202 F 
ATOM     13  C   UNL     1     -13.042   8.319  21.385  0.00  0.00    -0.030 A 
ATOM     16  C   UNL     1     -12.757   9.656  21.112  0.00  0.00    +0.046 A 
ATOM     17  C   UNL     1     -12.265   7.310  20.816  0.00  0.00    +0.008 A 
ATOM     19  C   UNL     1     -11.695   9.986  20.270  0.00  0.00    +0.159 A 
ATOM     20  C   UNL     1     -11.203   7.639  19.974  0.00  0.00    +0.041 A 
ATOM     22  C   UNL     1     -10.918   8.976  19.700  0.00  0.00    +0.158 A 
ENDBRANCH  12  13
ENDBRANCH   3  12
TORSDOF 3
ENDMDL
MODEL 10
REMARK VINA RESULT:      -6.3     28.685     31.243
REMARK  Name = 51137036
REMARK  3 active torsions:
REMARK  status: ('A' for Active; 'I' for Inactive)
REMARK    1  A    between atoms: N_3  and  C_12
REMARK    2  A    between atoms: C_7  and  C_11
REMARK    3  A    between atoms: C_12  and  C_13
REMARK                            x       y       z     vdW  Elec       q    Type
REMARK                         _______ _______ _______ _____ _____    ______ ____
ROOT
ATOM      3  N   UNL     1     -12.844   7.822  19.817  0.00  0.00    -0.297 NA
ATOM      7  C   UNL     1     -13.482   6.775  21.815  0.00  0.00    +0.070 C 
ATOM      8  C   UNL     1     -12.079   6.293  21.406  0.00  0.00    +0.028 C 
ATOM      9  C   UNL     1     -14.050   7.435  20.551  0.00  0.00    +0.096 C 
ATOM     10  C   UNL     1     -11.943   6.677  19.938  0.00  0.00    +0.085 C 
ENDROOT
BRANCH   7  11
ATOM      4  N   UNL     1     -14.321   5.334  23.692  0.00  0.00    -0.340 N 
ATOM      5  N   UNL     1     -15.296   5.017  21.715  0.00  0.00    -0.213 NA
ATOM      6  N   UNL     1     -16.829   3.272  22.420  0.00  0.00    -0.234 NA
ATOM     11  C   UNL     1     -14.386   5.700  22.375  0.00  0.00    +0.114 A 
ATOM     14  C   UNL     1     -15.249   4.350  23.894  0.00  0.00    +0.085 A 
ATOM     15  C   UNL     1     -15.841   4.172  22.650  0.00  0.00    +0.178 A 
ATOM     18  C   UNL     1     -15.634   3.607  25.006  0.00  0.00    +0.031 A 
ATOM     21  C   UNL     1     -16.646   2.678  24.785  0.00  0.00    +0.022 A 
ATOM     23  C   UNL     1     -17.191   2.557  23.511  0.00  0.00    +0.113 A 
ATOM     24  H   UNL     1     -13.699   5.719  24.391  0.00  0.00    +0.167 HD
ENDBRANCH   7  11
BRANCH   3  12
ATOM     12  C   UNL     1     -13.124   8.163  18.429  0.00  0.00    +0.119 C 
BRANCH  12  13
ATOM      1  F   UNL     1     -10.534  12.297  18.568  0.00  0.00    -0.202 F 
ATOM      2  F   UNL     1      -9.211  11.599  16.278  0.00  0.00    -0.202 F 
ATOM     13  C   UNL     1     -12.079   9.081  17.855  0.00  0.00    -0.030 A 
ATOM     16  C   UNL     1     -11.785  10.287  18.490  0.00  0.00    +0.046 A 
ATOM     17  C   UNL     1     -11.404   8.725  16.687  0.00  0.00    +0.008 A 
ATOM     19  C   UNL     1     -10.816  11.138  17.957  0.00  0.00    +0.159 A 
ATOM     20  C   UNL     1     -10.436   9.576  16.154  0.00  0.00    +0.041 A 
ATOM     22  C   UNL     1     -10.141  10.782  16.789  0.00  0.00    +0.158 A 
ENDBRANCH  12  13
ENDBRANCH   3  12
TORSDOF 3
ENDMDL
