MODEL 1
REMARK VINA RESULT:      -7.0      0.000      0.000
REMARK  Name = 11885218
REMARK  5 active torsions:
REMARK  status: ('A' for Active; 'I' for Inactive)
REMARK    1  A    between atoms: S_1  and  N_6
REMARK    2  A    between atoms: S_1  and  C_19
REMARK    3  A    between atoms: S_2  and  C_30
REMARK    4  A    between atoms: S_2  and  C_31
REMARK    5  A    between atoms: C_17  and  C_20
REMARK                            x       y       z     vdW  Elec       q    Type
REMARK                         _______ _______ _______ _____ _____    ______ ____
ROOT
ATOM      5  O   UNL     1     -14.905   9.294  19.863  0.00  0.00    -0.267 OA
ATOM      6  N   UNL     1     -11.417   9.586  16.314  0.00  0.00    -0.176 NA
ATOM      7  N   UNL     1     -12.676   9.502  19.210  0.00  0.00    -0.311 N 
ATOM      8  C   UNL     1     -11.814  11.502  17.863  0.00  0.00    +0.025 C 
ATOM      9  C   UNL     1     -10.265   9.711  18.514  0.00  0.00    +0.052 C 
ATOM     10  C   UNL     1     -10.489  11.220  18.559  0.00  0.00    +0.017 C 
ATOM     11  C   UNL     1     -11.767  11.032  16.400  0.00  0.00    +0.114 C 
ATOM     12  C   UNL     1     -10.160   9.251  17.048  0.00  0.00    +0.119 C 
ATOM     13  C   UNL     1     -12.944  10.837  18.657  0.00  0.00    +0.130 C 
ATOM     14  C   UNL     1     -11.384   8.971  19.221  0.00  0.00    +0.026 A 
ATOM     15  C   UNL     1     -11.142   7.802  19.836  0.00  0.00    +0.022 A 
ATOM     16  C   UNL     1     -13.760   8.841  19.820  0.00  0.00    +0.259 A 
ATOM     17  C   UNL     1     -13.464   7.516  20.469  0.00  0.00    +0.047 A 
ATOM     18  C   UNL     1     -12.202   7.064  20.462  0.00  0.00    +0.015 A 
ENDROOT
BRANCH  17  20
ATOM     20  C   UNL     1     -14.532   6.717  21.096  0.00  0.00    -0.013 A 
ATOM     23  C   UNL     1     -15.561   6.190  20.315  0.00  0.00    +0.010 A 
ATOM     24  C   UNL     1     -14.517   6.488  22.473  0.00  0.00    +0.010 A 
ATOM     28  C   UNL     1     -16.572   5.435  20.908  0.00  0.00    +0.015 A 
ATOM     29  C   UNL     1     -15.529   5.732  23.066  0.00  0.00    +0.015 A 
ATOM     30  C   UNL     1     -16.556   5.206  22.284  0.00  0.00    +0.008 A 
BRANCH  30   2
ATOM      2  S   UNL     1     -17.848   4.242  23.042  0.00  0.00    -0.129 S 
ATOM     31  C   UNL     1     -16.942   2.762  23.575  0.00  0.00    +0.090 C 
ENDBRANCH  30   2
ENDBRANCH  17  20
BRANCH   6   1
ATOM      1  S   UNL     1     -11.581   8.876  14.765  0.00  0.00    +0.061 S 
ATOM      3  O   UNL     1     -10.637   7.786  14.642  0.00  0.00    -0.153 OA
ATOM      4  O   UNL     1     -11.642   9.925  13.770  0.00  0.00    -0.153 OA
BRANCH   1  19
ATOM     19  C   UNL     1     -13.195   8.176  14.915  0.00  0.00    +0.105 A 
ATOM     21  C   UNL     1     -13.865   8.270  16.125  0.00  0.00    +0.028 A 
ATOM     22  C   UNL     1     -13.764   7.543  13.822  0.00  0.00    +0.028 A 
ATOM     25  C   UNL     1     -15.139   7.715  16.243  0.00  0.00    +0.002 A 
ATOM     26  C   UNL     1     -15.039   6.989  13.942  0.00  0.00    +0.002 A 
ATOM     27  C   UNL     1     -15.726   7.074  15.153  0.00  0.00    +0.000 A 
ENDBRANCH   1  19
ENDBRANCH   6   1
TORSDOF 4
ENDMDL
MODEL 2
REMARK VINA RESULT:      -7.0     27.070     30.472
REMARK  Name = 11885218
REMARK  5 active torsions:
REMARK  status: ('A' for Active; 'I' for Inactive)
REMARK    1  A    between atoms: S_1  and  N_6
REMARK    2  A    between atoms: S_1  and  C_19
REMARK    3  A    between atoms: S_2  and  C_30
REMARK    4  A    between atoms: S_2  and  C_31
REMARK    5  A    between atoms: C_17  and  C_20
REMARK                            x       y       z     vdW  Elec       q    Type
REMARK                         _______ _______ _______ _____ _____    ______ ____
ROOT
ATOM      5  O   UNL     1      12.063   7.864   2.103  0.00  0.00    -0.267 OA
ATOM      6  N   UNL     1      13.322   4.055  -0.854  0.00  0.00    -0.176 NA
ATOM      7  N   UNL     1      12.680   5.636   1.805  0.00  0.00    -0.311 N 
ATOM      8  C   UNL     1      14.942   4.951   0.820  0.00  0.00    +0.025 C 
ATOM      9  C   UNL     1      13.330   3.223   1.490  0.00  0.00    +0.052 C 
ATOM     10  C   UNL     1      14.771   3.695   1.665  0.00  0.00    +0.017 C 
ATOM     11  C   UNL     1      14.677   4.644  -0.663  0.00  0.00    +0.114 C 
ATOM     12  C   UNL     1      13.084   2.862   0.013  0.00  0.00    +0.119 C 
ATOM     13  C   UNL     1      14.020   6.047   1.366  0.00  0.00    +0.130 C 
ATOM     14  C   UNL     1      12.348   4.286   1.944  0.00  0.00    +0.026 A 
ATOM     15  C   UNL     1      11.158   3.934   2.458  0.00  0.00    +0.022 A 
ATOM     16  C   UNL     1      11.793   6.665   2.177  0.00  0.00    +0.259 A 
ATOM     17  C   UNL     1      10.453   6.240   2.716  0.00  0.00    +0.047 A 
ATOM     18  C   UNL     1      10.197   4.929   2.841  0.00  0.00    +0.015 A 
ENDROOT
BRANCH  17  20
ATOM     20  C   UNL     1       9.431   7.232   3.092  0.00  0.00    -0.013 A 
ATOM     23  C   UNL     1       8.850   8.042   2.116  0.00  0.00    +0.010 A 
ATOM     24  C   UNL     1       9.044   7.365   4.427  0.00  0.00    +0.010 A 
ATOM     28  C   UNL     1       7.883   8.981   2.472  0.00  0.00    +0.015 A 
ATOM     29  C   UNL     1       8.078   8.306   4.783  0.00  0.00    +0.015 A 
ATOM     30  C   UNL     1       7.498   9.114   3.806  0.00  0.00    +0.008 A 
BRANCH  30   2
ATOM      2  S   UNL     1       6.263  10.315   4.262  0.00  0.00    -0.129 S 
ATOM     31  C   UNL     1       5.130  10.237   2.846  0.00  0.00    +0.090 C 
ENDBRANCH  30   2
ENDBRANCH  17  20
BRANCH   6   1
ATOM      1  S   UNL     1      12.801   3.905  -2.477  0.00  0.00    +0.061 S 
ATOM      3  O   UNL     1      12.598   2.504  -2.781  0.00  0.00    -0.153 OA
ATOM      4  O   UNL     1      13.636   4.736  -3.318  0.00  0.00    -0.153 OA
BRANCH   1  19
ATOM     19  C   UNL     1      11.213   4.668  -2.364  0.00  0.00    +0.105 A 
ATOM     21  C   UNL     1      10.901   5.420  -1.243  0.00  0.00    +0.028 A 
ATOM     22  C   UNL     1      10.305   4.500  -3.397  0.00  0.00    +0.028 A 
ATOM     25  C   UNL     1       9.645   6.021  -1.154  0.00  0.00    +0.002 A 
ATOM     26  C   UNL     1       9.050   5.102  -3.307  0.00  0.00    +0.002 A 
ATOM     27  C   UNL     1       8.720   5.862  -2.185  0.00  0.00    +0.000 A 
ENDBRANCH   1  19
ENDBRANCH   6   1
TORSDOF 4
ENDMDL
MODEL 3
REMARK VINA RESULT:      -6.8     21.145     22.538
REMARK  Name = 11885218
REMARK  5 active torsions:
REMARK  status: ('A' for Active; 'I' for Inactive)
REMARK    1  A    between atoms: S_1  and  N_6
REMARK    2  A    between atoms: S_1  and  C_19
REMARK    3  A    between atoms: S_2  and  C_30
REMARK    4  A    between atoms: S_2  and  C_31
REMARK    5  A    between atoms: C_17  and  C_20
REMARK                            x       y       z     vdW  Elec       q    Type
REMARK                         _______ _______ _______ _____ _____    ______ ____
ROOT
ATOM      5  O   UNL     1      -6.559 -10.599  14.398  0.00  0.00    -0.267 OA
ATOM      6  N   UNL     1      -2.339 -12.955  13.178  0.00  0.00    -0.176 NA
ATOM      7  N   UNL     1      -4.231 -10.689  14.306  0.00  0.00    -0.311 N 
ATOM      8  C   UNL     1      -2.941 -10.787  12.096  0.00  0.00    +0.025 C 
ATOM      9  C   UNL     1      -1.715 -10.787  14.224  0.00  0.00    +0.052 C 
ATOM     10  C   UNL     1      -1.834 -10.087  12.873  0.00  0.00    +0.017 C 
ATOM     11  C   UNL     1      -2.593 -12.270  11.880  0.00  0.00    +0.114 C 
ATOM     12  C   UNL     1      -1.311 -12.256  14.007  0.00  0.00    +0.119 C 
ATOM     13  C   UNL     1      -4.267 -10.598  12.840  0.00  0.00    +0.130 C 
ATOM     14  C   UNL     1      -3.017 -10.706  14.998  0.00  0.00    +0.026 A 
ATOM     15  C   UNL     1      -3.008 -10.671  16.340  0.00  0.00    +0.022 A 
ATOM     16  C   UNL     1      -5.471 -10.651  14.973  0.00  0.00    +0.259 A 
ATOM     17  C   UNL     1      -5.428 -10.649  16.478  0.00  0.00    +0.047 A 
ATOM     18  C   UNL     1      -4.233 -10.649  17.087  0.00  0.00    +0.015 A 
ENDROOT
BRANCH  17  20
ATOM     20  C   UNL     1      -6.666 -10.657  17.277  0.00  0.00    -0.013 A 
ATOM     23  C   UNL     1      -7.566  -9.595  17.182  0.00  0.00    +0.010 A 
ATOM     24  C   UNL     1      -6.940 -11.726  18.131  0.00  0.00    +0.010 A 
ATOM     28  C   UNL     1      -8.737  -9.602  17.938  0.00  0.00    +0.015 A 
ATOM     29  C   UNL     1      -8.111 -11.732  18.888  0.00  0.00    +0.015 A 
ATOM     30  C   UNL     1      -9.010 -10.671  18.792  0.00  0.00    +0.008 A 
BRANCH  30   2
ATOM      2  S   UNL     1     -10.506 -10.679  19.759  0.00  0.00    -0.129 S 
ATOM     31  C   UNL     1     -10.535 -12.384  20.383  0.00  0.00    +0.090 C 
ENDBRANCH  30   2
ENDBRANCH  17  20
BRANCH   6   1
ATOM      1  S   UNL     1      -2.194 -14.658  13.101  0.00  0.00    +0.061 S 
ATOM      3  O   UNL     1      -0.814 -15.027  13.334  0.00  0.00    -0.153 OA
ATOM      4  O   UNL     1      -2.907 -15.139  11.937  0.00  0.00    -0.153 OA
BRANCH   1  19
ATOM     19  C   UNL     1      -3.122 -15.113  14.533  0.00  0.00    +0.105 A 
ATOM     21  C   UNL     1      -4.113 -14.262  14.996  0.00  0.00    +0.028 A 
ATOM     22  C   UNL     1      -2.844 -16.311  15.169  0.00  0.00    +0.028 A 
ATOM     25  C   UNL     1      -4.844 -14.620  16.128  0.00  0.00    +0.002 A 
ATOM     26  C   UNL     1      -3.577 -16.669  16.301  0.00  0.00    +0.002 A 
ATOM     27  C   UNL     1      -4.576 -15.824  16.781  0.00  0.00    +0.000 A 
ENDBRANCH   1  19
ENDBRANCH   6   1
TORSDOF 4
ENDMDL
MODEL 4
REMARK VINA RESULT:      -6.7     14.599     17.208
REMARK  Name = 11885218
REMARK  5 active torsions:
REMARK  status: ('A' for Active; 'I' for Inactive)
REMARK    1  A    between atoms: S_1  and  N_6
REMARK    2  A    between atoms: S_1  and  C_19
REMARK    3  A    between atoms: S_2  and  C_30
REMARK    4  A    between atoms: S_2  and  C_31
REMARK    5  A    between atoms: C_17  and  C_20
REMARK                            x       y       z     vdW  Elec       q    Type
REMARK                         _______ _______ _______ _____ _____    ______ ____
ROOT
ATOM      5  O   UNL     1      -6.534   9.690   5.443  0.00  0.00    -0.267 OA
ATOM      6  N   UNL     1      -1.813  10.497   4.061  0.00  0.00    -0.176 NA
ATOM      7  N   UNL     1      -4.249   9.279   5.663  0.00  0.00    -0.311 N 
ATOM      8  C   UNL     1      -2.582  11.093   6.360  0.00  0.00    +0.025 C 
ATOM      9  C   UNL     1      -1.784   8.818   5.895  0.00  0.00    +0.052 C 
ATOM     10  C   UNL     1      -1.777   9.935   6.935  0.00  0.00    +0.017 C 
ATOM     11  C   UNL     1      -1.944  11.599   5.056  0.00  0.00    +0.114 C 
ATOM     12  C   UNL     1      -1.094   9.308   4.609  0.00  0.00    +0.119 C 
ATOM     13  C   UNL     1      -4.034  10.642   6.167  0.00  0.00    +0.130 C 
ATOM     14  C   UNL     1      -3.198   8.360   5.593  0.00  0.00    +0.026 A 
ATOM     15  C   UNL     1      -3.440   7.088   5.242  0.00  0.00    +0.022 A 
ATOM     16  C   UNL     1      -5.577   8.919   5.359  0.00  0.00    +0.259 A 
ATOM     17  C   UNL     1      -5.810   7.495   4.933  0.00  0.00    +0.047 A 
ATOM     18  C   UNL     1      -4.765   6.654   4.901  0.00  0.00    +0.015 A 
ENDROOT
BRANCH  17  20
ATOM     20  C   UNL     1      -7.151   7.023   4.548  0.00  0.00    -0.013 A 
ATOM     23  C   UNL     1      -7.759   5.988   5.259  0.00  0.00    +0.010 A 
ATOM     24  C   UNL     1      -7.815   7.610   3.470  0.00  0.00    +0.010 A 
ATOM     28  C   UNL     1      -9.028   5.541   4.895  0.00  0.00    +0.015 A 
ATOM     29  C   UNL     1      -9.085   7.162   3.105  0.00  0.00    +0.015 A 
ATOM     30  C   UNL     1      -9.691   6.128   3.816  0.00  0.00    +0.008 A 
BRANCH  30   2
ATOM      2  S   UNL     1     -11.313   5.556   3.350  0.00  0.00    -0.129 S 
ATOM     31  C   UNL     1     -12.043   5.157   4.963  0.00  0.00    +0.090 C 
ENDBRANCH  30   2
ENDBRANCH  17  20
BRANCH   6   1
ATOM      1  S   UNL     1      -1.357  10.974   2.483  0.00  0.00    +0.061 S 
ATOM      3  O   UNL     1      -0.366  10.049   1.976  0.00  0.00    -0.153 OA
ATOM      4  O   UNL     1      -1.118  12.402   2.473  0.00  0.00    -0.153 OA
BRANCH   1  19
ATOM     19  C   UNL     1      -2.868  10.670   1.620  0.00  0.00    +0.105 A 
ATOM     21  C   UNL     1      -4.007  10.348   2.341  0.00  0.00    +0.028 A 
ATOM     22  C   UNL     1      -2.889  10.758   0.238  0.00  0.00    +0.028 A 
ATOM     25  C   UNL     1      -5.199  10.106   1.658  0.00  0.00    +0.002 A 
ATOM     26  C   UNL     1      -4.082  10.517  -0.443  0.00  0.00    +0.002 A 
ATOM     27  C   UNL     1      -5.237  10.190   0.267  0.00  0.00    +0.000 A 
ENDBRANCH   1  19
ENDBRANCH   6   1
TORSDOF 4
ENDMDL
MODEL 5
REMARK VINA RESULT:      -6.6     20.873     22.865
REMARK  Name = 11885218
REMARK  5 active torsions:
REMARK  status: ('A' for Active; 'I' for Inactive)
REMARK    1  A    between atoms: S_1  and  N_6
REMARK    2  A    between atoms: S_1  and  C_19
REMARK    3  A    between atoms: S_2  and  C_30
REMARK    4  A    between atoms: S_2  and  C_31
REMARK    5  A    between atoms: C_17  and  C_20
REMARK                            x       y       z     vdW  Elec       q    Type
REMARK                         _______ _______ _______ _____ _____    ______ ____
ROOT
ATOM      5  O   UNL     1      -5.248 -12.705  10.220  0.00  0.00    -0.267 OA
ATOM      6  N   UNL     1      -3.597 -11.963  14.865  0.00  0.00    -0.176 NA
ATOM      7  N   UNL     1      -3.514 -12.286  11.723  0.00  0.00    -0.311 N 
ATOM      8  C   UNL     1      -2.843 -13.948  13.551  0.00  0.00    +0.025 C 
ATOM      9  C   UNL     1      -1.640 -11.817  13.338  0.00  0.00    +0.052 C 
ATOM     10  C   UNL     1      -1.458 -13.331  13.407  0.00  0.00    +0.017 C 
ATOM     11  C   UNL     1      -3.523 -13.451  14.838  0.00  0.00    +0.114 C 
ATOM     12  C   UNL     1      -2.268 -11.315  14.650  0.00  0.00    +0.119 C 
ATOM     13  C   UNL     1      -3.662 -13.631  12.295  0.00  0.00    +0.130 C 
ATOM     14  C   UNL     1      -2.503 -11.424  12.155  0.00  0.00    +0.026 A 
ATOM     15  C   UNL     1      -2.313 -10.247  11.537  0.00  0.00    +0.022 A 
ATOM     16  C   UNL     1      -4.369 -11.957  10.652  0.00  0.00    +0.259 A 
ATOM     17  C   UNL     1      -4.155 -10.615  10.004  0.00  0.00    +0.047 A 
ATOM     18  C   UNL     1      -3.158  -9.838  10.452  0.00  0.00    +0.015 A 
ENDROOT
BRANCH  17  20
ATOM     20  C   UNL     1      -5.021 -10.150   8.907  0.00  0.00    -0.013 A 
ATOM     23  C   UNL     1      -4.832 -10.637   7.613  0.00  0.00    +0.010 A 
ATOM     24  C   UNL     1      -6.032  -9.222   9.161  0.00  0.00    +0.010 A 
ATOM     28  C   UNL     1      -5.652 -10.196   6.575  0.00  0.00    +0.015 A 
ATOM     29  C   UNL     1      -6.852  -8.781   8.121  0.00  0.00    +0.015 A 
ATOM     30  C   UNL     1      -6.662  -9.267   6.829  0.00  0.00    +0.008 A 
BRANCH  30   2
ATOM      2  S   UNL     1      -7.708  -8.704   5.502  0.00  0.00    -0.129 S 
ATOM     31  C   UNL     1      -8.563  -7.301   6.274  0.00  0.00    +0.090 C 
ENDBRANCH  30   2
ENDBRANCH  17  20
BRANCH   6   1
ATOM      1  S   UNL     1      -4.555 -11.291  16.113  0.00  0.00    +0.061 S 
ATOM      3  O   UNL     1      -3.842 -10.184  16.714  0.00  0.00    -0.153 OA
ATOM      4  O   UNL     1      -5.087 -12.364  16.927  0.00  0.00    -0.153 OA
BRANCH   1  19
ATOM     19  C   UNL     1      -5.883 -10.623  15.159  0.00  0.00    +0.105 A 
ATOM     21  C   UNL     1      -7.121 -10.445  15.755  0.00  0.00    +0.028 A 
ATOM     22  C   UNL     1      -5.664 -10.290  13.833  0.00  0.00    +0.028 A 
ATOM     25  C   UNL     1      -8.170  -9.919  15.001  0.00  0.00    +0.002 A 
ATOM     26  C   UNL     1      -6.713  -9.763  13.080  0.00  0.00    +0.002 A 
ATOM     27  C   UNL     1      -7.967  -9.578  13.663  0.00  0.00    +0.000 A 
ENDBRANCH   1  19
ENDBRANCH   6   1
TORSDOF 4
ENDMDL
MODEL 6
REMARK VINA RESULT:      -6.6     26.674     30.628
REMARK  Name = 11885218
REMARK  5 active torsions:
REMARK  status: ('A' for Active; 'I' for Inactive)
REMARK    1  A    between atoms: S_1  and  N_6
REMARK    2  A    between atoms: S_1  and  C_19
REMARK    3  A    between atoms: S_2  and  C_30
REMARK    4  A    between atoms: S_2  and  C_31
REMARK    5  A    between atoms: C_17  and  C_20
REMARK                            x       y       z     vdW  Elec       q    Type
REMARK                         _______ _______ _______ _____ _____    ______ ____
ROOT
ATOM      5  O   UNL     1      10.376   7.123   1.041  0.00  0.00    -0.267 OA
ATOM      6  N   UNL     1      11.063   7.054   5.978  0.00  0.00    -0.176 NA
ATOM      7  N   UNL     1       9.939   6.219   3.146  0.00  0.00    -0.311 N 
ATOM      8  C   UNL     1       8.815   7.558   5.016  0.00  0.00    +0.025 C 
ATOM      9  C   UNL     1       9.474   5.226   5.413  0.00  0.00    +0.052 C 
ATOM     10  C   UNL     1       8.304   6.203   5.488  0.00  0.00    +0.017 C 
ATOM     11  C   UNL     1       9.955   8.050   5.922  0.00  0.00    +0.114 C 
ATOM     12  C   UNL     1      10.592   5.690   6.364  0.00  0.00    +0.119 C 
ATOM     13  C   UNL     1       9.239   7.446   3.548  0.00  0.00    +0.130 C 
ATOM     14  C   UNL     1      10.001   5.111   3.995  0.00  0.00    +0.026 A 
ATOM     15  C   UNL     1      10.543   3.961   3.564  0.00  0.00    +0.022 A 
ATOM     16  C   UNL     1      10.445   6.180   1.831  0.00  0.00    +0.259 A 
ATOM     17  C   UNL     1      11.079   4.889   1.389  0.00  0.00    +0.047 A 
ATOM     18  C   UNL     1      11.094   3.855   2.243  0.00  0.00    +0.015 A 
ENDROOT
BRANCH  17  20
ATOM     20  C   UNL     1      11.681   4.753   0.051  0.00  0.00    -0.013 A 
ATOM     23  C   UNL     1      10.907   4.311  -1.022  0.00  0.00    +0.010 A 
ATOM     24  C   UNL     1      13.027   5.065  -0.144  0.00  0.00    +0.010 A 
ATOM     28  C   UNL     1      11.477   4.182  -2.288  0.00  0.00    +0.015 A 
ATOM     29  C   UNL     1      13.597   4.936  -1.410  0.00  0.00    +0.015 A 
ATOM     30  C   UNL     1      12.823   4.494  -2.482  0.00  0.00    +0.008 A 
BRANCH  30   2
ATOM      2  S   UNL     1      13.552   4.328  -4.099  0.00  0.00    -0.129 S 
ATOM     31  C   UNL     1      12.385   3.205  -4.918  0.00  0.00    +0.090 C 
ENDBRANCH  30   2
ENDBRANCH  17  20
BRANCH   6   1
ATOM      1  S   UNL     1      12.499   7.585   6.741  0.00  0.00    +0.061 S 
ATOM      3  O   UNL     1      12.912   6.595   7.714  0.00  0.00    -0.153 OA
ATOM      4  O   UNL     1      12.349   8.976   7.112  0.00  0.00    -0.153 OA
BRANCH   1  19
ATOM     19  C   UNL     1      13.621   7.504   5.380  0.00  0.00    +0.105 A 
ATOM     21  C   UNL     1      13.126   7.266   4.108  0.00  0.00    +0.028 A 
ATOM     22  C   UNL     1      14.976   7.677   5.607  0.00  0.00    +0.028 A 
ATOM     25  C   UNL     1      14.013   7.200   3.033  0.00  0.00    +0.002 A 
ATOM     26  C   UNL     1      15.862   7.612   4.532  0.00  0.00    +0.002 A 
ATOM     27  C   UNL     1      15.381   7.372   3.245  0.00  0.00    +0.000 A 
ENDBRANCH   1  19
ENDBRANCH   6   1
TORSDOF 4
ENDMDL
MODEL 7
REMARK VINA RESULT:      -6.5     29.893     31.662
REMARK  Name = 11885218
REMARK  5 active torsions:
REMARK  status: ('A' for Active; 'I' for Inactive)
REMARK    1  A    between atoms: S_1  and  N_6
REMARK    2  A    between atoms: S_1  and  C_19
REMARK    3  A    between atoms: S_2  and  C_30
REMARK    4  A    between atoms: S_2  and  C_31
REMARK    5  A    between atoms: C_17  and  C_20
REMARK                            x       y       z     vdW  Elec       q    Type
REMARK                         _______ _______ _______ _____ _____    ______ ____
ROOT
ATOM      5  O   UNL     1       9.297 -11.626  31.832  0.00  0.00    -0.267 OA
ATOM      6  N   UNL     1       7.287  -8.619  35.262  0.00  0.00    -0.176 NA
ATOM      7  N   UNL     1       8.571  -9.519  32.519  0.00  0.00    -0.311 N 
ATOM      8  C   UNL     1       9.633  -8.267  34.484  0.00  0.00    +0.025 C 
ATOM      9  C   UNL     1       7.774  -7.244  33.248  0.00  0.00    +0.052 C 
ATOM     10  C   UNL     1       9.202  -7.013  33.736  0.00  0.00    +0.017 C 
ATOM     11  C   UNL     1       8.712  -8.520  35.689  0.00  0.00    +0.114 C 
ATOM     12  C   UNL     1       6.843  -7.440  34.458  0.00  0.00    +0.119 C 
ATOM     13  C   UNL     1       9.657  -9.446  33.506  0.00  0.00    +0.130 C 
ATOM     14  C   UNL     1       7.699  -8.445  32.324  0.00  0.00    +0.026 A 
ATOM     15  C   UNL     1       6.789  -8.487  31.338  0.00  0.00    +0.022 A 
ATOM     16  C   UNL     1       8.523 -10.674  31.715  0.00  0.00    +0.259 A 
ATOM     17  C   UNL     1       7.469 -10.707  30.641  0.00  0.00    +0.047 A 
ATOM     18  C   UNL     1       6.671  -9.639  30.491  0.00  0.00    +0.015 A 
ENDROOT
BRANCH  17  20
ATOM     20  C   UNL     1       7.299 -11.885  29.773  0.00  0.00    -0.013 A 
ATOM     23  C   UNL     1       8.145 -12.074  28.679  0.00  0.00    +0.010 A 
ATOM     24  C   UNL     1       6.292 -12.813  30.043  0.00  0.00    +0.010 A 
ATOM     28  C   UNL     1       7.984 -13.189  27.857  0.00  0.00    +0.015 A 
ATOM     29  C   UNL     1       6.132 -13.928  29.219  0.00  0.00    +0.015 A 
ATOM     30  C   UNL     1       6.977 -14.116  28.127  0.00  0.00    +0.008 A 
BRANCH  30   2
ATOM      2  S   UNL     1       6.771 -15.540  27.076  0.00  0.00    -0.129 S 
ATOM     31  C   UNL     1       5.322 -16.342  27.818  0.00  0.00    +0.090 C 
ENDBRANCH  30   2
ENDBRANCH  17  20
BRANCH   6   1
ATOM      1  S   UNL     1       6.190  -9.152  36.462  0.00  0.00    +0.061 S 
ATOM      3  O   UNL     1       5.262  -8.083  36.763  0.00  0.00    -0.153 OA
ATOM      4  O   UNL     1       6.929  -9.815  37.515  0.00  0.00    -0.153 OA
BRANCH   1  19
ATOM     19  C   UNL     1       5.313 -10.386  35.553  0.00  0.00    +0.105 A 
ATOM     21  C   UNL     1       5.951 -11.040  34.511  0.00  0.00    +0.028 A 
ATOM     22  C   UNL     1       4.003 -10.678  35.895  0.00  0.00    +0.028 A 
ATOM     25  C   UNL     1       5.257 -12.014  33.792  0.00  0.00    +0.002 A 
ATOM     26  C   UNL     1       3.311 -11.653  35.176  0.00  0.00    +0.002 A 
ATOM     27  C   UNL     1       3.938 -12.320  34.124  0.00  0.00    +0.000 A 
ENDBRANCH   1  19
ENDBRANCH   6   1
TORSDOF 4
ENDMDL
MODEL 8
REMARK VINA RESULT:      -6.4     29.556     31.210
REMARK  Name = 11885218
REMARK  5 active torsions:
REMARK  status: ('A' for Active; 'I' for Inactive)
REMARK    1  A    between atoms: S_1  and  N_6
REMARK    2  A    between atoms: S_1  and  C_19
REMARK    3  A    between atoms: S_2  and  C_30
REMARK    4  A    between atoms: S_2  and  C_31
REMARK    5  A    between atoms: C_17  and  C_20
REMARK                            x       y       z     vdW  Elec       q    Type
REMARK                         _______ _______ _______ _____ _____    ______ ____
ROOT
ATOM      5  O   UNL     1       9.316  -9.535  33.211  0.00  0.00    -0.267 OA
ATOM      6  N   UNL     1       7.996  -6.032  36.502  0.00  0.00    -0.176 NA
ATOM      7  N   UNL     1       8.656  -7.355  33.710  0.00  0.00    -0.311 N 
ATOM      8  C   UNL     1      10.076  -5.778  35.144  0.00  0.00    +0.025 C 
ATOM      9  C   UNL     1       7.928  -5.003  34.239  0.00  0.00    +0.052 C 
ATOM     10  C   UNL     1       9.415  -4.672  34.331  0.00  0.00    +0.017 C 
ATOM     11  C   UNL     1       9.474  -5.842  36.557  0.00  0.00    +0.114 C 
ATOM     12  C   UNL     1       7.315  -5.010  35.652  0.00  0.00    +0.119 C 
ATOM     13  C   UNL     1       9.936  -7.103  34.386  0.00  0.00    +0.130 C 
ATOM     14  C   UNL     1       7.706  -6.341  33.561  0.00  0.00    +0.026 A 
ATOM     15  C   UNL     1       6.596  -6.560  32.838  0.00  0.00    +0.022 A 
ATOM     16  C   UNL     1       8.486  -8.628  33.132  0.00  0.00    +0.259 A 
ATOM     17  C   UNL     1       7.215  -8.855  32.359  0.00  0.00    +0.047 A 
ATOM     18  C   UNL     1       6.348  -7.839  32.236  0.00  0.00    +0.015 A 
ENDROOT
BRANCH  17  20
ATOM     20  C   UNL     1       6.913 -10.163  31.752  0.00  0.00    -0.013 A 
ATOM     23  C   UNL     1       7.168 -10.381  30.397  0.00  0.00    +0.010 A 
ATOM     24  C   UNL     1       6.370 -11.186  32.531  0.00  0.00    +0.010 A 
ATOM     28  C   UNL     1       6.882 -11.619  29.823  0.00  0.00    +0.015 A 
ATOM     29  C   UNL     1       6.083 -12.424  31.956  0.00  0.00    +0.015 A 
ATOM     30  C   UNL     1       6.339 -12.640  30.603  0.00  0.00    +0.008 A 
BRANCH  30   2
ATOM      2  S   UNL     1       5.972 -14.222  29.869  0.00  0.00    -0.129 S 
ATOM     31  C   UNL     1       4.210 -14.047  29.472  0.00  0.00    +0.090 C 
ENDBRANCH  30   2
ENDBRANCH  17  20
BRANCH   6   1
ATOM      1  S   UNL     1       7.237  -6.375  37.997  0.00  0.00    +0.061 S 
ATOM      3  O   UNL     1       6.589  -5.177  38.485  0.00  0.00    -0.153 OA
ATOM      4  O   UNL     1       8.157  -7.118  38.832  0.00  0.00    -0.153 OA
BRANCH   1  19
ATOM     19  C   UNL     1       5.977  -7.488  37.455  0.00  0.00    +0.105 A 
ATOM     21  C   UNL     1       6.202  -8.272  36.335  0.00  0.00    +0.028 A 
ATOM     22  C   UNL     1       4.786  -7.556  38.158  0.00  0.00    +0.028 A 
ATOM     25  C   UNL     1       5.206  -9.150  35.907  0.00  0.00    +0.002 A 
ATOM     26  C   UNL     1       3.790  -8.435  37.729  0.00  0.00    +0.002 A 
ATOM     27  C   UNL     1       4.000  -9.231  36.603  0.00  0.00    +0.000 A 
ENDBRANCH   1  19
ENDBRANCH   6   1
TORSDOF 4
ENDMDL
MODEL 9
REMARK VINA RESULT:      -6.1     26.864     29.362
REMARK  Name = 11885218
REMARK  5 active torsions:
REMARK  status: ('A' for Active; 'I' for Inactive)
REMARK    1  A    between atoms: S_1  and  N_6
REMARK    2  A    between atoms: S_1  and  C_19
REMARK    3  A    between atoms: S_2  and  C_30
REMARK    4  A    between atoms: S_2  and  C_31
REMARK    5  A    between atoms: C_17  and  C_20
REMARK                            x       y       z     vdW  Elec       q    Type
REMARK                         _______ _______ _______ _____ _____    ______ ____
ROOT
ATOM      5  O   UNL     1      12.845   7.922   3.811  0.00  0.00    -0.267 OA
ATOM      6  N   UNL     1      11.543   5.123  -0.102  0.00  0.00    -0.176 NA
ATOM      7  N   UNL     1      12.380   5.846   2.857  0.00  0.00    -0.311 N 
ATOM      8  C   UNL     1      13.786   4.854   0.961  0.00  0.00    +0.025 C 
ATOM      9  C   UNL     1      11.864   3.601   1.838  0.00  0.00    +0.052 C 
ATOM     10  C   UNL     1      13.357   3.510   1.535  0.00  0.00    +0.017 C 
ATOM     11  C   UNL     1      13.015   5.157  -0.334  0.00  0.00    +0.114 C 
ATOM     12  C   UNL     1      11.089   3.848   0.531  0.00  0.00    +0.119 C 
ATOM     13  C   UNL     1      13.589   5.936   2.028  0.00  0.00    +0.130 C 
ATOM     14  C   UNL     1      11.575   4.704   2.839  0.00  0.00    +0.026 A 
ATOM     15  C   UNL     1      10.543   4.594   3.690  0.00  0.00    +0.022 A 
ATOM     16  C   UNL     1      12.138   6.916   3.741  0.00  0.00    +0.259 A 
ATOM     17  C   UNL     1      10.951   6.780   4.657  0.00  0.00    +0.047 A 
ATOM     18  C   UNL     1      10.225   5.653   4.605  0.00  0.00    +0.015 A 
ENDROOT
BRANCH  17  20
ATOM     20  C   UNL     1      10.578   7.859   5.589  0.00  0.00    -0.013 A 
ATOM     23  C   UNL     1      11.089   7.868   6.887  0.00  0.00    +0.010 A 
ATOM     24  C   UNL     1       9.713   8.872   5.174  0.00  0.00    +0.010 A 
ATOM     28  C   UNL     1      10.736   8.889   7.769  0.00  0.00    +0.015 A 
ATOM     29  C   UNL     1       9.359   9.893   6.057  0.00  0.00    +0.015 A 
ATOM     30  C   UNL     1       9.870   9.901   7.353  0.00  0.00    +0.008 A 
BRANCH  30   2
ATOM      2  S   UNL     1       9.418  11.205   8.481  0.00  0.00    -0.129 S 
ATOM     31  C   UNL     1      10.855  11.252   9.589  0.00  0.00    +0.090 C 
ENDBRANCH  30   2
ENDBRANCH  17  20
BRANCH   6   1
ATOM      1  S   UNL     1      10.576   5.692  -1.394  0.00  0.00    +0.061 S 
ATOM      3  O   UNL     1       9.566   4.703  -1.701  0.00  0.00    -0.153 OA
ATOM      4  O   UNL     1      11.438   6.223  -2.429  0.00  0.00    -0.153 OA
BRANCH   1  19
ATOM     19  C   UNL     1       9.775   7.053  -0.603  0.00  0.00    +0.105 A 
ATOM     21  C   UNL     1       8.981   7.903  -1.358  0.00  0.00    +0.028 A 
ATOM     22  C   UNL     1       9.955   7.250   0.756  0.00  0.00    +0.028 A 
ATOM     25  C   UNL     1       8.350   8.979  -0.733  0.00  0.00    +0.002 A 
ATOM     26  C   UNL     1       9.322   8.325   1.379  0.00  0.00    +0.002 A 
ATOM     27  C   UNL     1       8.521   9.191   0.635  0.00  0.00    +0.000 A 
ENDBRANCH   1  19
ENDBRANCH   6   1
TORSDOF 4
ENDMDL
MODEL 10
REMARK VINA RESULT:      -6.0     26.844     30.208
REMARK  Name = 11885218
REMARK  5 active torsions:
REMARK  status: ('A' for Active; 'I' for Inactive)
REMARK    1  A    between atoms: S_1  and  N_6
REMARK    2  A    between atoms: S_1  and  C_19
REMARK    3  A    between atoms: S_2  and  C_30
REMARK    4  A    between atoms: S_2  and  C_31
REMARK    5  A    between atoms: C_17  and  C_20
REMARK                            x       y       z     vdW  Elec       q    Type
REMARK                         _______ _______ _______ _____ _____    ______ ____
ROOT
ATOM      5  O   UNL     1      12.749   7.556   2.407  0.00  0.00    -0.267 OA
ATOM      6  N   UNL     1      11.636   4.918  -1.674  0.00  0.00    -0.176 NA
ATOM      7  N   UNL     1      12.748   5.551   1.215  0.00  0.00    -0.311 N 
ATOM      8  C   UNL     1      14.014   5.259  -0.992  0.00  0.00    +0.025 C 
ATOM      9  C   UNL     1      12.737   3.379  -0.060  0.00  0.00    +0.052 C 
ATOM     10  C   UNL     1      14.110   3.796  -0.580  0.00  0.00    +0.017 C 
ATOM     11  C   UNL     1      12.965   5.439  -2.102  0.00  0.00    +0.114 C 
ATOM     12  C   UNL     1      11.699   3.506  -1.190  0.00  0.00    +0.119 C 
ATOM     13  C   UNL     1      13.706   6.105   0.248  0.00  0.00    +0.130 C 
ATOM     14  C   UNL     1      12.325   4.222   1.132  0.00  0.00    +0.026 A 
ATOM     15  C   UNL     1      11.543   3.704   2.092  0.00  0.00    +0.022 A 
ATOM     16  C   UNL     1      12.368   6.391   2.281  0.00  0.00    +0.259 A 
ATOM     17  C   UNL     1      11.461   5.792   3.322  0.00  0.00    +0.047 A 
ATOM     18  C   UNL     1      11.101   4.506   3.197  0.00  0.00    +0.015 A 
ENDROOT
BRANCH  17  20
ATOM     20  C   UNL     1      10.964   6.593   4.454  0.00  0.00    -0.013 A 
ATOM     23  C   UNL     1       9.785   7.328   4.326  0.00  0.00    +0.010 A 
ATOM     24  C   UNL     1      11.673   6.619   5.656  0.00  0.00    +0.010 A 
ATOM     28  C   UNL     1       9.315   8.086   5.398  0.00  0.00    +0.015 A 
ATOM     29  C   UNL     1      11.203   7.379   6.727  0.00  0.00    +0.015 A 
ATOM     30  C   UNL     1      10.025   8.112   6.599  0.00  0.00    +0.008 A 
BRANCH  30   2
ATOM      2  S   UNL     1       9.425   9.082   7.967  0.00  0.00    -0.129 S 
ATOM     31  C   UNL     1       9.473  10.761   7.280  0.00  0.00    +0.090 C 
ENDBRANCH  30   2
ENDBRANCH  17  20
BRANCH   6   1
ATOM      1  S   UNL     1      10.327   5.287  -2.711  0.00  0.00    +0.061 S 
ATOM      3  O   UNL     1       9.378   4.194  -2.682  0.00  0.00    -0.153 OA
ATOM      4  O   UNL     1      10.846   5.790  -3.965  0.00  0.00    -0.153 OA
BRANCH   1  19
ATOM     19  C   UNL     1       9.612   6.645  -1.836  0.00  0.00    +0.105 A 
ATOM     21  C   UNL     1       9.955   6.851  -0.509  0.00  0.00    +0.028 A 
ATOM     22  C   UNL     1       8.720   7.478  -2.490  0.00  0.00    +0.028 A 
ATOM     25  C   UNL     1       9.389   7.922   0.182  0.00  0.00    +0.002 A 
ATOM     26  C   UNL     1       8.155   8.550  -1.798  0.00  0.00    +0.002 A 
ATOM     27  C   UNL     1       8.489   8.771  -0.462  0.00  0.00    +0.000 A 
ENDBRANCH   1  19
ENDBRANCH   6   1
TORSDOF 4
ENDMDL
