MODEL 1
REMARK VINA RESULT:      -7.7      0.000      0.000
REMARK  Name = 11883407
REMARK  7 active torsions:
REMARK  status: ('A' for Active; 'I' for Inactive)
REMARK    1  A    between atoms: O_6  and  C_15
REMARK    2  A    between atoms: O_6  and  C_19
REMARK    3  A    between atoms: N_9  and  C_14
REMARK    4  A    between atoms: N_10  and  C_20
REMARK    5  A    between atoms: N_11  and  C_21
REMARK    6  A    between atoms: C_20  and  C_22
REMARK    7  A    between atoms: C_27  and  C_32
REMARK                            x       y       z     vdW  Elec       q    Type
REMARK                         _______ _______ _______ _____ _____    ______ ____
ROOT
ATOM      4  O   UNL     1       4.783  11.189   4.365  0.00  0.00    -0.368 OA
ATOM      5  O   UNL     1       5.958  11.271   1.534  0.00  0.00    -0.368 OA
ATOM     12  C   UNL     1       4.925  10.447   2.117  0.00  0.00    +0.173 C 
ATOM     13  C   UNL     1       5.351  10.156   3.543  0.00  0.00    +0.192 C 
ATOM     14  C   UNL     1       3.653  11.246   2.275  0.00  0.00    +0.131 C 
ATOM     15  C   UNL     1       6.854  10.265   3.464  0.00  0.00    +0.235 C 
ATOM     16  C   UNL     1       3.902  11.999   3.572  0.00  0.00    +0.185 C 
ATOM     17  C   UNL     1       7.041  11.388   2.468  0.00  0.00    +0.207 C 
ENDROOT
BRANCH  14   9
ATOM      7  O   UNL     1       0.876  12.031   2.221  0.00  0.00    -0.253 OA
ATOM      9  N   UNL     1       2.503  10.381   2.384  0.00  0.00    -0.292 N 
ATOM     10  N   UNL     1       0.277   9.804   2.475  0.00  0.00    -0.295 N 
ATOM     18  C   UNL     1       1.190  10.848   2.349  0.00  0.00    +0.300 C 
ATOM     34  H   UNL     1       2.654   9.378   2.427  0.00  0.00    +0.151 HD
ATOM     35  H   UNL     1       0.629   8.854   2.553  0.00  0.00    +0.151 HD
BRANCH  10  20
ATOM     20  C   UNL     1      -1.153  10.008   2.470  0.00  0.00    +0.141 C 
BRANCH  20  22
ATOM     22  C   UNL     1      -1.791   9.543   3.747  0.00  0.00    -0.030 A 
ATOM     25  C   UNL     1      -3.142   9.195   3.764  0.00  0.00    +0.005 A 
ATOM     26  C   UNL     1      -1.034   9.460   4.916  0.00  0.00    +0.005 A 
ATOM     30  C   UNL     1      -3.735   8.762   4.950  0.00  0.00    +0.000 A 
ATOM     31  C   UNL     1      -1.628   9.028   6.102  0.00  0.00    +0.000 A 
ATOM     33  C   UNL     1      -2.979   8.680   6.119  0.00  0.00    +0.000 A 
ENDBRANCH  20  22
ENDBRANCH  10  20
ENDBRANCH  14   9
BRANCH  15   6
ATOM      6  O   UNL     1       7.464  10.550   4.703  0.00  0.00    -0.442 OA
BRANCH   6  19
ATOM      8  O   UNL     1       9.549  10.030   5.486  0.00  0.00    -0.226 OA
ATOM     11  N   UNL     1       7.929   8.382   5.113  0.00  0.00    -0.251 N 
ATOM     19  C   UNL     1       8.431   9.668   5.139  0.00  0.00    +0.405 C 
ATOM     36  H   UNL     1       6.970   8.280   4.791  0.00  0.00    +0.158 HD
BRANCH  11  21
ATOM     21  C   UNL     1       8.585   7.183   5.477  0.00  0.00    +0.037 A 
ATOM     23  C   UNL     1       8.730   6.848   6.823  0.00  0.00    +0.035 A 
ATOM     24  C   UNL     1       9.089   6.336   4.489  0.00  0.00    +0.023 A 
ATOM     27  C   UNL     1       9.377   5.666   7.182  0.00  0.00    +0.057 A 
ATOM     28  C   UNL     1       9.737   5.155   4.849  0.00  0.00    +0.002 A 
ATOM     29  C   UNL     1       9.881   4.819   6.195  0.00  0.00    +0.012 A 
BRANCH  27  32
ATOM      1  F   UNL     1       8.607   5.898   9.435  0.00  0.00    -0.166 F 
ATOM      2  F   UNL     1      10.743   5.656   9.146  0.00  0.00    -0.166 F 
ATOM      3  F   UNL     1       9.409   3.965   8.843  0.00  0.00    -0.166 F 
ATOM     32  C   UNL     1       9.531   5.307   8.621  0.00  0.00    +0.417 C 
ENDBRANCH  27  32
ENDBRANCH  11  21
ENDBRANCH   6  19
ENDBRANCH  15   6
TORSDOF 7
ENDMDL
MODEL 2
REMARK VINA RESULT:      -7.6     21.988     24.304
REMARK  Name = 11883407
REMARK  7 active torsions:
REMARK  status: ('A' for Active; 'I' for Inactive)
REMARK    1  A    between atoms: O_6  and  C_15
REMARK    2  A    between atoms: O_6  and  C_19
REMARK    3  A    between atoms: N_9  and  C_14
REMARK    4  A    between atoms: N_10  and  C_20
REMARK    5  A    between atoms: N_11  and  C_21
REMARK    6  A    between atoms: C_20  and  C_22
REMARK    7  A    between atoms: C_27  and  C_32
REMARK                            x       y       z     vdW  Elec       q    Type
REMARK                         _______ _______ _______ _____ _____    ______ ____
ROOT
ATOM      4  O   UNL     1      -6.692 -10.827  15.598  0.00  0.00    -0.368 OA
ATOM      5  O   UNL     1      -6.867 -10.830  18.659  0.00  0.00    -0.368 OA
ATOM     12  C   UNL     1      -7.046  -9.773  17.692  0.00  0.00    +0.173 C 
ATOM     13  C   UNL     1      -6.037 -10.015  16.586  0.00  0.00    +0.192 C 
ATOM     14  C   UNL     1      -8.382  -9.922  17.002  0.00  0.00    +0.131 C 
ATOM     15  C   UNL     1      -4.946 -10.773  17.301  0.00  0.00    +0.235 C 
ATOM     16  C   UNL     1      -8.081 -10.962  15.935  0.00  0.00    +0.185 C 
ATOM     17  C   UNL     1      -5.731 -11.619  18.278  0.00  0.00    +0.207 C 
ENDROOT
BRANCH  14   9
ATOM      7  O   UNL     1     -10.670  -8.334  17.761  0.00  0.00    -0.253 OA
ATOM      9  N   UNL     1      -8.809  -8.676  16.414  0.00  0.00    -0.292 N 
ATOM     10  N   UNL     1     -10.115  -6.806  16.106  0.00  0.00    -0.295 N 
ATOM     18  C   UNL     1      -9.933  -7.973  16.845  0.00  0.00    +0.300 C 
ATOM     34  H   UNL     1      -8.230  -8.257  15.692  0.00  0.00    +0.151 HD
ATOM     35  H   UNL     1      -9.442  -6.577  15.381  0.00  0.00    +0.151 HD
BRANCH  10  20
ATOM     20  C   UNL     1     -11.206  -5.890  16.345  0.00  0.00    +0.141 C 
BRANCH  20  22
ATOM     22  C   UNL     1     -12.286  -6.020  15.310  0.00  0.00    -0.030 A 
ATOM     25  C   UNL     1     -13.491  -6.644  15.636  0.00  0.00    +0.005 A 
ATOM     26  C   UNL     1     -12.085  -5.518  14.025  0.00  0.00    +0.005 A 
ATOM     30  C   UNL     1     -14.494  -6.765  14.675  0.00  0.00    +0.000 A 
ATOM     31  C   UNL     1     -13.089  -5.639  13.063  0.00  0.00    +0.000 A 
ATOM     33  C   UNL     1     -14.294  -6.263  13.389  0.00  0.00    +0.000 A 
ENDBRANCH  20  22
ENDBRANCH  10  20
ENDBRANCH  14   9
BRANCH  15   6
ATOM      6  O   UNL     1      -4.150 -11.558  16.442  0.00  0.00    -0.442 OA
BRANCH   6  19
ATOM      8  O   UNL     1      -2.358 -10.262  15.860  0.00  0.00    -0.226 OA
ATOM     11  N   UNL     1      -3.885 -11.035  14.264  0.00  0.00    -0.251 N 
ATOM     19  C   UNL     1      -3.361 -10.883  15.532  0.00  0.00    +0.405 C 
ATOM     36  H   UNL     1      -4.733 -11.592  14.192  0.00  0.00    +0.158 HD
BRANCH  11  21
ATOM     21  C   UNL     1      -3.390 -10.508  13.049  0.00  0.00    +0.037 A 
ATOM     23  C   UNL     1      -4.276 -10.027  12.085  0.00  0.00    +0.035 A 
ATOM     24  C   UNL     1      -2.015 -10.471  12.814  0.00  0.00    +0.023 A 
ATOM     27  C   UNL     1      -3.787  -9.507  10.887  0.00  0.00    +0.057 A 
ATOM     28  C   UNL     1      -1.527  -9.952  11.615  0.00  0.00    +0.002 A 
ATOM     29  C   UNL     1      -2.413  -9.470  10.651  0.00  0.00    +0.012 A 
BRANCH  27  32
ATOM      1  F   UNL     1      -5.209  -7.740  10.126  0.00  0.00    -0.166 F 
ATOM      2  F   UNL     1      -5.846  -9.767   9.695  0.00  0.00    -0.166 F 
ATOM      3  F   UNL     1      -4.165  -8.907   8.617  0.00  0.00    -0.166 F 
ATOM     32  C   UNL     1      -4.733  -8.992   9.855  0.00  0.00    +0.417 C 
ENDBRANCH  27  32
ENDBRANCH  11  21
ENDBRANCH   6  19
ENDBRANCH  15   6
TORSDOF 7
ENDMDL
MODEL 3
REMARK VINA RESULT:      -7.6     23.481     26.446
REMARK  Name = 11883407
REMARK  7 active torsions:
REMARK  status: ('A' for Active; 'I' for Inactive)
REMARK    1  A    between atoms: O_6  and  C_15
REMARK    2  A    between atoms: O_6  and  C_19
REMARK    3  A    between atoms: N_9  and  C_14
REMARK    4  A    between atoms: N_10  and  C_20
REMARK    5  A    between atoms: N_11  and  C_21
REMARK    6  A    between atoms: C_20  and  C_22
REMARK    7  A    between atoms: C_27  and  C_32
REMARK                            x       y       z     vdW  Elec       q    Type
REMARK                         _______ _______ _______ _____ _____    ______ ____
ROOT
ATOM      4  O   UNL     1      -5.879 -10.341  17.514  0.00  0.00    -0.368 OA
ATOM      5  O   UNL     1      -4.428 -12.083  19.579  0.00  0.00    -0.368 OA
ATOM     12  C   UNL     1      -4.793 -12.333  18.204  0.00  0.00    +0.173 C 
ATOM     13  C   UNL     1      -6.140 -11.675  17.981  0.00  0.00    +0.192 C 
ATOM     14  C   UNL     1      -3.865 -11.582  17.277  0.00  0.00    +0.131 C 
ATOM     15  C   UNL     1      -6.737 -11.675  19.367  0.00  0.00    +0.235 C 
ATOM     16  C   UNL     1      -4.472 -10.188  17.273  0.00  0.00    +0.185 C 
ATOM     17  C   UNL     1      -5.523 -11.432  20.237  0.00  0.00    +0.207 C 
ENDROOT
BRANCH  14   9
ATOM      7  O   UNL     1      -1.876 -11.218  15.217  0.00  0.00    -0.253 OA
ATOM      9  N   UNL     1      -3.868 -12.159  15.955  0.00  0.00    -0.292 N 
ATOM     10  N   UNL     1      -3.112 -12.604  13.827  0.00  0.00    -0.295 N 
ATOM     18  C   UNL     1      -2.861 -11.927  15.019  0.00  0.00    +0.300 C 
ATOM     34  H   UNL     1      -4.605 -12.814  15.713  0.00  0.00    +0.151 HD
ATOM     35  H   UNL     1      -3.942 -13.186  13.762  0.00  0.00    +0.151 HD
BRANCH  10  20
ATOM     20  C   UNL     1      -2.227 -12.538  12.688  0.00  0.00    +0.141 C 
BRANCH  20  22
ATOM     22  C   UNL     1      -2.614 -11.441  11.738  0.00  0.00    -0.030 A 
ATOM     25  C   UNL     1      -1.873 -10.260  11.698  0.00  0.00    +0.005 A 
ATOM     26  C   UNL     1      -3.715 -11.603  10.897  0.00  0.00    +0.005 A 
ATOM     30  C   UNL     1      -2.232  -9.242  10.816  0.00  0.00    +0.000 A 
ATOM     31  C   UNL     1      -4.075 -10.584  10.015  0.00  0.00    +0.000 A 
ATOM     33  C   UNL     1      -3.333  -9.403   9.975  0.00  0.00    +0.000 A 
ENDBRANCH  20  22
ENDBRANCH  10  20
ENDBRANCH  14   9
BRANCH  15   6
ATOM      6  O   UNL     1      -7.728 -10.690  19.554  0.00  0.00    -0.442 OA
BRANCH   6  19
ATOM      8  O   UNL     1      -9.612 -11.495  18.537  0.00  0.00    -0.226 OA
ATOM     11  N   UNL     1      -8.590  -9.508  17.838  0.00  0.00    -0.251 N 
ATOM     19  C   UNL     1      -8.740 -10.638  18.617  0.00  0.00    +0.405 C 
ATOM     36  H   UNL     1      -7.796  -8.912  18.059  0.00  0.00    +0.158 HD
BRANCH  11  21
ATOM     21  C   UNL     1      -9.405  -9.075  16.767  0.00  0.00    +0.037 A 
ATOM     23  C   UNL     1     -10.134  -7.891  16.879  0.00  0.00    +0.035 A 
ATOM     24  C   UNL     1      -9.481  -9.832  15.598  0.00  0.00    +0.023 A 
ATOM     27  C   UNL     1     -10.938  -7.464  15.822  0.00  0.00    +0.057 A 
ATOM     28  C   UNL     1     -10.285  -9.405  14.541  0.00  0.00    +0.002 A 
ATOM     29  C   UNL     1     -11.014  -8.221  14.653  0.00  0.00    +0.012 A 
BRANCH  27  32
ATOM      1  F   UNL     1     -11.605  -5.382  14.851  0.00  0.00    -0.166 F 
ATOM      2  F   UNL     1     -11.348  -5.425  17.004  0.00  0.00    -0.166 F 
ATOM      3  F   UNL     1     -13.056  -6.419  16.096  0.00  0.00    -0.166 F 
ATOM     32  C   UNL     1     -11.717  -6.198  15.941  0.00  0.00    +0.417 C 
ENDBRANCH  27  32
ENDBRANCH  11  21
ENDBRANCH   6  19
ENDBRANCH  15   6
TORSDOF 7
ENDMDL
MODEL 4
REMARK VINA RESULT:      -7.6     22.032     24.197
REMARK  Name = 11883407
REMARK  7 active torsions:
REMARK  status: ('A' for Active; 'I' for Inactive)
REMARK    1  A    between atoms: O_6  and  C_15
REMARK    2  A    between atoms: O_6  and  C_19
REMARK    3  A    between atoms: N_9  and  C_14
REMARK    4  A    between atoms: N_10  and  C_20
REMARK    5  A    between atoms: N_11  and  C_21
REMARK    6  A    between atoms: C_20  and  C_22
REMARK    7  A    between atoms: C_27  and  C_32
REMARK                            x       y       z     vdW  Elec       q    Type
REMARK                         _______ _______ _______ _____ _____    ______ ____
ROOT
ATOM      4  O   UNL     1      -9.384  -9.629  15.537  0.00  0.00    -0.368 OA
ATOM      5  O   UNL     1     -10.422  -9.233  18.396  0.00  0.00    -0.368 OA
ATOM     12  C   UNL     1     -10.048  -8.284  17.374  0.00  0.00    +0.173 C 
ATOM     13  C   UNL     1      -8.859  -8.874  16.642  0.00  0.00    +0.192 C 
ATOM     14  C   UNL     1     -11.124  -8.210  16.316  0.00  0.00    +0.131 C 
ATOM     15  C   UNL     1      -8.242  -9.768  17.689  0.00  0.00    +0.235 C 
ATOM     16  C   UNL     1     -10.799  -9.409  15.440  0.00  0.00    +0.185 C 
ATOM     17  C   UNL     1      -9.459 -10.296  18.416  0.00  0.00    +0.207 C 
ENDROOT
BRANCH  14   9
ATOM      7  O   UNL     1     -13.202  -6.999  14.719  0.00  0.00    -0.253 OA
ATOM      9  N   UNL     1     -11.041  -6.978  15.570  0.00  0.00    -0.292 N 
ATOM     10  N   UNL     1     -11.748  -5.266  14.203  0.00  0.00    -0.295 N 
ATOM     18  C   UNL     1     -12.099  -6.465  14.821  0.00  0.00    +0.300 C 
ATOM     34  H   UNL     1     -10.192  -6.424  15.642  0.00  0.00    +0.151 HD
ATOM     35  H   UNL     1     -10.819  -4.888  14.364  0.00  0.00    +0.151 HD
BRANCH  10  20
ATOM     20  C   UNL     1     -12.659  -4.521  13.367  0.00  0.00    +0.141 C 
BRANCH  20  22
ATOM     22  C   UNL     1     -12.279  -4.596  11.916  0.00  0.00    -0.030 A 
ATOM     25  C   UNL     1     -11.913  -3.438  11.230  0.00  0.00    +0.005 A 
ATOM     26  C   UNL     1     -12.291  -5.825  11.255  0.00  0.00    +0.005 A 
ATOM     30  C   UNL     1     -11.559  -3.508   9.883  0.00  0.00    +0.000 A 
ATOM     31  C   UNL     1     -11.937  -5.894   9.907  0.00  0.00    +0.000 A 
ATOM     33  C   UNL     1     -11.572  -4.736   9.221  0.00  0.00    +0.000 A 
ENDBRANCH  20  22
ENDBRANCH  10  20
ENDBRANCH  14   9
BRANCH  15   6
ATOM      6  O   UNL     1      -7.456 -10.807  17.150  0.00  0.00    -0.442 OA
BRANCH   6  19
ATOM      8  O   UNL     1      -5.460 -10.334  18.162  0.00  0.00    -0.226 OA
ATOM     11  N   UNL     1      -5.597 -10.801  15.873  0.00  0.00    -0.251 N 
ATOM     19  C   UNL     1      -6.089 -10.618  17.150  0.00  0.00    +0.405 C 
ATOM     36  H   UNL     1      -6.281 -11.035  15.157  0.00  0.00    +0.158 HD
BRANCH  11  21
ATOM     21  C   UNL     1      -4.257 -10.702  15.433  0.00  0.00    +0.037 A 
ATOM     23  C   UNL     1      -3.974 -10.608  14.071  0.00  0.00    +0.035 A 
ATOM     24  C   UNL     1      -3.216 -10.699  16.363  0.00  0.00    +0.023 A 
ATOM     27  C   UNL     1      -2.653 -10.510  13.637  0.00  0.00    +0.057 A 
ATOM     28  C   UNL     1      -1.894 -10.602  15.929  0.00  0.00    +0.002 A 
ATOM     29  C   UNL     1      -1.612 -10.507  14.567  0.00  0.00    +0.012 A 
BRANCH  27  32
ATOM      1  F   UNL     1      -1.179  -9.759  11.909  0.00  0.00    -0.166 F 
ATOM      2  F   UNL     1      -3.303  -9.737  11.468  0.00  0.00    -0.166 F 
ATOM      3  F   UNL     1      -2.238 -11.630  11.582  0.00  0.00    -0.166 F 
ATOM     32  C   UNL     1      -2.350 -10.408  12.181  0.00  0.00    +0.417 C 
ENDBRANCH  27  32
ENDBRANCH  11  21
ENDBRANCH   6  19
ENDBRANCH  15   6
TORSDOF 7
ENDMDL
MODEL 5
REMARK VINA RESULT:      -7.4     21.715     23.972
REMARK  Name = 11883407
REMARK  7 active torsions:
REMARK  status: ('A' for Active; 'I' for Inactive)
REMARK    1  A    between atoms: O_6  and  C_15
REMARK    2  A    between atoms: O_6  and  C_19
REMARK    3  A    between atoms: N_9  and  C_14
REMARK    4  A    between atoms: N_10  and  C_20
REMARK    5  A    between atoms: N_11  and  C_21
REMARK    6  A    between atoms: C_20  and  C_22
REMARK    7  A    between atoms: C_27  and  C_32
REMARK                            x       y       z     vdW  Elec       q    Type
REMARK                         _______ _______ _______ _____ _____    ______ ____
ROOT
ATOM      4  O   UNL     1      -9.007  -9.738  15.235  0.00  0.00    -0.368 OA
ATOM      5  O   UNL     1      -9.625  -9.480  18.227  0.00  0.00    -0.368 OA
ATOM     12  C   UNL     1      -9.423  -8.482  17.203  0.00  0.00    +0.173 C 
ATOM     13  C   UNL     1      -8.341  -9.013  16.282  0.00  0.00    +0.192 C 
ATOM     14  C   UNL     1     -10.643  -8.395  16.316  0.00  0.00    +0.131 C 
ATOM     15  C   UNL     1      -7.560  -9.931  17.190  0.00  0.00    +0.235 C 
ATOM     16  C   UNL     1     -10.425  -9.550  15.353  0.00  0.00    +0.185 C 
ATOM     17  C   UNL     1      -8.648 -10.517  18.063  0.00  0.00    +0.207 C 
ENDROOT
BRANCH  14   9
ATOM      7  O   UNL     1     -12.903  -7.271  14.917  0.00  0.00    -0.253 OA
ATOM      9  N   UNL     1     -10.693  -7.133  15.619  0.00  0.00    -0.292 N 
ATOM     10  N   UNL     1     -11.607  -5.424  14.377  0.00  0.00    -0.295 N 
ATOM     18  C   UNL     1     -11.833  -6.666  14.966  0.00  0.00    +0.300 C 
ATOM     34  H   UNL     1      -9.880  -6.526  15.656  0.00  0.00    +0.151 HD
ATOM     35  H   UNL     1     -10.696  -4.989  14.490  0.00  0.00    +0.151 HD
BRANCH  10  20
ATOM     20  C   UNL     1     -12.622  -4.712  13.637  0.00  0.00    +0.141 C 
BRANCH  20  22
ATOM     22  C   UNL     1     -12.328  -4.686  12.164  0.00  0.00    -0.030 A 
ATOM     25  C   UNL     1     -12.360  -5.869  11.426  0.00  0.00    +0.005 A 
ATOM     26  C   UNL     1     -12.023  -3.478  11.536  0.00  0.00    +0.005 A 
ATOM     30  C   UNL     1     -12.088  -5.844  10.058  0.00  0.00    +0.000 A 
ATOM     31  C   UNL     1     -11.750  -3.454  10.167  0.00  0.00    +0.000 A 
ATOM     33  C   UNL     1     -11.782  -4.637   9.429  0.00  0.00    +0.000 A 
ENDBRANCH  20  22
ENDBRANCH  10  20
ENDBRANCH  14   9
BRANCH  15   6
ATOM      6  O   UNL     1      -6.840 -10.927  16.500  0.00  0.00    -0.442 OA
BRANCH   6  19
ATOM      8  O   UNL     1      -4.858  -9.790  16.576  0.00  0.00    -0.226 OA
ATOM     11  N   UNL     1      -5.389 -11.218  14.798  0.00  0.00    -0.251 N 
ATOM     19  C   UNL     1      -5.605 -10.570  15.998  0.00  0.00    +0.405 C 
ATOM     36  H   UNL     1      -6.134 -11.831  14.478  0.00  0.00    +0.158 HD
BRANCH  11  21
ATOM     21  C   UNL     1      -4.256 -11.134  13.956  0.00  0.00    +0.037 A 
ATOM     23  C   UNL     1      -4.328 -10.421  12.760  0.00  0.00    +0.035 A 
ATOM     24  C   UNL     1      -3.067 -11.766  14.321  0.00  0.00    +0.023 A 
ATOM     27  C   UNL     1      -3.211 -10.338  11.929  0.00  0.00    +0.057 A 
ATOM     28  C   UNL     1      -1.950 -11.684  13.490  0.00  0.00    +0.002 A 
ATOM     29  C   UNL     1      -2.022 -10.970  12.294  0.00  0.00    +0.012 A 
BRANCH  27  32
ATOM      1  F   UNL     1      -2.113  -8.966  10.306  0.00  0.00    -0.166 F 
ATOM      2  F   UNL     1      -4.216  -8.575  10.662  0.00  0.00    -0.166 F 
ATOM      3  F   UNL     1      -3.613 -10.366   9.586  0.00  0.00    -0.166 F 
ATOM     32  C   UNL     1      -3.286  -9.575  10.650  0.00  0.00    +0.417 C 
ENDBRANCH  27  32
ENDBRANCH  11  21
ENDBRANCH   6  19
ENDBRANCH  15   6
TORSDOF 7
ENDMDL
MODEL 6
REMARK VINA RESULT:      -7.4     21.797     23.746
REMARK  Name = 11883407
REMARK  7 active torsions:
REMARK  status: ('A' for Active; 'I' for Inactive)
REMARK    1  A    between atoms: O_6  and  C_15
REMARK    2  A    between atoms: O_6  and  C_19
REMARK    3  A    between atoms: N_9  and  C_14
REMARK    4  A    between atoms: N_10  and  C_20
REMARK    5  A    between atoms: N_11  and  C_21
REMARK    6  A    between atoms: C_20  and  C_22
REMARK    7  A    between atoms: C_27  and  C_32
REMARK                            x       y       z     vdW  Elec       q    Type
REMARK                         _______ _______ _______ _____ _____    ______ ____
ROOT
ATOM      4  O   UNL     1      -9.915  -8.960  14.894  0.00  0.00    -0.368 OA
ATOM      5  O   UNL     1     -10.620  -8.398  17.825  0.00  0.00    -0.368 OA
ATOM     12  C   UNL     1     -10.357  -7.510  16.718  0.00  0.00    +0.173 C 
ATOM     13  C   UNL     1      -9.262  -8.155  15.890  0.00  0.00    +0.192 C 
ATOM     14  C   UNL     1     -11.545  -7.477  15.785  0.00  0.00    +0.131 C 
ATOM     15  C   UNL     1      -8.538  -9.001  16.908  0.00  0.00    +0.235 C 
ATOM     16  C   UNL     1     -11.330  -8.725  14.944  0.00  0.00    +0.185 C 
ATOM     17  C   UNL     1      -9.669  -9.472  17.795  0.00  0.00    +0.207 C 
ENDROOT
BRANCH  14   9
ATOM      7  O   UNL     1     -13.820  -6.194  14.557  0.00  0.00    -0.253 OA
ATOM      9  N   UNL     1     -11.535  -6.287  14.969  0.00  0.00    -0.292 N 
ATOM     10  N   UNL     1     -12.395  -4.591  13.672  0.00  0.00    -0.295 N 
ATOM     18  C   UNL     1     -12.688  -5.734  14.413  0.00  0.00    +0.300 C 
ATOM     34  H   UNL     1     -10.658  -5.792  14.844  0.00  0.00    +0.151 HD
ATOM     35  H   UNL     1     -11.432  -4.272  13.627  0.00  0.00    +0.151 HD
BRANCH  10  20
ATOM     20  C   UNL     1     -13.407  -3.820  12.988  0.00  0.00    +0.141 C 
BRANCH  20  22
ATOM     22  C   UNL     1     -13.087  -3.640  11.532  0.00  0.00    -0.030 A 
ATOM     25  C   UNL     1     -14.102  -3.322  10.630  0.00  0.00    +0.005 A 
ATOM     26  C   UNL     1     -11.775  -3.792  11.082  0.00  0.00    +0.005 A 
ATOM     30  C   UNL     1     -13.805  -3.154   9.278  0.00  0.00    +0.000 A 
ATOM     31  C   UNL     1     -11.478  -3.625   9.729  0.00  0.00    +0.000 A 
ATOM     33  C   UNL     1     -12.494  -3.306   8.827  0.00  0.00    +0.000 A 
ENDBRANCH  20  22
ENDBRANCH  10  20
ENDBRANCH  14   9
BRANCH  15   6
ATOM      6  O   UNL     1      -7.826 -10.078  16.342  0.00  0.00    -0.442 OA
BRANCH   6  19
ATOM      8  O   UNL     1      -5.663  -9.357  16.161  0.00  0.00    -0.226 OA
ATOM     11  N   UNL     1      -6.910  -9.987  14.282  0.00  0.00    -0.251 N 
ATOM     19  C   UNL     1      -6.687  -9.765  15.627  0.00  0.00    +0.405 C 
ATOM     36  H   UNL     1      -7.834 -10.330  14.030  0.00  0.00    +0.158 HD
BRANCH  11  21
ATOM     21  C   UNL     1      -6.011  -9.795  13.208  0.00  0.00    +0.037 A 
ATOM     23  C   UNL     1      -4.770 -10.431  13.214  0.00  0.00    +0.035 A 
ATOM     24  C   UNL     1      -6.366  -8.968  12.142  0.00  0.00    +0.023 A 
ATOM     27  C   UNL     1      -3.885 -10.243  12.154  0.00  0.00    +0.057 A 
ATOM     28  C   UNL     1      -5.479  -8.778  11.082  0.00  0.00    +0.002 A 
ATOM     29  C   UNL     1      -4.239  -9.415  11.087  0.00  0.00    +0.012 A 
BRANCH  27  32
ATOM      1  F   UNL     1      -2.571 -12.151  11.561  0.00  0.00    -0.166 F 
ATOM      2  F   UNL     1      -2.059 -11.142  13.411  0.00  0.00    -0.166 F 
ATOM      3  F   UNL     1      -1.598 -10.207  11.502  0.00  0.00    -0.166 F 
ATOM     32  C   UNL     1      -2.558 -10.923  12.159  0.00  0.00    +0.417 C 
ENDBRANCH  27  32
ENDBRANCH  11  21
ENDBRANCH   6  19
ENDBRANCH  15   6
TORSDOF 7
ENDMDL
MODEL 7
REMARK VINA RESULT:      -7.3     22.064     23.988
REMARK  Name = 11883407
REMARK  7 active torsions:
REMARK  status: ('A' for Active; 'I' for Inactive)
REMARK    1  A    between atoms: O_6  and  C_15
REMARK    2  A    between atoms: O_6  and  C_19
REMARK    3  A    between atoms: N_9  and  C_14
REMARK    4  A    between atoms: N_10  and  C_20
REMARK    5  A    between atoms: N_11  and  C_21
REMARK    6  A    between atoms: C_20  and  C_22
REMARK    7  A    between atoms: C_27  and  C_32
REMARK                            x       y       z     vdW  Elec       q    Type
REMARK                         _______ _______ _______ _____ _____    ______ ____
ROOT
ATOM      4  O   UNL     1     -10.318  -8.882  14.858  0.00  0.00    -0.368 OA
ATOM      5  O   UNL     1     -11.091  -8.481  17.798  0.00  0.00    -0.368 OA
ATOM     12  C   UNL     1     -10.816  -7.533  16.744  0.00  0.00    +0.173 C 
ATOM     13  C   UNL     1      -9.696  -8.121  15.907  0.00  0.00    +0.192 C 
ATOM     14  C   UNL     1     -11.985  -7.465  15.790  0.00  0.00    +0.131 C 
ATOM     15  C   UNL     1      -8.983  -9.011  16.895  0.00  0.00    +0.235 C 
ATOM     16  C   UNL     1     -11.737  -8.665  14.890  0.00  0.00    +0.185 C 
ATOM     17  C   UNL     1     -10.126  -9.541  17.732  0.00  0.00    +0.207 C 
ENDROOT
BRANCH  14   9
ATOM      7  O   UNL     1     -14.179  -6.313  14.311  0.00  0.00    -0.253 OA
ATOM      9  N   UNL     1     -11.974  -6.235  15.037  0.00  0.00    -0.292 N 
ATOM     10  N   UNL     1     -12.801  -4.547  13.708  0.00  0.00    -0.295 N 
ATOM     18  C   UNL     1     -13.085  -5.751  14.348  0.00  0.00    +0.300 C 
ATOM     34  H   UNL     1     -11.137  -5.661  15.058  0.00  0.00    +0.151 HD
ATOM     35  H   UNL     1     -11.874  -4.145  13.813  0.00  0.00    +0.151 HD
BRANCH  10  20
ATOM     20  C   UNL     1     -13.776  -3.828  12.923  0.00  0.00    +0.141 C 
BRANCH  20  22
ATOM     22  C   UNL     1     -13.331  -3.650  11.499  0.00  0.00    -0.030 A 
ATOM     25  C   UNL     1     -11.984  -3.795  11.167  0.00  0.00    +0.005 A 
ATOM     26  C   UNL     1     -14.264  -3.340  10.510  0.00  0.00    +0.005 A 
ATOM     30  C   UNL     1     -11.571  -3.631   9.846  0.00  0.00    +0.000 A 
ATOM     31  C   UNL     1     -13.850  -3.176   9.188  0.00  0.00    +0.000 A 
ATOM     33  C   UNL     1     -12.503  -3.321   8.856  0.00  0.00    +0.000 A 
ENDBRANCH  20  22
ENDBRANCH  10  20
ENDBRANCH  14   9
BRANCH  15   6
ATOM      6  O   UNL     1      -8.246 -10.049  16.289  0.00  0.00    -0.442 OA
BRANCH   6  19
ATOM      8  O   UNL     1      -6.220  -9.166  16.879  0.00  0.00    -0.226 OA
ATOM     11  N   UNL     1      -6.482 -10.457  14.944  0.00  0.00    -0.251 N 
ATOM     19  C   UNL     1      -6.896  -9.828  16.101  0.00  0.00    +0.405 C 
ATOM     36  H   UNL     1      -7.196 -10.964  14.427  0.00  0.00    +0.158 HD
BRANCH  11  21
ATOM     21  C   UNL     1      -5.183 -10.484  14.385  0.00  0.00    +0.037 A 
ATOM     23  C   UNL     1      -4.068 -10.591  15.215  0.00  0.00    +0.035 A 
ATOM     24  C   UNL     1      -5.018 -10.402  13.002  0.00  0.00    +0.023 A 
ATOM     27  C   UNL     1      -2.788 -10.618  14.664  0.00  0.00    +0.057 A 
ATOM     28  C   UNL     1      -3.737 -10.428  12.451  0.00  0.00    +0.002 A 
ATOM     29  C   UNL     1      -2.622 -10.536  13.281  0.00  0.00    +0.012 A 
BRANCH  27  32
ATOM      1  F   UNL     1      -1.908 -10.943  16.865  0.00  0.00    -0.166 F 
ATOM      2  F   UNL     1      -0.800  -9.623  15.548  0.00  0.00    -0.166 F 
ATOM      3  F   UNL     1      -0.778 -11.770  15.201  0.00  0.00    -0.166 F 
ATOM     32  C   UNL     1      -1.595 -10.733  15.551  0.00  0.00    +0.417 C 
ENDBRANCH  27  32
ENDBRANCH  11  21
ENDBRANCH   6  19
ENDBRANCH  15   6
TORSDOF 7
ENDMDL
MODEL 8
REMARK VINA RESULT:      -7.2      1.391      2.504
REMARK  Name = 11883407
REMARK  7 active torsions:
REMARK  status: ('A' for Active; 'I' for Inactive)
REMARK    1  A    between atoms: O_6  and  C_15
REMARK    2  A    between atoms: O_6  and  C_19
REMARK    3  A    between atoms: N_9  and  C_14
REMARK    4  A    between atoms: N_10  and  C_20
REMARK    5  A    between atoms: N_11  and  C_21
REMARK    6  A    between atoms: C_20  and  C_22
REMARK    7  A    between atoms: C_27  and  C_32
REMARK                            x       y       z     vdW  Elec       q    Type
REMARK                         _______ _______ _______ _____ _____    ______ ____
ROOT
ATOM      4  O   UNL     1       4.820  11.135   4.301  0.00  0.00    -0.368 OA
ATOM      5  O   UNL     1       5.992  11.284   1.471  0.00  0.00    -0.368 OA
ATOM     12  C   UNL     1       4.960  10.446   2.036  0.00  0.00    +0.173 C 
ATOM     13  C   UNL     1       5.387  10.121   3.454  0.00  0.00    +0.192 C 
ATOM     14  C   UNL     1       3.687  11.240   2.214  0.00  0.00    +0.131 C 
ATOM     15  C   UNL     1       6.890  10.234   3.376  0.00  0.00    +0.235 C 
ATOM     16  C   UNL     1       3.938  11.963   3.528  0.00  0.00    +0.185 C 
ATOM     17  C   UNL     1       7.075  11.379   2.406  0.00  0.00    +0.207 C 
ENDROOT
BRANCH  14   9
ATOM      7  O   UNL     1       0.911  12.029   2.236  0.00  0.00    -0.253 OA
ATOM      9  N   UNL     1       2.538  10.373   2.304  0.00  0.00    -0.292 N 
ATOM     10  N   UNL     1       0.313   9.794   2.405  0.00  0.00    -0.295 N 
ATOM     18  C   UNL     1       1.225  10.842   2.309  0.00  0.00    +0.300 C 
ATOM     34  H   UNL     1       2.688   9.368   2.302  0.00  0.00    +0.151 HD
ATOM     35  H   UNL     1       0.665   8.841   2.437  0.00  0.00    +0.151 HD
BRANCH  10  20
ATOM     20  C   UNL     1      -1.116  10.000   2.430  0.00  0.00    +0.141 C 
BRANCH  20  22
ATOM     22  C   UNL     1      -1.703  10.036   1.048  0.00  0.00    -0.030 A 
ATOM     25  C   UNL     1      -2.761  10.900   0.763  0.00  0.00    +0.005 A 
ATOM     26  C   UNL     1      -1.190   9.207   0.050  0.00  0.00    +0.005 A 
ATOM     30  C   UNL     1      -3.305  10.934  -0.521  0.00  0.00    +0.000 A 
ATOM     31  C   UNL     1      -1.735   9.242  -1.234  0.00  0.00    +0.000 A 
ATOM     33  C   UNL     1      -2.793  10.105  -1.519  0.00  0.00    +0.000 A 
ENDBRANCH  20  22
ENDBRANCH  10  20
ENDBRANCH  14   9
BRANCH  15   6
ATOM      6  O   UNL     1       7.502  10.490   4.621  0.00  0.00    -0.442 OA
BRANCH   6  19
ATOM      8  O   UNL     1       9.634   9.965   5.257  0.00  0.00    -0.226 OA
ATOM     11  N   UNL     1       7.959   8.336   5.112  0.00  0.00    -0.251 N 
ATOM     19  C   UNL     1       8.485   9.610   5.025  0.00  0.00    +0.405 C 
ATOM     36  H   UNL     1       6.975   8.240   4.876  0.00  0.00    +0.158 HD
BRANCH  11  21
ATOM     21  C   UNL     1       8.621   7.145   5.488  0.00  0.00    +0.037 A 
ATOM     23  C   UNL     1       8.739   6.807   6.835  0.00  0.00    +0.035 A 
ATOM     24  C   UNL     1       9.158   6.307   4.509  0.00  0.00    +0.023 A 
ATOM     27  C   UNL     1       9.391   5.632   7.206  0.00  0.00    +0.057 A 
ATOM     28  C   UNL     1       9.811   5.132   4.880  0.00  0.00    +0.002 A 
ATOM     29  C   UNL     1       9.928   4.794   6.228  0.00  0.00    +0.012 A 
BRANCH  27  32
ATOM      1  F   UNL     1       9.403   3.929   8.886  0.00  0.00    -0.166 F 
ATOM      2  F   UNL     1       8.574   5.854   9.443  0.00  0.00    -0.166 F 
ATOM      3  F   UNL     1      10.721   5.635   9.177  0.00  0.00    -0.166 F 
ATOM     32  C   UNL     1       9.517   5.270   8.647  0.00  0.00    +0.417 C 
ENDBRANCH  27  32
ENDBRANCH  11  21
ENDBRANCH   6  19
ENDBRANCH  15   6
TORSDOF 7
ENDMDL
MODEL 9
REMARK VINA RESULT:      -7.2     22.192     24.413
REMARK  Name = 11883407
REMARK  7 active torsions:
REMARK  status: ('A' for Active; 'I' for Inactive)
REMARK    1  A    between atoms: O_6  and  C_15
REMARK    2  A    between atoms: O_6  and  C_19
REMARK    3  A    between atoms: N_9  and  C_14
REMARK    4  A    between atoms: N_10  and  C_20
REMARK    5  A    between atoms: N_11  and  C_21
REMARK    6  A    between atoms: C_20  and  C_22
REMARK    7  A    between atoms: C_27  and  C_32
REMARK                            x       y       z     vdW  Elec       q    Type
REMARK                         _______ _______ _______ _____ _____    ______ ____
ROOT
ATOM      4  O   UNL     1     -11.058  -8.540  14.612  0.00  0.00    -0.368 OA
ATOM      5  O   UNL     1     -10.887  -7.751  17.571  0.00  0.00    -0.368 OA
ATOM     12  C   UNL     1     -10.573  -7.019  16.366  0.00  0.00    +0.173 C 
ATOM     13  C   UNL     1      -9.972  -8.014  15.393  0.00  0.00    +0.192 C 
ATOM     14  C   UNL     1     -11.845  -6.571  15.686  0.00  0.00    +0.131 C 
ATOM     15  C   UNL     1      -9.387  -9.058  16.313  0.00  0.00    +0.235 C 
ATOM     16  C   UNL     1     -12.260  -7.817  14.921  0.00  0.00    +0.185 C 
ATOM     17  C   UNL     1     -10.395  -9.093  17.439  0.00  0.00    +0.207 C 
ENDROOT
BRANCH  14   9
ATOM      7  O   UNL     1     -13.551  -5.649  13.548  0.00  0.00    -0.253 OA
ATOM      9  N   UNL     1     -11.598  -5.465  14.792  0.00  0.00    -0.292 N 
ATOM     10  N   UNL     1     -11.999  -3.993  13.069  0.00  0.00    -0.295 N 
ATOM     18  C   UNL     1     -12.482  -5.089  13.782  0.00  0.00    +0.300 C 
ATOM     34  H   UNL     1     -10.772  -4.895  14.944  0.00  0.00    +0.151 HD
ATOM     35  H   UNL     1     -11.114  -3.581  13.349  0.00  0.00    +0.151 HD
BRANCH  10  20
ATOM     20  C   UNL     1     -12.718  -3.398  11.967  0.00  0.00    +0.141 C 
BRANCH  20  22
ATOM     22  C   UNL     1     -12.376  -4.049  10.657  0.00  0.00    -0.030 A 
ATOM     25  C   UNL     1     -11.180  -3.733  10.013  0.00  0.00    +0.005 A 
ATOM     26  C   UNL     1     -13.256  -4.969  10.086  0.00  0.00    +0.005 A 
ATOM     30  C   UNL     1     -10.863  -4.338   8.797  0.00  0.00    +0.000 A 
ATOM     31  C   UNL     1     -12.938  -5.574   8.869  0.00  0.00    +0.000 A 
ATOM     33  C   UNL     1     -11.741  -5.257   8.224  0.00  0.00    +0.000 A 
ENDBRANCH  20  22
ENDBRANCH  10  20
ENDBRANCH  14   9
BRANCH  15   6
ATOM      6  O   UNL     1      -9.229 -10.320  15.704  0.00  0.00    -0.442 OA
BRANCH   6  19
ATOM      8  O   UNL     1      -8.241 -12.316  16.222  0.00  0.00    -0.226 OA
ATOM     11  N   UNL     1      -7.101 -10.285  16.452  0.00  0.00    -0.251 N 
ATOM     19  C   UNL     1      -8.175 -11.096  16.142  0.00  0.00    +0.405 C 
ATOM     36  H   UNL     1      -7.240  -9.286  16.320  0.00  0.00    +0.158 HD
BRANCH  11  21
ATOM     21  C   UNL     1      -5.829 -10.671  16.935  0.00  0.00    +0.037 A 
ATOM     23  C   UNL     1      -4.713 -10.586  16.104  0.00  0.00    +0.035 A 
ATOM     24  C   UNL     1      -5.692 -11.137  18.243  0.00  0.00    +0.023 A 
ATOM     27  C   UNL     1      -3.459 -10.966  16.580  0.00  0.00    +0.057 A 
ATOM     28  C   UNL     1      -4.438 -11.518  18.718  0.00  0.00    +0.002 A 
ATOM     29  C   UNL     1      -3.321 -11.433  17.887  0.00  0.00    +0.012 A 
BRANCH  27  32
ATOM      1  F   UNL     1      -2.447 -10.062  14.609  0.00  0.00    -0.166 F 
ATOM      2  F   UNL     1      -1.874 -12.076  15.173  0.00  0.00    -0.166 F 
ATOM      3  F   UNL     1      -1.167 -10.382  16.338  0.00  0.00    -0.166 F 
ATOM     32  C   UNL     1      -2.264 -10.875  15.692  0.00  0.00    +0.417 C 
ENDBRANCH  27  32
ENDBRANCH  11  21
ENDBRANCH   6  19
ENDBRANCH  15   6
TORSDOF 7
ENDMDL
MODEL 10
REMARK VINA RESULT:      -7.2     22.616     25.902
REMARK  Name = 11883407
REMARK  7 active torsions:
REMARK  status: ('A' for Active; 'I' for Inactive)
REMARK    1  A    between atoms: O_6  and  C_15
REMARK    2  A    between atoms: O_6  and  C_19
REMARK    3  A    between atoms: N_9  and  C_14
REMARK    4  A    between atoms: N_10  and  C_20
REMARK    5  A    between atoms: N_11  and  C_21
REMARK    6  A    between atoms: C_20  and  C_22
REMARK    7  A    between atoms: C_27  and  C_32
REMARK                            x       y       z     vdW  Elec       q    Type
REMARK                         _______ _______ _______ _____ _____    ______ ____
ROOT
ATOM      4  O   UNL     1      -9.656  -7.644  16.992  0.00  0.00    -0.368 OA
ATOM      5  O   UNL     1     -10.658 -10.081  15.422  0.00  0.00    -0.368 OA
ATOM     12  C   UNL     1      -9.415  -9.349  15.361  0.00  0.00    +0.173 C 
ATOM     13  C   UNL     1      -9.756  -7.888  15.579  0.00  0.00    +0.192 C 
ATOM     14  C   UNL     1      -8.547  -9.699  16.547  0.00  0.00    +0.131 C 
ATOM     15  C   UNL     1     -11.184  -7.810  15.097  0.00  0.00    +0.235 C 
ATOM     16  C   UNL     1      -9.116  -8.807  17.638  0.00  0.00    +0.185 C 
ATOM     17  C   UNL     1     -11.741  -9.147  15.532  0.00  0.00    +0.207 C 
ENDROOT
BRANCH  14   9
ATOM      7  O   UNL     1      -6.296 -11.489  16.793  0.00  0.00    -0.253 OA
ATOM      9  N   UNL     1      -7.161  -9.393  16.289  0.00  0.00    -0.292 N 
ATOM     10  N   UNL     1      -4.896  -9.766  16.122  0.00  0.00    -0.295 N 
ATOM     18  C   UNL     1      -6.133 -10.324  16.435  0.00  0.00    +0.300 C 
ATOM     34  H   UNL     1      -6.927  -8.475  15.924  0.00  0.00    +0.151 HD
ATOM     35  H   UNL     1      -4.860  -8.799  15.813  0.00  0.00    +0.151 HD
BRANCH  10  20
ATOM     20  C   UNL     1      -3.661 -10.512  16.189  0.00  0.00    +0.141 C 
BRANCH  20  22
ATOM     22  C   UNL     1      -3.206 -10.967  14.832  0.00  0.00    -0.030 A 
ATOM     25  C   UNL     1      -2.101 -11.811  14.714  0.00  0.00    +0.005 A 
ATOM     26  C   UNL     1      -3.888 -10.546  13.690  0.00  0.00    +0.005 A 
ATOM     30  C   UNL     1      -1.679 -12.234  13.454  0.00  0.00    +0.000 A 
ATOM     31  C   UNL     1      -3.464 -10.970  12.429  0.00  0.00    +0.000 A 
ATOM     33  C   UNL     1      -2.360 -11.814  12.312  0.00  0.00    +0.000 A 
ENDBRANCH  20  22
ENDBRANCH  10  20
ENDBRANCH  14   9
BRANCH  15   6
ATOM      6  O   UNL     1     -11.906  -6.731  15.646  0.00  0.00    -0.442 OA
BRANCH   6  19
ATOM      8  O   UNL     1     -14.060  -6.324  14.995  0.00  0.00    -0.226 OA
ATOM     11  N   UNL     1     -12.237  -5.361  13.885  0.00  0.00    -0.251 N 
ATOM     19  C   UNL     1     -12.858  -6.143  14.839  0.00  0.00    +0.405 C 
ATOM     36  H   UNL     1     -11.221  -5.337  13.916  0.00  0.00    +0.158 HD
BRANCH  11  21
ATOM     21  C   UNL     1     -12.840  -4.589  12.865  0.00  0.00    +0.037 A 
ATOM     23  C   UNL     1     -12.224  -4.478  11.619  0.00  0.00    +0.035 A 
ATOM     24  C   UNL     1     -14.050  -3.938  13.107  0.00  0.00    +0.023 A 
ATOM     27  C   UNL     1     -12.818  -3.717  10.613  0.00  0.00    +0.057 A 
ATOM     28  C   UNL     1     -14.644  -3.176  12.101  0.00  0.00    +0.002 A 
ATOM     29  C   UNL     1     -14.028  -3.065  10.854  0.00  0.00    +0.012 A 
BRANCH  27  32
ATOM      1  F   UNL     1     -12.882  -2.868   8.378  0.00  0.00    -0.166 F 
ATOM      2  F   UNL     1     -11.938  -4.798   8.669  0.00  0.00    -0.166 F 
ATOM      3  F   UNL     1     -10.940  -2.989   9.349  0.00  0.00    -0.166 F 
ATOM     32  C   UNL     1     -12.161  -3.597   9.280  0.00  0.00    +0.417 C 
ENDBRANCH  27  32
ENDBRANCH  11  21
ENDBRANCH   6  19
ENDBRANCH  15   6
TORSDOF 7
ENDMDL
