MODEL 1
REMARK VINA RESULT:      -6.8      0.000      0.000
REMARK  Name = 75537062
REMARK  4 active torsions:
REMARK  status: ('A' for Active; 'I' for Inactive)
REMARK    1  A    between atoms: N_3  and  C_13
REMARK    2  A    between atoms: N_4  and  C_14
REMARK    3  A    between atoms: N_5  and  C_23
REMARK    4  A    between atoms: C_13  and  C_15
REMARK                            x       y       z     vdW  Elec       q    Type
REMARK                         _______ _______ _______ _____ _____    ______ ____
ROOT
ATOM      1  O   UNL     1      19.441   8.171  22.409  0.00  0.00    -0.252 OA
ATOM      2  N   UNL     1      17.521   7.760  21.153  0.00  0.00    -0.278 N 
ATOM      3  N   UNL     1      14.789   7.436  20.561  0.00  0.00    -0.295 NA
ATOM      4  N   UNL     1      19.344   6.494  20.703  0.00  0.00    -0.254 N 
ATOM      7  C   UNL     1      17.140   6.984  19.999  0.00  0.00    +0.109 C 
ATOM      8  C   UNL     1      15.751   6.378  20.190  0.00  0.00    +0.109 C 
ATOM      9  C   UNL     1      18.270   5.969  19.865  0.00  0.00    +0.139 C 
ATOM     10  C   UNL     1      16.585   8.725  21.695  0.00  0.00    +0.125 C 
ATOM     11  C   UNL     1      15.194   8.098  21.816  0.00  0.00    +0.104 C 
ATOM     12  C   UNL     1      18.858   7.553  21.528  0.00  0.00    +0.309 C 
ENDROOT
BRANCH   4  14
ATOM     14  C   UNL     1      20.652   5.931  20.711  0.00  0.00    +0.038 A 
ATOM     16  C   UNL     1      20.823   4.567  20.945  0.00  0.00    +0.023 A 
ATOM     17  C   UNL     1      21.763   6.744  20.485  0.00  0.00    +0.023 A 
ATOM     20  C   UNL     1      22.104   4.015  20.953  0.00  0.00    +0.002 A 
ATOM     21  C   UNL     1      23.044   6.193  20.493  0.00  0.00    +0.002 A 
ATOM     22  C   UNL     1      23.215   4.829  20.728  0.00  0.00    +0.000 A 
ENDBRANCH   4  14
BRANCH   3  13
ATOM     13  C   UNL     1      13.443   6.878  20.690  0.00  0.00    +0.122 C 
BRANCH  13  15
ATOM      5  N   UNL     1      11.454   8.361  18.002  0.00  0.00    -0.274 N 
ATOM      6  N   UNL     1      10.612   8.647  19.010  0.00  0.00    -0.180 NA
ATOM     15  C   UNL     1      12.467   7.543  19.756  0.00  0.00    +0.004 A 
ATOM     18  C   UNL     1      12.580   7.700  18.396  0.00  0.00    +0.112 A 
ATOM     19  C   UNL     1      11.237   8.146  20.079  0.00  0.00    +0.139 A 
ATOM     23  C   UNL     1      11.119   8.753  16.654  0.00  0.00    +0.172 C 
ENDBRANCH  13  15
ENDBRANCH   3  13
TORSDOF 3
ENDMDL
MODEL 2
REMARK VINA RESULT:      -6.2      2.093      8.519
REMARK  Name = 75537062
REMARK  4 active torsions:
REMARK  status: ('A' for Active; 'I' for Inactive)
REMARK    1  A    between atoms: N_3  and  C_13
REMARK    2  A    between atoms: N_4  and  C_14
REMARK    3  A    between atoms: N_5  and  C_23
REMARK    4  A    between atoms: C_13  and  C_15
REMARK                            x       y       z     vdW  Elec       q    Type
REMARK                         _______ _______ _______ _____ _____    ______ ____
ROOT
ATOM      1  O   UNL     1      15.662   9.897  20.536  0.00  0.00    -0.252 OA
ATOM      2  N   UNL     1      16.977   7.984  20.729  0.00  0.00    -0.278 N 
ATOM      3  N   UNL     1      19.292   6.399  20.955  0.00  0.00    -0.295 NA
ATOM      4  N   UNL     1      15.170   7.865  19.369  0.00  0.00    -0.254 N 
ATOM      7  C   UNL     1      16.922   6.600  20.328  0.00  0.00    +0.109 C 
ATOM      8  C   UNL     1      18.303   6.107  19.898  0.00  0.00    +0.109 C 
ATOM      9  C   UNL     1      15.866   6.590  19.228  0.00  0.00    +0.139 C 
ATOM     10  C   UNL     1      18.010   8.410  21.651  0.00  0.00    +0.125 C 
ATOM     11  C   UNL     1      19.367   7.849  21.219  0.00  0.00    +0.104 C 
ATOM     12  C   UNL     1      15.891   8.731  20.246  0.00  0.00    +0.309 C 
ENDROOT
BRANCH   4  14
ATOM     14  C   UNL     1      13.985   8.174  18.641  0.00  0.00    +0.038 A 
ATOM     16  C   UNL     1      12.744   8.129  19.276  0.00  0.00    +0.023 A 
ATOM     17  C   UNL     1      14.067   8.523  17.293  0.00  0.00    +0.023 A 
ATOM     20  C   UNL     1      11.584   8.432  18.563  0.00  0.00    +0.002 A 
ATOM     21  C   UNL     1      12.907   8.826  16.580  0.00  0.00    +0.002 A 
ATOM     22  C   UNL     1      11.665   8.780  17.214  0.00  0.00    +0.000 A 
ENDBRANCH   4  14
BRANCH   3  13
ATOM     13  C   UNL     1      20.607   5.880  20.580  0.00  0.00    +0.122 C 
BRANCH  13  15
ATOM      5  N   UNL     1      22.293   3.714  22.998  0.00  0.00    -0.274 N 
ATOM      6  N   UNL     1      22.138   4.776  23.806  0.00  0.00    -0.180 NA
ATOM     15  C   UNL     1      21.279   5.172  21.727  0.00  0.00    +0.004 A 
ATOM     18  C   UNL     1      21.796   3.900  21.741  0.00  0.00    +0.112 A 
ATOM     19  C   UNL     1      21.517   5.664  23.024  0.00  0.00    +0.139 A 
ATOM     23  C   UNL     1      22.941   2.524  23.494  0.00  0.00    +0.172 C 
ENDBRANCH  13  15
ENDBRANCH   3  13
TORSDOF 3
ENDMDL
MODEL 3
REMARK VINA RESULT:      -6.1      4.052      8.892
REMARK  Name = 75537062
REMARK  4 active torsions:
REMARK  status: ('A' for Active; 'I' for Inactive)
REMARK    1  A    between atoms: N_3  and  C_13
REMARK    2  A    between atoms: N_4  and  C_14
REMARK    3  A    between atoms: N_5  and  C_23
REMARK    4  A    between atoms: C_13  and  C_15
REMARK                            x       y       z     vdW  Elec       q    Type
REMARK                         _______ _______ _______ _____ _____    ______ ____
ROOT
ATOM      1  O   UNL     1      10.546   8.717  23.128  0.00  0.00    -0.252 OA
ATOM      2  N   UNL     1      11.591   8.787  21.046  0.00  0.00    -0.278 N 
ATOM      3  N   UNL     1      13.220   7.986  18.896  0.00  0.00    -0.295 NA
ATOM      4  N   UNL     1      11.402  10.740  22.176  0.00  0.00    -0.254 N 
ATOM      7  C   UNL     1      12.071   9.783  20.121  0.00  0.00    +0.109 C 
ATOM      8  C   UNL     1      13.382   9.334  19.478  0.00  0.00    +0.109 C 
ATOM      9  C   UNL     1      12.174  11.042  20.976  0.00  0.00    +0.139 C 
ATOM     10  C   UNL     1      11.534   7.402  20.625  0.00  0.00    +0.125 C 
ATOM     11  C   UNL     1      12.841   7.008  19.934  0.00  0.00    +0.104 C 
ATOM     12  C   UNL     1      11.099   9.347  22.237  0.00  0.00    +0.309 C 
ENDROOT
BRANCH   4  14
ATOM     14  C   UNL     1      11.096  11.728  23.157  0.00  0.00    +0.038 A 
ATOM     16  C   UNL     1      10.665  12.994  22.761  0.00  0.00    +0.023 A 
ATOM     17  C   UNL     1      11.226  11.428  24.513  0.00  0.00    +0.023 A 
ATOM     20  C   UNL     1      10.366  13.960  23.721  0.00  0.00    +0.002 A 
ATOM     21  C   UNL     1      10.927  12.394  25.473  0.00  0.00    +0.002 A 
ATOM     22  C   UNL     1      10.497  13.661  25.078  0.00  0.00    +0.000 A 
ENDBRANCH   4  14
BRANCH   3  13
ATOM     13  C   UNL     1      14.451   7.569  18.226  0.00  0.00    +0.122 C 
BRANCH  13  15
ATOM      5  N   UNL     1      17.139   7.744  20.701  0.00  0.00    -0.274 N 
ATOM      6  N   UNL     1      17.291   6.447  20.382  0.00  0.00    -0.180 NA
ATOM     15  C   UNL     1      15.592   7.410  19.196  0.00  0.00    +0.004 A 
ATOM     18  C   UNL     1      16.135   8.366  20.018  0.00  0.00    +0.112 A 
ATOM     19  C   UNL     1      16.343   6.249  19.462  0.00  0.00    +0.139 A 
ATOM     23  C   UNL     1      18.003   8.346  21.688  0.00  0.00    +0.172 C 
ENDBRANCH  13  15
ENDBRANCH   3  13
TORSDOF 3
ENDMDL
MODEL 4
REMARK VINA RESULT:      -6.1      5.268      8.485
REMARK  Name = 75537062
REMARK  4 active torsions:
REMARK  status: ('A' for Active; 'I' for Inactive)
REMARK    1  A    between atoms: N_3  and  C_13
REMARK    2  A    between atoms: N_4  and  C_14
REMARK    3  A    between atoms: N_5  and  C_23
REMARK    4  A    between atoms: C_13  and  C_15
REMARK                            x       y       z     vdW  Elec       q    Type
REMARK                         _______ _______ _______ _____ _____    ______ ____
ROOT
ATOM      1  O   UNL     1      14.051  11.530  23.062  0.00  0.00    -0.252 OA
ATOM      2  N   UNL     1      13.096   9.557  22.272  0.00  0.00    -0.278 N 
ATOM      3  N   UNL     1      12.693   7.307  20.631  0.00  0.00    -0.295 NA
ATOM      4  N   UNL     1      11.688  11.145  23.062  0.00  0.00    -0.254 N 
ATOM      7  C   UNL     1      11.799   8.927  22.251  0.00  0.00    +0.109 C 
ATOM      8  C   UNL     1      11.566   8.217  20.919  0.00  0.00    +0.109 C 
ATOM      9  C   UNL     1      10.841  10.077  22.542  0.00  0.00    +0.139 C 
ATOM     10  C   UNL     1      14.257   8.794  21.861  0.00  0.00    +0.125 C 
ATOM     11  C   UNL     1      13.964   8.052  20.555  0.00  0.00    +0.104 C 
ATOM     12  C   UNL     1      13.065  10.841  22.840  0.00  0.00    +0.309 C 
ENDROOT
BRANCH   4  14
ATOM     14  C   UNL     1      11.154  12.339  23.626  0.00  0.00    +0.038 A 
ATOM     16  C   UNL     1      11.062  12.477  25.011  0.00  0.00    +0.023 A 
ATOM     17  C   UNL     1      10.723  13.372  22.793  0.00  0.00    +0.023 A 
ATOM     20  C   UNL     1      10.539  13.646  25.563  0.00  0.00    +0.002 A 
ATOM     21  C   UNL     1      10.200  14.541  23.345  0.00  0.00    +0.002 A 
ATOM     22  C   UNL     1      10.107  14.678  24.729  0.00  0.00    +0.000 A 
ENDBRANCH   4  14
BRANCH   3  13
ATOM     13  C   UNL     1      12.453   6.577  19.387  0.00  0.00    +0.122 C 
BRANCH  13  15
ATOM      5  N   UNL     1      12.707   8.810  16.501  0.00  0.00    -0.274 N 
ATOM      6  N   UNL     1      13.942   8.287  16.415  0.00  0.00    -0.180 NA
ATOM     15  C   UNL     1      12.779   7.410  18.175  0.00  0.00    +0.004 A 
ATOM     18  C   UNL     1      11.970   8.318  17.539  0.00  0.00    +0.112 A 
ATOM     19  C   UNL     1      13.980   7.432  17.441  0.00  0.00    +0.139 A 
ATOM     23  C   UNL     1      12.279   9.800  15.541  0.00  0.00    +0.172 C 
ENDBRANCH  13  15
ENDBRANCH   3  13
TORSDOF 3
ENDMDL
MODEL 5
REMARK VINA RESULT:      -6.1     27.151     28.902
REMARK  Name = 75537062
REMARK  4 active torsions:
REMARK  status: ('A' for Active; 'I' for Inactive)
REMARK    1  A    between atoms: N_3  and  C_13
REMARK    2  A    between atoms: N_4  and  C_14
REMARK    3  A    between atoms: N_5  and  C_23
REMARK    4  A    between atoms: C_13  and  C_15
REMARK                            x       y       z     vdW  Elec       q    Type
REMARK                         _______ _______ _______ _____ _____    ______ ____
ROOT
ATOM      1  O   UNL     1      -1.871 -11.065  15.932  0.00  0.00    -0.252 OA
ATOM      2  N   UNL     1      -2.840 -10.900  13.819  0.00  0.00    -0.278 N 
ATOM      3  N   UNL     1      -3.185 -10.103  11.142  0.00  0.00    -0.295 NA
ATOM      4  N   UNL     1      -4.238 -10.920  15.601  0.00  0.00    -0.254 N 
ATOM      7  C   UNL     1      -4.159 -10.946  13.238  0.00  0.00    +0.109 C 
ATOM      8  C   UNL     1      -4.287  -9.924  12.110  0.00  0.00    +0.109 C 
ATOM      9  C   UNL     1      -5.080 -10.705  14.429  0.00  0.00    +0.139 C 
ATOM     10  C   UNL     1      -1.684 -10.918  12.946  0.00  0.00    +0.125 C 
ATOM     11  C   UNL     1      -1.875  -9.924  11.798  0.00  0.00    +0.104 C 
ATOM     12  C   UNL     1      -2.863 -10.980  15.221  0.00  0.00    +0.309 C 
ENDROOT
BRANCH   4  14
ATOM     14  C   UNL     1      -4.765 -10.969  16.923  0.00  0.00    +0.038 A 
ATOM     16  C   UNL     1      -5.917 -10.249  17.242  0.00  0.00    +0.023 A 
ATOM     17  C   UNL     1      -4.131 -11.738  17.899  0.00  0.00    +0.023 A 
ATOM     20  C   UNL     1      -6.433 -10.298  18.537  0.00  0.00    +0.002 A 
ATOM     21  C   UNL     1      -4.647 -11.786  19.194  0.00  0.00    +0.002 A 
ATOM     22  C   UNL     1      -5.798 -11.066  19.514  0.00  0.00    +0.000 A 
ENDBRANCH   4  14
BRANCH   3  13
ATOM     13  C   UNL     1      -3.330  -9.169  10.026  0.00  0.00    +0.122 C 
BRANCH  13  15
ATOM      5  N   UNL     1      -6.539  -9.340   8.280  0.00  0.00    -0.274 N 
ATOM      6  N   UNL     1      -6.036 -10.497   7.817  0.00  0.00    -0.180 NA
ATOM     15  C   UNL     1      -4.570  -9.446   9.219  0.00  0.00    +0.004 A 
ATOM     18  C   UNL     1      -5.700  -8.672   9.123  0.00  0.00    +0.112 A 
ATOM     19  C   UNL     1      -4.833 -10.557   8.395  0.00  0.00    +0.139 A 
ATOM     23  C   UNL     1      -7.856  -8.915   7.871  0.00  0.00    +0.172 C 
ENDBRANCH  13  15
ENDBRANCH   3  13
TORSDOF 3
ENDMDL
MODEL 6
REMARK VINA RESULT:      -6.0     15.297     19.348
REMARK  Name = 75537062
REMARK  4 active torsions:
REMARK  status: ('A' for Active; 'I' for Inactive)
REMARK    1  A    between atoms: N_3  and  C_13
REMARK    2  A    between atoms: N_4  and  C_14
REMARK    3  A    between atoms: N_5  and  C_23
REMARK    4  A    between atoms: C_13  and  C_15
REMARK                            x       y       z     vdW  Elec       q    Type
REMARK                         _______ _______ _______ _____ _____    ______ ____
ROOT
ATOM      1  O   UNL     1      12.339   7.073   5.765  0.00  0.00    -0.252 OA
ATOM      2  N   UNL     1      11.722   6.111   3.734  0.00  0.00    -0.278 N 
ATOM      3  N   UNL     1      11.213   5.901   0.975  0.00  0.00    -0.295 NA
ATOM      4  N   UNL     1      10.512   5.539   5.560  0.00  0.00    -0.254 N 
ATOM      7  C   UNL     1      10.828   5.083   3.262  0.00  0.00    +0.109 C 
ATOM      8  C   UNL     1      10.174   5.500   1.946  0.00  0.00    +0.109 C 
ATOM      9  C   UNL     1       9.861   4.892   4.426  0.00  0.00    +0.139 C 
ATOM     10  C   UNL     1      12.685   6.684   2.816  0.00  0.00    +0.125 C 
ATOM     11  C   UNL     1      12.005   7.034   1.490  0.00  0.00    +0.104 C 
ATOM     12  C   UNL     1      11.615   6.328   5.117  0.00  0.00    +0.309 C 
ENDROOT
BRANCH   4  14
ATOM     14  C   UNL     1      10.016   5.427   6.891  0.00  0.00    +0.038 A 
ATOM     16  C   UNL     1       9.548   6.559   7.559  0.00  0.00    +0.023 A 
ATOM     17  C   UNL     1       9.998   4.186   7.527  0.00  0.00    +0.023 A 
ATOM     20  C   UNL     1       9.063   6.450   8.862  0.00  0.00    +0.002 A 
ATOM     21  C   UNL     1       9.513   4.076   8.831  0.00  0.00    +0.002 A 
ATOM     22  C   UNL     1       9.046   5.208   9.498  0.00  0.00    +0.000 A 
ENDBRANCH   4  14
BRANCH   3  13
ATOM     13  C   UNL     1      10.603   6.246  -0.309  0.00  0.00    +0.122 C 
BRANCH  13  15
ATOM      5  N   UNL     1       9.986   3.661  -2.823  0.00  0.00    -0.274 N 
ATOM      6  N   UNL     1      10.923   2.995  -2.126  0.00  0.00    -0.180 NA
ATOM     15  C   UNL     1      10.515   5.055  -1.227  0.00  0.00    +0.004 A 
ATOM     18  C   UNL     1       9.706   4.900  -2.325  0.00  0.00    +0.112 A 
ATOM     19  C   UNL     1      11.242   3.852  -1.152  0.00  0.00    +0.139 A 
ATOM     23  C   UNL     1       9.382   3.047  -3.981  0.00  0.00    +0.172 C 
ENDBRANCH  13  15
ENDBRANCH   3  13
TORSDOF 3
ENDMDL
MODEL 7
REMARK VINA RESULT:      -6.0     29.587     33.033
REMARK  Name = 75537062
REMARK  4 active torsions:
REMARK  status: ('A' for Active; 'I' for Inactive)
REMARK    1  A    between atoms: N_3  and  C_13
REMARK    2  A    between atoms: N_4  and  C_14
REMARK    3  A    between atoms: N_5  and  C_23
REMARK    4  A    between atoms: C_13  and  C_15
REMARK                            x       y       z     vdW  Elec       q    Type
REMARK                         _______ _______ _______ _____ _____    ______ ____
ROOT
ATOM      1  O   UNL     1     -16.423   5.668  20.713  0.00  0.00    -0.252 OA
ATOM      2  N   UNL     1     -16.330   4.416  22.677  0.00  0.00    -0.278 N 
ATOM      3  N   UNL     1     -17.203   3.196  25.057  0.00  0.00    -0.295 NA
ATOM      4  N   UNL     1     -14.540   5.714  22.190  0.00  0.00    -0.254 N 
ATOM      7  C   UNL     1     -15.360   4.079  23.688  0.00  0.00    +0.109 C 
ATOM      8  C   UNL     1     -16.007   4.063  25.072  0.00  0.00    +0.109 C 
ATOM      9  C   UNL     1     -14.272   5.131  23.501  0.00  0.00    +0.139 C 
ATOM     10  C   UNL     1     -17.605   3.727  22.664  0.00  0.00    +0.125 C 
ATOM     11  C   UNL     1     -18.192   3.681  24.077  0.00  0.00    +0.104 C 
ATOM     12  C   UNL     1     -15.827   5.315  21.722  0.00  0.00    +0.309 C 
ENDROOT
BRANCH   4  14
ATOM     14  C   UNL     1     -13.638   6.617  21.556  0.00  0.00    +0.038 A 
ATOM     16  C   UNL     1     -12.371   6.181  21.169  0.00  0.00    +0.023 A 
ATOM     17  C   UNL     1     -14.023   7.937  21.322  0.00  0.00    +0.023 A 
ATOM     20  C   UNL     1     -11.489   7.065  20.549  0.00  0.00    +0.002 A 
ATOM     21  C   UNL     1     -13.140   8.821  20.702  0.00  0.00    +0.002 A 
ATOM     22  C   UNL     1     -11.873   8.386  20.315  0.00  0.00    +0.000 A 
ENDBRANCH   4  14
BRANCH   3  13
ATOM     13  C   UNL     1     -17.797   3.126  26.392  0.00  0.00    +0.122 C 
BRANCH  13  15
ATOM      5  N   UNL     1     -15.515   1.826  28.938  0.00  0.00    -0.274 N 
ATOM      6  N   UNL     1     -15.900   0.639  28.438  0.00  0.00    -0.180 NA
ATOM     15  C   UNL     1     -16.921   2.375  27.359  0.00  0.00    +0.004 A 
ATOM     18  C   UNL     1     -16.098   2.897  28.326  0.00  0.00    +0.112 A 
ATOM     19  C   UNL     1     -16.759   0.981  27.473  0.00  0.00    +0.139 A 
ATOM     23  C   UNL     1     -14.567   1.873  30.025  0.00  0.00    +0.172 C 
ENDBRANCH  13  15
ENDBRANCH   3  13
TORSDOF 3
ENDMDL
MODEL 8
REMARK VINA RESULT:      -5.9     28.252     31.762
REMARK  Name = 75537062
REMARK  4 active torsions:
REMARK  status: ('A' for Active; 'I' for Inactive)
REMARK    1  A    between atoms: N_3  and  C_13
REMARK    2  A    between atoms: N_4  and  C_14
REMARK    3  A    between atoms: N_5  and  C_23
REMARK    4  A    between atoms: C_13  and  C_15
REMARK                            x       y       z     vdW  Elec       q    Type
REMARK                         _______ _______ _______ _____ _____    ______ ____
ROOT
ATOM      1  O   UNL     1     -15.032   7.914  18.877  0.00  0.00    -0.252 OA
ATOM      2  N   UNL     1     -15.053   6.487  20.719  0.00  0.00    -0.278 N 
ATOM      3  N   UNL     1     -15.948   5.286  23.101  0.00  0.00    -0.295 NA
ATOM      4  N   UNL     1     -13.052   7.347  20.098  0.00  0.00    -0.254 N 
ATOM      7  C   UNL     1     -14.099   5.822  21.570  0.00  0.00    +0.109 C 
ATOM      8  C   UNL     1     -14.576   5.827  23.022  0.00  0.00    +0.109 C 
ATOM      9  C   UNL     1     -12.804   6.586  21.318  0.00  0.00    +0.139 C 
ATOM     10  C   UNL     1     -16.455   6.138  20.823  0.00  0.00    +0.125 C 
ATOM     11  C   UNL     1     -16.880   6.096  22.293  0.00  0.00    +0.104 C 
ATOM     12  C   UNL     1     -14.442   7.325  19.773  0.00  0.00    +0.309 C 
ENDROOT
BRANCH   4  14
ATOM     14  C   UNL     1     -12.023   8.059  19.417  0.00  0.00    +0.038 A 
ATOM     16  C   UNL     1     -11.582   7.623  18.168  0.00  0.00    +0.023 A 
ATOM     17  C   UNL     1     -11.457   9.192  20.001  0.00  0.00    +0.023 A 
ATOM     20  C   UNL     1     -10.573   8.321  17.502  0.00  0.00    +0.002 A 
ATOM     21  C   UNL     1     -10.448   9.890  19.335  0.00  0.00    +0.002 A 
ATOM     22  C   UNL     1     -10.006   9.454  18.086  0.00  0.00    +0.000 A 
ENDBRANCH   4  14
BRANCH   3  13
ATOM     13  C   UNL     1     -16.394   5.231  24.493  0.00  0.00    +0.122 C 
BRANCH  13  15
ATOM      5  N   UNL     1     -16.562   2.031  26.256  0.00  0.00    -0.274 N 
ATOM      6  N   UNL     1     -16.624   1.536  25.008  0.00  0.00    -0.180 NA
ATOM     15  C   UNL     1     -16.476   3.815  25.001  0.00  0.00    +0.004 A 
ATOM     18  C   UNL     1     -16.473   3.391  26.307  0.00  0.00    +0.112 A 
ATOM     19  C   UNL     1     -16.570   2.631  24.245  0.00  0.00    +0.139 A 
ATOM     23  C   UNL     1     -16.595   1.133  27.386  0.00  0.00    +0.172 C 
ENDBRANCH  13  15
ENDBRANCH   3  13
TORSDOF 3
ENDMDL
MODEL 9
REMARK VINA RESULT:      -5.9     27.006     29.718
REMARK  Name = 75537062
REMARK  4 active torsions:
REMARK  status: ('A' for Active; 'I' for Inactive)
REMARK    1  A    between atoms: N_3  and  C_13
REMARK    2  A    between atoms: N_4  and  C_14
REMARK    3  A    between atoms: N_5  and  C_23
REMARK    4  A    between atoms: C_13  and  C_15
REMARK                            x       y       z     vdW  Elec       q    Type
REMARK                         _______ _______ _______ _____ _____    ______ ____
ROOT
ATOM      1  O   UNL     1      -5.323 -12.212  18.410  0.00  0.00    -0.252 OA
ATOM      2  N   UNL     1      -6.955 -10.640  17.864  0.00  0.00    -0.278 N 
ATOM      3  N   UNL     1      -9.514  -9.528  17.501  0.00  0.00    -0.295 NA
ATOM      4  N   UNL     1      -5.130 -10.746  16.527  0.00  0.00    -0.254 N 
ATOM      7  C   UNL     1      -7.117  -9.537  16.949  0.00  0.00    +0.109 C 
ATOM      8  C   UNL     1      -8.539  -9.504  16.392  0.00  0.00    +0.109 C 
ATOM      9  C   UNL     1      -6.026  -9.773  15.911  0.00  0.00    +0.139 C 
ATOM     10  C   UNL     1      -7.943 -10.846  18.903  0.00  0.00    +0.125 C 
ATOM     11  C   UNL     1      -9.353 -10.748  18.316  0.00  0.00    +0.104 C 
ATOM     12  C   UNL     1      -5.734 -11.312  17.690  0.00  0.00    +0.309 C 
ENDROOT
BRANCH   4  14
ATOM     14  C   UNL     1      -3.876 -11.102  15.952  0.00  0.00    +0.038 A 
ATOM     16  C   UNL     1      -2.716 -10.430  16.338  0.00  0.00    +0.023 A 
ATOM     17  C   UNL     1      -3.808 -12.123  15.004  0.00  0.00    +0.023 A 
ATOM     20  C   UNL     1      -1.488 -10.778  15.775  0.00  0.00    +0.002 A 
ATOM     21  C   UNL     1      -2.580 -12.471  14.441  0.00  0.00    +0.002 A 
ATOM     22  C   UNL     1      -1.420 -11.798  14.826  0.00  0.00    +0.000 A 
ENDBRANCH   4  14
BRANCH   3  13
ATOM     13  C   UNL     1     -10.879  -9.437  16.982  0.00  0.00    +0.122 C 
BRANCH  13  15
ATOM      5  N   UNL     1     -11.778  -6.488  15.014  0.00  0.00    -0.274 N 
ATOM      6  N   UNL     1     -11.215  -5.835  16.045  0.00  0.00    -0.180 NA
ATOM     15  C   UNL     1     -11.151  -8.098  16.351  0.00  0.00    +0.004 A 
ATOM     18  C   UNL     1     -11.765  -7.846  15.149  0.00  0.00    +0.112 A 
ATOM     19  C   UNL     1     -10.834  -6.824  16.858  0.00  0.00    +0.139 A 
ATOM     23  C   UNL     1     -12.323  -5.743  13.905  0.00  0.00    +0.172 C 
ENDBRANCH  13  15
ENDBRANCH   3  13
TORSDOF 3
ENDMDL
MODEL 10
REMARK VINA RESULT:      -5.8      5.864      9.095
REMARK  Name = 75537062
REMARK  4 active torsions:
REMARK  status: ('A' for Active; 'I' for Inactive)
REMARK    1  A    between atoms: N_3  and  C_13
REMARK    2  A    between atoms: N_4  and  C_14
REMARK    3  A    between atoms: N_5  and  C_23
REMARK    4  A    between atoms: C_13  and  C_15
REMARK                            x       y       z     vdW  Elec       q    Type
REMARK                         _______ _______ _______ _____ _____    ______ ____
ROOT
ATOM      1  O   UNL     1      10.808  10.969  25.502  0.00  0.00    -0.252 OA
ATOM      2  N   UNL     1      11.748  10.975  23.369  0.00  0.00    -0.278 N 
ATOM      3  N   UNL     1      12.977   9.990  21.038  0.00  0.00    -0.295 NA
ATOM      4  N   UNL     1      12.203  12.745  24.707  0.00  0.00    -0.254 N 
ATOM      7  C   UNL     1      12.474  11.887  22.521  0.00  0.00    +0.109 C 
ATOM      8  C   UNL     1      13.562  11.149  21.743  0.00  0.00    +0.109 C 
ATOM      9  C   UNL     1      12.986  12.945  23.492  0.00  0.00    +0.139 C 
ATOM     10  C   UNL     1      11.258   9.731  22.811  0.00  0.00    +0.125 C 
ATOM     11  C   UNL     1      12.357   9.052  21.993  0.00  0.00    +0.104 C 
ATOM     12  C   UNL     1      11.493  11.508  24.643  0.00  0.00    +0.309 C 
ENDROOT
BRANCH   4  14
ATOM     14  C   UNL     1      12.247  13.653  25.804  0.00  0.00    +0.038 A 
ATOM     16  C   UNL     1      13.399  13.749  26.584  0.00  0.00    +0.023 A 
ATOM     17  C   UNL     1      11.138  14.448  26.096  0.00  0.00    +0.023 A 
ATOM     20  C   UNL     1      13.442  14.638  27.658  0.00  0.00    +0.002 A 
ATOM     21  C   UNL     1      11.182  15.337  27.170  0.00  0.00    +0.002 A 
ATOM     22  C   UNL     1      12.333  15.432  27.952  0.00  0.00    +0.000 A 
ENDBRANCH   4  14
BRANCH   3  13
ATOM     13  C   UNL     1      13.998   9.310  20.242  0.00  0.00    +0.122 C 
BRANCH  13  15
ATOM      5  N   UNL     1      12.615   8.957  16.874  0.00  0.00    -0.274 N 
ATOM      6  N   UNL     1      12.964   7.670  17.046  0.00  0.00    -0.180 NA
ATOM     15  C   UNL     1      13.488   8.933  18.876  0.00  0.00    +0.004 A 
ATOM     18  C   UNL     1      12.908   9.755  17.941  0.00  0.00    +0.112 A 
ATOM     19  C   UNL     1      13.496   7.662  18.272  0.00  0.00    +0.139 A 
ATOM     23  C   UNL     1      11.993   9.372  15.640  0.00  0.00    +0.172 C 
ENDBRANCH  13  15
ENDBRANCH   3  13
TORSDOF 3
ENDMDL
