MODEL 1
REMARK VINA RESULT:      -6.3      0.000      0.000
REMARK  Name = 38029812
REMARK  13 active torsions:
REMARK  status: ('A' for Active; 'I' for Inactive)
REMARK    1  A    between atoms: O_1  and  C_18
REMARK    2  A    between atoms: O_1  and  C_21
REMARK    3  A    between atoms: N_4  and  C_13
REMARK    4  A    between atoms: C_6  and  C_10
REMARK    5  A    between atoms: C_7  and  C_13
REMARK    6  A    between atoms: C_9  and  C_14
REMARK    7  A    between atoms: C_10  and  C_15
REMARK    8  A    between atoms: C_10  and  C_16
REMARK    9  A    between atoms: C_11  and  C_17
REMARK   10  A    between atoms: C_14  and  C_18
REMARK   11  A    between atoms: C_19  and  C_20
REMARK   12  A    between atoms: C_21  and  C_24
REMARK   13  A    between atoms: C_27  and  C_28
REMARK                            x       y       z     vdW  Elec       q    Type
REMARK                         _______ _______ _______ _____ _____    ______ ____
ROOT
ATOM      6  C   UNL     1      -3.194 -12.089  12.681  0.00  0.00    +0.000 C 
ATOM      7  C   UNL     1      -2.091 -11.022  12.465  0.00  0.00    +0.032 C 
ATOM      8  C   UNL     1      -3.799 -12.515  11.335  0.00  0.00    +0.012 C 
ATOM      9  C   UNL     1      -4.413 -11.327  10.570  0.00  0.00    +0.025 C 
ATOM     11  C   UNL     1      -3.481 -10.132  10.545  0.00  0.00    -0.073 C 
ATOM     12  C   UNL     1      -2.441 -10.020  11.390  0.00  0.00    -0.022 C 
ATOM     17  C   UNL     1      -3.745  -9.089   9.495  0.00  0.00    +0.039 C 
ENDROOT
BRANCH   6  10
ATOM     10  C   UNL     1      -2.659 -13.318  13.421  0.00  0.00    -0.013 C 
ATOM     15  C   UNL     1      -2.290 -14.418  12.430  0.00  0.00    +0.007 C 
ATOM     16  C   UNL     1      -3.687 -13.822  14.429  0.00  0.00    +0.007 C 
ENDBRANCH   6  10
BRANCH   7  13
ATOM     13  C   UNL     1      -1.772 -10.284  13.769  0.00  0.00    +0.112 C 
BRANCH  13   4
ATOM      3  O   UNL     1      -1.629 -10.827  16.585  0.00  0.00    -0.270 OA
ATOM      4  N   UNL     1      -2.872 -10.365  14.680  0.00  0.00    -0.311 N 
ATOM     19  C   UNL     1      -2.712 -10.635  16.039  0.00  0.00    +0.244 C 
ATOM     29  H   UNL     1      -3.799 -10.225  14.296  0.00  0.00    +0.149 HD
BRANCH  19  20
ATOM     20  C   UNL     1      -3.957 -10.713  16.847  0.00  0.00    +0.037 A 
ATOM     22  C   UNL     1      -5.102 -10.034  16.431  0.00  0.00    +0.014 A 
ATOM     23  C   UNL     1      -3.978 -11.465  18.022  0.00  0.00    +0.014 A 
ATOM     25  C   UNL     1      -6.269 -10.107  17.191  0.00  0.00    +0.019 A 
ATOM     26  C   UNL     1      -5.146 -11.537  18.781  0.00  0.00    +0.019 A 
ATOM     27  C   UNL     1      -6.292 -10.858  18.366  0.00  0.00    +0.052 A 
BRANCH  27  28
ATOM      5  N   UNL     1      -8.459 -10.995  19.776  0.00  0.00    -0.191 NA
ATOM     28  C   UNL     1      -7.488 -10.934  19.143  0.00  0.00    +0.099 C 
ENDBRANCH  27  28
ENDBRANCH  19  20
ENDBRANCH  13   4
ENDBRANCH   7  13
BRANCH   9  14
ATOM     14  C   UNL     1      -5.780 -10.944  11.148  0.00  0.00    +0.128 C 
BRANCH  14  18
ATOM      2  O   UNL     1      -7.515 -12.390  10.249  0.00  0.00    -0.251 OA
ATOM     18  C   UNL     1      -6.901 -11.333  10.221  0.00  0.00    +0.308 C 
BRANCH  18   1
ATOM      1  O   UNL     1      -7.114 -10.305   9.346  0.00  0.00    -0.465 OA
BRANCH   1  21
ATOM     21  C   UNL     1      -7.456  -9.050   9.943  0.00  0.00    +0.229 C 
ATOM     24  C   UNL     1      -7.326  -7.957   8.903  0.00  0.00    +0.048 C 
ENDBRANCH   1  21
ENDBRANCH  18   1
ENDBRANCH  14  18
ENDBRANCH   9  14
TORSDOF 9
ENDMDL
MODEL 2
REMARK VINA RESULT:      -6.1     26.280     28.826
REMARK  Name = 38029812
REMARK  13 active torsions:
REMARK  status: ('A' for Active; 'I' for Inactive)
REMARK    1  A    between atoms: O_1  and  C_18
REMARK    2  A    between atoms: O_1  and  C_21
REMARK    3  A    between atoms: N_4  and  C_13
REMARK    4  A    between atoms: C_6  and  C_10
REMARK    5  A    between atoms: C_7  and  C_13
REMARK    6  A    between atoms: C_9  and  C_14
REMARK    7  A    between atoms: C_10  and  C_15
REMARK    8  A    between atoms: C_10  and  C_16
REMARK    9  A    between atoms: C_11  and  C_17
REMARK   10  A    between atoms: C_14  and  C_18
REMARK   11  A    between atoms: C_19  and  C_20
REMARK   12  A    between atoms: C_21  and  C_24
REMARK   13  A    between atoms: C_27  and  C_28
REMARK                            x       y       z     vdW  Elec       q    Type
REMARK                         _______ _______ _______ _____ _____    ______ ____
ROOT
ATOM      6  C   UNL     1      11.980   8.997  20.475  0.00  0.00    +0.000 C 
ATOM      7  C   UNL     1      12.938   7.847  20.874  0.00  0.00    +0.032 C 
ATOM      8  C   UNL     1      11.306   8.691  19.130  0.00  0.00    +0.012 C 
ATOM      9  C   UNL     1      12.330   8.493  17.996  0.00  0.00    +0.025 C 
ATOM     11  C   UNL     1      13.459   7.573  18.412  0.00  0.00    -0.073 C 
ATOM     12  C   UNL     1      13.707   7.285  19.702  0.00  0.00    -0.022 C 
ATOM     17  C   UNL     1      14.270   6.954  17.308  0.00  0.00    +0.039 C 
ENDROOT
BRANCH   6  10
ATOM     10  C   UNL     1      10.913   9.246  21.545  0.00  0.00    -0.013 C 
ATOM     15  C   UNL     1      11.344  10.378  22.473  0.00  0.00    +0.007 C 
ATOM     16  C   UNL     1      10.646   7.971  22.338  0.00  0.00    +0.007 C 
ENDBRANCH   6  10
BRANCH   7  13
ATOM     13  C   UNL     1      13.920   8.297  21.962  0.00  0.00    +0.112 C 
BRANCH  13   4
ATOM      3  O   UNL     1      16.367   9.713  21.460  0.00  0.00    -0.270 OA
ATOM      4  N   UNL     1      15.211   7.721  21.749  0.00  0.00    -0.311 N 
ATOM     19  C   UNL     1      16.352   8.486  21.510  0.00  0.00    +0.244 C 
ATOM     29  H   UNL     1      15.273   6.709  21.769  0.00  0.00    +0.149 HD
BRANCH  19  20
ATOM     20  C   UNL     1      17.614   7.735  21.283  0.00  0.00    +0.037 A 
ATOM     22  C   UNL     1      18.804   8.181  21.858  0.00  0.00    +0.014 A 
ATOM     23  C   UNL     1      17.608   6.585  20.492  0.00  0.00    +0.014 A 
ATOM     25  C   UNL     1      19.988   7.476  21.643  0.00  0.00    +0.019 A 
ATOM     26  C   UNL     1      18.793   5.881  20.278  0.00  0.00    +0.019 A 
ATOM     27  C   UNL     1      19.984   6.327  20.854  0.00  0.00    +0.052 A 
BRANCH  27  28
ATOM      5  N   UNL     1      22.182   5.018  20.456  0.00  0.00    -0.191 NA
ATOM     28  C   UNL     1      21.196   5.605  20.634  0.00  0.00    +0.099 C 
ENDBRANCH  27  28
ENDBRANCH  19  20
ENDBRANCH  13   4
ENDBRANCH   7  13
BRANCH   9  14
ATOM     14  C   UNL     1      12.874   9.839  17.502  0.00  0.00    +0.128 C 
BRANCH  14  18
ATOM      2  O   UNL     1      12.392   9.120  15.229  0.00  0.00    -0.251 OA
ATOM     18  C   UNL     1      12.958   9.884  15.999  0.00  0.00    +0.308 C 
BRANCH  18   1
ATOM      1  O   UNL     1      13.774  10.921  15.644  0.00  0.00    -0.465 OA
BRANCH   1  21
ATOM     21  C   UNL     1      14.815  11.231  16.575  0.00  0.00    +0.229 C 
ATOM     24  C   UNL     1      15.984  11.833  15.825  0.00  0.00    +0.048 C 
ENDBRANCH   1  21
ENDBRANCH  18   1
ENDBRANCH  14  18
ENDBRANCH   9  14
TORSDOF 9
ENDMDL
MODEL 3
REMARK VINA RESULT:      -6.0     26.312     28.933
REMARK  Name = 38029812
REMARK  13 active torsions:
REMARK  status: ('A' for Active; 'I' for Inactive)
REMARK    1  A    between atoms: O_1  and  C_18
REMARK    2  A    between atoms: O_1  and  C_21
REMARK    3  A    between atoms: N_4  and  C_13
REMARK    4  A    between atoms: C_6  and  C_10
REMARK    5  A    between atoms: C_7  and  C_13
REMARK    6  A    between atoms: C_9  and  C_14
REMARK    7  A    between atoms: C_10  and  C_15
REMARK    8  A    between atoms: C_10  and  C_16
REMARK    9  A    between atoms: C_11  and  C_17
REMARK   10  A    between atoms: C_14  and  C_18
REMARK   11  A    between atoms: C_19  and  C_20
REMARK   12  A    between atoms: C_21  and  C_24
REMARK   13  A    between atoms: C_27  and  C_28
REMARK                            x       y       z     vdW  Elec       q    Type
REMARK                         _______ _______ _______ _____ _____    ______ ____
ROOT
ATOM      6  C   UNL     1      13.143   9.101  20.158  0.00  0.00    +0.000 C 
ATOM      7  C   UNL     1      12.205   8.051  19.511  0.00  0.00    +0.032 C 
ATOM      8  C   UNL     1      12.910  10.485  19.535  0.00  0.00    +0.012 C 
ATOM      9  C   UNL     1      13.153  10.487  18.014  0.00  0.00    +0.025 C 
ATOM     11  C   UNL     1      12.473   9.316  17.334  0.00  0.00    -0.073 C 
ATOM     12  C   UNL     1      12.044   8.242  18.021  0.00  0.00    -0.022 C 
ATOM     17  C   UNL     1      12.257   9.427  15.850  0.00  0.00    +0.039 C 
ENDROOT
BRANCH   6  10
ATOM     10  C   UNL     1      12.950   9.176  21.676  0.00  0.00    -0.013 C 
ATOM     15  C   UNL     1      11.500   9.514  22.012  0.00  0.00    +0.007 C 
ATOM     16  C   UNL     1      13.899  10.203  22.284  0.00  0.00    +0.007 C 
ENDBRANCH   6  10
BRANCH   7  13
ATOM     13  C   UNL     1      12.690   6.625  19.794  0.00  0.00    +0.112 C 
BRANCH  13   4
ATOM      3  O   UNL     1      14.983   6.818  18.076  0.00  0.00    -0.270 OA
ATOM      4  N   UNL     1      14.062   6.627  20.198  0.00  0.00    -0.311 N 
ATOM     19  C   UNL     1      15.119   6.725  19.293  0.00  0.00    +0.244 C 
ATOM     29  H   UNL     1      14.250   6.544  21.190  0.00  0.00    +0.149 HD
BRANCH  19  20
ATOM     20  C   UNL     1      16.488   6.686  19.870  0.00  0.00    +0.037 A 
ATOM     22  C   UNL     1      17.454   5.847  19.316  0.00  0.00    +0.014 A 
ATOM     23  C   UNL     1      16.805   7.490  20.966  0.00  0.00    +0.014 A 
ATOM     25  C   UNL     1      18.738   5.810  19.858  0.00  0.00    +0.019 A 
ATOM     26  C   UNL     1      18.089   7.453  21.507  0.00  0.00    +0.019 A 
ATOM     27  C   UNL     1      19.057   6.613  20.953  0.00  0.00    +0.052 A 
BRANCH  27  28
ATOM      5  N   UNL     1      21.441   6.547  21.960  0.00  0.00    -0.191 NA
ATOM     28  C   UNL     1      20.373   6.577  21.508  0.00  0.00    +0.099 C 
ENDBRANCH  27  28
ENDBRANCH  19  20
ENDBRANCH  13   4
ENDBRANCH   7  13
BRANCH   9  14
ATOM     14  C   UNL     1      14.652  10.512  17.693  0.00  0.00    +0.128 C 
BRANCH  14  18
ATOM      2  O   UNL     1      14.760  12.940  17.764  0.00  0.00    -0.251 OA
ATOM     18  C   UNL     1      15.102  11.881  17.257  0.00  0.00    +0.308 C 
BRANCH  18   1
ATOM      1  O   UNL     1      15.956  11.737  16.199  0.00  0.00    -0.465 OA
BRANCH   1  21
ATOM     21  C   UNL     1      15.445  10.986  15.094  0.00  0.00    +0.229 C 
ATOM     24  C   UNL     1      14.609  11.899  14.222  0.00  0.00    +0.048 C 
ENDBRANCH   1  21
ENDBRANCH  18   1
ENDBRANCH  14  18
ENDBRANCH   9  14
TORSDOF 9
ENDMDL
MODEL 4
REMARK VINA RESULT:      -5.8     21.295     23.377
REMARK  Name = 38029812
REMARK  13 active torsions:
REMARK  status: ('A' for Active; 'I' for Inactive)
REMARK    1  A    between atoms: O_1  and  C_18
REMARK    2  A    between atoms: O_1  and  C_21
REMARK    3  A    between atoms: N_4  and  C_13
REMARK    4  A    between atoms: C_6  and  C_10
REMARK    5  A    between atoms: C_7  and  C_13
REMARK    6  A    between atoms: C_9  and  C_14
REMARK    7  A    between atoms: C_10  and  C_15
REMARK    8  A    between atoms: C_10  and  C_16
REMARK    9  A    between atoms: C_11  and  C_17
REMARK   10  A    between atoms: C_14  and  C_18
REMARK   11  A    between atoms: C_19  and  C_20
REMARK   12  A    between atoms: C_21  and  C_24
REMARK   13  A    between atoms: C_27  and  C_28
REMARK                            x       y       z     vdW  Elec       q    Type
REMARK                         _______ _______ _______ _____ _____    ______ ____
ROOT
ATOM      6  C   UNL     1     -12.841   8.402  20.250  0.00  0.00    +0.000 C 
ATOM      7  C   UNL     1     -12.044   9.517  20.973  0.00  0.00    +0.032 C 
ATOM      8  C   UNL     1     -11.998   7.783  19.126  0.00  0.00    +0.012 C 
ATOM      9  C   UNL     1     -11.562   8.828  18.081  0.00  0.00    +0.025 C 
ATOM     11  C   UNL     1     -11.008  10.078  18.733  0.00  0.00    -0.073 C 
ATOM     12  C   UNL     1     -11.222  10.362  20.030  0.00  0.00    -0.022 C 
ATOM     17  C   UNL     1     -10.162  10.973  17.870  0.00  0.00    +0.039 C 
ENDROOT
BRANCH   6  10
ATOM     10  C   UNL     1     -13.296   7.308  21.220  0.00  0.00    -0.013 C 
ATOM     15  C   UNL     1     -12.280   6.170  21.254  0.00  0.00    +0.007 C 
ATOM     16  C   UNL     1     -14.676   6.789  20.828  0.00  0.00    +0.007 C 
ENDBRANCH   6  10
BRANCH   7  13
ATOM     13  C   UNL     1     -12.974  10.420  21.792  0.00  0.00    +0.112 C 
BRANCH  13   4
ATOM      3  O   UNL     1     -12.631  12.481  23.761  0.00  0.00    -0.270 OA
ATOM      4  N   UNL     1     -12.757  10.235  23.193  0.00  0.00    -0.311 N 
ATOM     19  C   UNL     1     -12.599  11.296  24.083  0.00  0.00    +0.244 C 
ATOM     29  H   UNL     1     -12.711   9.279  23.529  0.00  0.00    +0.149 HD
BRANCH  19  20
ATOM     20  C   UNL     1     -12.355  10.936  25.504  0.00  0.00    +0.037 A 
ATOM     22  C   UNL     1     -11.055  10.698  25.949  0.00  0.00    +0.014 A 
ATOM     23  C   UNL     1     -13.427  10.838  26.392  0.00  0.00    +0.014 A 
ATOM     25  C   UNL     1     -10.827  10.359  27.282  0.00  0.00    +0.019 A 
ATOM     26  C   UNL     1     -13.198  10.499  27.725  0.00  0.00    +0.019 A 
ATOM     27  C   UNL     1     -11.897  10.260  28.171  0.00  0.00    +0.052 A 
BRANCH  27  28
ATOM      5  N   UNL     1     -11.474   9.633  30.647  0.00  0.00    -0.191 NA
ATOM     28  C   UNL     1     -11.663   9.915  29.537  0.00  0.00    +0.099 C 
ENDBRANCH  27  28
ENDBRANCH  19  20
ENDBRANCH  13   4
ENDBRANCH   7  13
BRANCH   9  14
ATOM     14  C   UNL     1     -12.714   9.171  17.129  0.00  0.00    +0.128 C 
BRANCH  14  18
ATOM      2  O   UNL     1     -13.442   8.038  15.104  0.00  0.00    -0.251 OA
ATOM     18  C   UNL     1     -12.542   8.504  15.790  0.00  0.00    +0.308 C 
BRANCH  18   1
ATOM      1  O   UNL     1     -11.213   8.509  15.473  0.00  0.00    -0.465 OA
BRANCH   1  21
ATOM     21  C   UNL     1     -10.914   8.465  14.075  0.00  0.00    +0.229 C 
ATOM     24  C   UNL     1     -10.173   7.180  13.769  0.00  0.00    +0.048 C 
ENDBRANCH   1  21
ENDBRANCH  18   1
ENDBRANCH  14  18
ENDBRANCH   9  14
TORSDOF 9
ENDMDL
MODEL 5
REMARK VINA RESULT:      -5.8      1.155      1.619
REMARK  Name = 38029812
REMARK  13 active torsions:
REMARK  status: ('A' for Active; 'I' for Inactive)
REMARK    1  A    between atoms: O_1  and  C_18
REMARK    2  A    between atoms: O_1  and  C_21
REMARK    3  A    between atoms: N_4  and  C_13
REMARK    4  A    between atoms: C_6  and  C_10
REMARK    5  A    between atoms: C_7  and  C_13
REMARK    6  A    between atoms: C_9  and  C_14
REMARK    7  A    between atoms: C_10  and  C_15
REMARK    8  A    between atoms: C_10  and  C_16
REMARK    9  A    between atoms: C_11  and  C_17
REMARK   10  A    between atoms: C_14  and  C_18
REMARK   11  A    between atoms: C_19  and  C_20
REMARK   12  A    between atoms: C_21  and  C_24
REMARK   13  A    between atoms: C_27  and  C_28
REMARK                            x       y       z     vdW  Elec       q    Type
REMARK                         _______ _______ _______ _____ _____    ______ ____
ROOT
ATOM      6  C   UNL     1      -2.941 -12.376  12.928  0.00  0.00    +0.000 C 
ATOM      7  C   UNL     1      -1.911 -11.219  12.900  0.00  0.00    +0.032 C 
ATOM      8  C   UNL     1      -3.342 -12.771  11.500  0.00  0.00    +0.012 C 
ATOM      9  C   UNL     1      -3.954 -11.592  10.719  0.00  0.00    +0.025 C 
ATOM     11  C   UNL     1      -3.127 -10.331  10.865  0.00  0.00    -0.073 C 
ATOM     12  C   UNL     1      -2.209 -10.188  11.837  0.00  0.00    -0.022 C 
ATOM     17  C   UNL     1      -3.348  -9.254   9.839  0.00  0.00    +0.039 C 
ENDROOT
BRANCH   6  10
ATOM     10  C   UNL     1      -2.400 -13.601  13.673  0.00  0.00    -0.013 C 
ATOM     15  C   UNL     1      -2.001 -14.692  12.683  0.00  0.00    +0.007 C 
ATOM     16  C   UNL     1      -3.436 -14.122  14.663  0.00  0.00    +0.007 C 
ENDBRANCH   6  10
BRANCH   7  13
ATOM     13  C   UNL     1      -1.812 -10.532  14.267  0.00  0.00    +0.112 C 
BRANCH  13   4
ATOM      3  O   UNL     1      -2.623 -11.106  16.961  0.00  0.00    -0.270 OA
ATOM      4  N   UNL     1      -3.112 -10.331  14.828  0.00  0.00    -0.311 N 
ATOM     19  C   UNL     1      -3.422 -10.639  16.152  0.00  0.00    +0.244 C 
ATOM     29  H   UNL     1      -3.826  -9.955  14.214  0.00  0.00    +0.149 HD
BRANCH  19  20
ATOM     20  C   UNL     1      -4.825 -10.398  16.576  0.00  0.00    +0.037 A 
ATOM     22  C   UNL     1      -5.209 -10.649  17.893  0.00  0.00    +0.014 A 
ATOM     23  C   UNL     1      -5.758  -9.919  15.655  0.00  0.00    +0.014 A 
ATOM     25  C   UNL     1      -6.527 -10.423  18.289  0.00  0.00    +0.019 A 
ATOM     26  C   UNL     1      -7.075  -9.692  16.053  0.00  0.00    +0.019 A 
ATOM     27  C   UNL     1      -7.460  -9.944  17.371  0.00  0.00    +0.052 A 
BRANCH  27  28
ATOM      5  N   UNL     1      -9.906  -9.522  18.107  0.00  0.00    -0.191 NA
ATOM     28  C   UNL     1      -8.810  -9.711  17.777  0.00  0.00    +0.099 C 
ENDBRANCH  27  28
ENDBRANCH  19  20
ENDBRANCH  13   4
ENDBRANCH   7  13
BRANCH   9  14
ATOM     14  C   UNL     1      -5.408 -11.346  11.140  0.00  0.00    +0.128 C 
BRANCH  14  18
ATOM      2  O   UNL     1      -6.291 -11.891   8.941  0.00  0.00    -0.251 OA
ATOM     18  C   UNL     1      -6.312 -11.193   9.945  0.00  0.00    +0.308 C 
BRANCH  18   1
ATOM      1  O   UNL     1      -7.156 -10.143  10.174  0.00  0.00    -0.465 OA
BRANCH   1  21
ATOM     21  C   UNL     1      -7.047  -9.537  11.466  0.00  0.00    +0.229 C 
ATOM     24  C   UNL     1      -8.348  -9.734  12.215  0.00  0.00    +0.048 C 
ENDBRANCH   1  21
ENDBRANCH  18   1
ENDBRANCH  14  18
ENDBRANCH   9  14
TORSDOF 9
ENDMDL
MODEL 6
REMARK VINA RESULT:      -5.6     22.618     25.289
REMARK  Name = 38029812
REMARK  13 active torsions:
REMARK  status: ('A' for Active; 'I' for Inactive)
REMARK    1  A    between atoms: O_1  and  C_18
REMARK    2  A    between atoms: O_1  and  C_21
REMARK    3  A    between atoms: N_4  and  C_13
REMARK    4  A    between atoms: C_6  and  C_10
REMARK    5  A    between atoms: C_7  and  C_13
REMARK    6  A    between atoms: C_9  and  C_14
REMARK    7  A    between atoms: C_10  and  C_15
REMARK    8  A    between atoms: C_10  and  C_16
REMARK    9  A    between atoms: C_11  and  C_17
REMARK   10  A    between atoms: C_14  and  C_18
REMARK   11  A    between atoms: C_19  and  C_20
REMARK   12  A    between atoms: C_21  and  C_24
REMARK   13  A    between atoms: C_27  and  C_28
REMARK                            x       y       z     vdW  Elec       q    Type
REMARK                         _______ _______ _______ _____ _____    ______ ____
ROOT
ATOM      6  C   UNL     1      10.212   6.105   1.237  0.00  0.00    +0.000 C 
ATOM      7  C   UNL     1       9.873   7.611   1.367  0.00  0.00    +0.032 C 
ATOM      8  C   UNL     1      11.100   5.859   0.008  0.00  0.00    +0.012 C 
ATOM      9  C   UNL     1      10.428   6.322  -1.299  0.00  0.00    +0.025 C 
ATOM     11  C   UNL     1       9.829   7.707  -1.163  0.00  0.00    -0.073 C 
ATOM     12  C   UNL     1       9.602   8.273   0.036  0.00  0.00    -0.022 C 
ATOM     17  C   UNL     1       9.540   8.448  -2.439  0.00  0.00    +0.039 C 
ENDROOT
BRANCH   6  10
ATOM     10  C   UNL     1      10.904   5.567   2.493  0.00  0.00    -0.013 C 
ATOM     15  C   UNL     1      12.285   6.197   2.651  0.00  0.00    +0.007 C 
ATOM     16  C   UNL     1      11.007   4.047   2.435  0.00  0.00    +0.007 C 
ENDBRANCH   6  10
BRANCH   7  13
ATOM     13  C   UNL     1       8.679   7.832   2.301  0.00  0.00    +0.112 C 
BRANCH  13   4
ATOM      3  O   UNL     1       7.696   8.767   4.832  0.00  0.00    -0.270 OA
ATOM      4  N   UNL     1       8.920   7.242   3.581  0.00  0.00    -0.311 N 
ATOM     19  C   UNL     1       8.402   7.764   4.766  0.00  0.00    +0.244 C 
ATOM     29  H   UNL     1       9.504   6.414   3.604  0.00  0.00    +0.149 HD
BRANCH  19  20
ATOM     20  C   UNL     1       8.767   7.050   6.017  0.00  0.00    +0.037 A 
ATOM     22  C   UNL     1       9.347   5.783   5.953  0.00  0.00    +0.014 A 
ATOM     23  C   UNL     1       8.529   7.648   7.255  0.00  0.00    +0.014 A 
ATOM     25  C   UNL     1       9.688   5.113   7.128  0.00  0.00    +0.019 A 
ATOM     26  C   UNL     1       8.871   6.978   8.429  0.00  0.00    +0.019 A 
ATOM     27  C   UNL     1       9.451   5.710   8.366  0.00  0.00    +0.052 A 
BRANCH  27  28
ATOM      5  N   UNL     1      10.086   4.467  10.547  0.00  0.00    -0.191 NA
ATOM     28  C   UNL     1       9.801   5.024   9.569  0.00  0.00    +0.099 C 
ENDBRANCH  27  28
ENDBRANCH  19  20
ENDBRANCH  13   4
ENDBRANCH   7  13
BRANCH   9  14
ATOM     14  C   UNL     1       9.373   5.313  -1.765  0.00  0.00    +0.128 C 
BRANCH  14  18
ATOM      2  O   UNL     1      10.152   4.722  -3.992  0.00  0.00    -0.251 OA
ATOM     18  C   UNL     1       9.914   4.402  -2.836  0.00  0.00    +0.308 C 
BRANCH  18   1
ATOM      1  O   UNL     1      10.092   3.159  -2.295  0.00  0.00    -0.465 OA
BRANCH   1  21
ATOM     21  C   UNL     1      11.309   2.500  -2.657  0.00  0.00    +0.229 C 
ATOM     24  C   UNL     1      12.370   2.820  -1.624  0.00  0.00    +0.048 C 
ENDBRANCH   1  21
ENDBRANCH  18   1
ENDBRANCH  14  18
ENDBRANCH   9  14
TORSDOF 9
ENDMDL
MODEL 7
REMARK VINA RESULT:      -5.6      4.916      8.519
REMARK  Name = 38029812
REMARK  13 active torsions:
REMARK  status: ('A' for Active; 'I' for Inactive)
REMARK    1  A    between atoms: O_1  and  C_18
REMARK    2  A    between atoms: O_1  and  C_21
REMARK    3  A    between atoms: N_4  and  C_13
REMARK    4  A    between atoms: C_6  and  C_10
REMARK    5  A    between atoms: C_7  and  C_13
REMARK    6  A    between atoms: C_9  and  C_14
REMARK    7  A    between atoms: C_10  and  C_15
REMARK    8  A    between atoms: C_10  and  C_16
REMARK    9  A    between atoms: C_11  and  C_17
REMARK   10  A    between atoms: C_14  and  C_18
REMARK   11  A    between atoms: C_19  and  C_20
REMARK   12  A    between atoms: C_21  and  C_24
REMARK   13  A    between atoms: C_27  and  C_28
REMARK                            x       y       z     vdW  Elec       q    Type
REMARK                         _______ _______ _______ _____ _____    ______ ____
ROOT
ATOM      6  C   UNL     1     -11.568  -9.835  19.050  0.00  0.00    +0.000 C 
ATOM      7  C   UNL     1     -10.583 -10.941  18.597  0.00  0.00    +0.032 C 
ATOM      8  C   UNL     1     -12.575  -9.523  17.934  0.00  0.00    +0.012 C 
ATOM      9  C   UNL     1     -11.884  -9.059  16.637  0.00  0.00    +0.025 C 
ATOM     11  C   UNL     1     -10.720  -9.957  16.268  0.00  0.00    -0.073 C 
ATOM     12  C   UNL     1     -10.161 -10.801  17.153  0.00  0.00    -0.022 C 
ATOM     17  C   UNL     1     -10.243  -9.895  14.844  0.00  0.00    +0.039 C 
ENDROOT
BRANCH   6  10
ATOM     10  C   UNL     1     -12.315 -10.227  20.328  0.00  0.00    -0.013 C 
ATOM     15  C   UNL     1     -12.664 -11.713  20.306  0.00  0.00    +0.007 C 
ATOM     16  C   UNL     1     -13.573  -9.380  20.492  0.00  0.00    +0.007 C 
ENDBRANCH   6  10
BRANCH   7  13
ATOM     13  C   UNL     1      -9.339 -10.975  19.492  0.00  0.00    +0.112 C 
BRANCH  13   4
ATOM      3  O   UNL     1      -6.641 -11.175  20.455  0.00  0.00    -0.270 OA
ATOM      4  N   UNL     1      -8.146 -10.932  18.705  0.00  0.00    -0.311 N 
ATOM     19  C   UNL     1      -6.870 -11.036  19.256  0.00  0.00    +0.244 C 
ATOM     29  H   UNL     1      -8.259 -10.810  17.705  0.00  0.00    +0.149 HD
BRANCH  19  20
ATOM     20  C   UNL     1      -5.731 -10.945  18.307  0.00  0.00    +0.037 A 
ATOM     22  C   UNL     1      -5.904 -10.333  17.066  0.00  0.00    +0.014 A 
ATOM     23  C   UNL     1      -4.488 -11.474  18.657  0.00  0.00    +0.014 A 
ATOM     25  C   UNL     1      -4.835 -10.249  16.175  0.00  0.00    +0.019 A 
ATOM     26  C   UNL     1      -3.419 -11.389  17.766  0.00  0.00    +0.019 A 
ATOM     27  C   UNL     1      -3.592 -10.776  16.524  0.00  0.00    +0.052 A 
BRANCH  27  28
ATOM      5  N   UNL     1      -1.606 -10.619  14.870  0.00  0.00    -0.191 NA
ATOM     28  C   UNL     1      -2.496 -10.690  15.612  0.00  0.00    +0.099 C 
ENDBRANCH  27  28
ENDBRANCH  19  20
ENDBRANCH  13   4
ENDBRANCH   7  13
BRANCH   9  14
ATOM     14  C   UNL     1     -11.436  -7.597  16.743  0.00  0.00    +0.128 C 
BRANCH  14  18
ATOM      2  O   UNL     1     -11.605  -5.665  15.276  0.00  0.00    -0.251 OA
ATOM     18  C   UNL     1     -12.020  -6.758  15.637  0.00  0.00    +0.308 C 
BRANCH  18   1
ATOM      1  O   UNL     1     -13.089  -7.424  15.109  0.00  0.00    -0.465 OA
BRANCH   1  21
ATOM     21  C   UNL     1     -14.315  -6.688  15.071  0.00  0.00    +0.229 C 
ATOM     24  C   UNL     1     -15.129  -7.020  16.304  0.00  0.00    +0.048 C 
ENDBRANCH   1  21
ENDBRANCH  18   1
ENDBRANCH  14  18
ENDBRANCH   9  14
TORSDOF 9
ENDMDL
MODEL 8
REMARK VINA RESULT:      -5.4     23.931     27.412
REMARK  Name = 38029812
REMARK  13 active torsions:
REMARK  status: ('A' for Active; 'I' for Inactive)
REMARK    1  A    between atoms: O_1  and  C_18
REMARK    2  A    between atoms: O_1  and  C_21
REMARK    3  A    between atoms: N_4  and  C_13
REMARK    4  A    between atoms: C_6  and  C_10
REMARK    5  A    between atoms: C_7  and  C_13
REMARK    6  A    between atoms: C_9  and  C_14
REMARK    7  A    between atoms: C_10  and  C_15
REMARK    8  A    between atoms: C_10  and  C_16
REMARK    9  A    between atoms: C_11  and  C_17
REMARK   10  A    between atoms: C_14  and  C_18
REMARK   11  A    between atoms: C_19  and  C_20
REMARK   12  A    between atoms: C_21  and  C_24
REMARK   13  A    between atoms: C_27  and  C_28
REMARK                            x       y       z     vdW  Elec       q    Type
REMARK                         _______ _______ _______ _____ _____    ______ ____
ROOT
ATOM      6  C   UNL     1      10.506   6.455   6.434  0.00  0.00    +0.000 C 
ATOM      7  C   UNL     1      10.138   6.398   4.930  0.00  0.00    +0.032 C 
ATOM      8  C   UNL     1      10.759   7.905   6.870  0.00  0.00    +0.012 C 
ATOM      9  C   UNL     1      11.895   8.565   6.065  0.00  0.00    +0.025 C 
ATOM     11  C   UNL     1      11.746   8.322   4.577  0.00  0.00    -0.073 C 
ATOM     12  C   UNL     1      10.945   7.358   4.088  0.00  0.00    -0.022 C 
ATOM     17  C   UNL     1      12.503   9.243   3.661  0.00  0.00    +0.039 C 
ENDROOT
BRANCH   6  10
ATOM     10  C   UNL     1       9.413   5.833   7.310  0.00  0.00    -0.013 C 
ATOM     15  C   UNL     1       8.835   6.877   8.260  0.00  0.00    +0.007 C 
ATOM     16  C   UNL     1       9.966   4.643   8.086  0.00  0.00    +0.007 C 
ENDBRANCH   6  10
BRANCH   7  13
ATOM     13  C   UNL     1      10.293   4.977   4.375  0.00  0.00    +0.112 C 
BRANCH  13   4
ATOM      3  O   UNL     1      10.286   3.975   1.684  0.00  0.00    -0.270 OA
ATOM      4  N   UNL     1      11.414   4.897   3.491  0.00  0.00    -0.311 N 
ATOM     19  C   UNL     1      11.322   4.394   2.194  0.00  0.00    +0.244 C 
ATOM     29  H   UNL     1      12.306   5.219   3.849  0.00  0.00    +0.149 HD
BRANCH  19  20
ATOM     20  C   UNL     1      12.584   4.353   1.411  0.00  0.00    +0.037 A 
ATOM     22  C   UNL     1      13.707   5.047   1.861  0.00  0.00    +0.014 A 
ATOM     23  C   UNL     1      12.645   3.620   0.225  0.00  0.00    +0.014 A 
ATOM     25  C   UNL     1      14.891   5.009   1.125  0.00  0.00    +0.019 A 
ATOM     26  C   UNL     1      13.829   3.582  -0.510  0.00  0.00    +0.019 A 
ATOM     27  C   UNL     1      14.953   4.277  -0.061  0.00  0.00    +0.052 A 
BRANCH  27  28
ATOM      5  N   UNL     1      17.151   4.205  -1.427  0.00  0.00    -0.191 NA
ATOM     28  C   UNL     1      16.166   4.237  -0.814  0.00  0.00    +0.099 C 
ENDBRANCH  27  28
ENDBRANCH  19  20
ENDBRANCH  13   4
ENDBRANCH   7  13
BRANCH   9  14
ATOM     14  C   UNL     1      13.268   8.098   6.562  0.00  0.00    +0.128 C 
BRANCH  14  18
ATOM      2  O   UNL     1      14.098  10.364   6.860  0.00  0.00    -0.251 OA
ATOM     18  C   UNL     1      14.284   9.208   6.507  0.00  0.00    +0.308 C 
BRANCH  18   1
ATOM      1  O   UNL     1      15.447   8.703   5.996  0.00  0.00    -0.465 OA
BRANCH   1  21
ATOM     21  C   UNL     1      15.336   7.426   5.361  0.00  0.00    +0.229 C 
ATOM     24  C   UNL     1      15.814   7.544   3.929  0.00  0.00    +0.048 C 
ENDBRANCH   1  21
ENDBRANCH  18   1
ENDBRANCH  14  18
ENDBRANCH   9  14
TORSDOF 9
ENDMDL
MODEL 9
REMARK VINA RESULT:      -5.4     23.640     26.613
REMARK  Name = 38029812
REMARK  13 active torsions:
REMARK  status: ('A' for Active; 'I' for Inactive)
REMARK    1  A    between atoms: O_1  and  C_18
REMARK    2  A    between atoms: O_1  and  C_21
REMARK    3  A    between atoms: N_4  and  C_13
REMARK    4  A    between atoms: C_6  and  C_10
REMARK    5  A    between atoms: C_7  and  C_13
REMARK    6  A    between atoms: C_9  and  C_14
REMARK    7  A    between atoms: C_10  and  C_15
REMARK    8  A    between atoms: C_10  and  C_16
REMARK    9  A    between atoms: C_11  and  C_17
REMARK   10  A    between atoms: C_14  and  C_18
REMARK   11  A    between atoms: C_19  and  C_20
REMARK   12  A    between atoms: C_21  and  C_24
REMARK   13  A    between atoms: C_27  and  C_28
REMARK                            x       y       z     vdW  Elec       q    Type
REMARK                         _______ _______ _______ _____ _____    ______ ____
ROOT
ATOM      6  C   UNL     1       9.818   6.243   6.970  0.00  0.00    +0.000 C 
ATOM      7  C   UNL     1       9.271   5.796   5.592  0.00  0.00    +0.032 C 
ATOM      8  C   UNL     1       8.841   7.218   7.643  0.00  0.00    +0.012 C 
ATOM      9  C   UNL     1       8.588   8.474   6.788  0.00  0.00    +0.025 C 
ATOM     11  C   UNL     1       8.304   8.122   5.342  0.00  0.00    -0.073 C 
ATOM     12  C   UNL     1       8.603   6.915   4.829  0.00  0.00    -0.022 C 
ATOM     17  C   UNL     1       7.625   9.174   4.510  0.00  0.00    +0.039 C 
ENDROOT
BRANCH   6  10
ATOM     10  C   UNL     1      10.078   5.049   7.894  0.00  0.00    -0.013 C 
ATOM     15  C   UNL     1       9.558   3.763   7.259  0.00  0.00    +0.007 C 
ATOM     16  C   UNL     1       9.432   5.279   9.256  0.00  0.00    +0.007 C 
ENDBRANCH   6  10
BRANCH   7  13
ATOM     13  C   UNL     1      10.379   5.180   4.730  0.00  0.00    +0.112 C 
BRANCH  13   4
ATOM      3  O   UNL     1      11.684   7.233   3.204  0.00  0.00    -0.270 OA
ATOM      4  N   UNL     1      11.642   5.786   5.018  0.00  0.00    -0.311 N 
ATOM     19  C   UNL     1      12.205   6.781   4.220  0.00  0.00    +0.244 C 
ATOM     29  H   UNL     1      12.134   5.455   5.841  0.00  0.00    +0.149 HD
BRANCH  19  20
ATOM     20  C   UNL     1      13.536   7.290   4.641  0.00  0.00    +0.037 A 
ATOM     22  C   UNL     1      14.587   7.336   3.724  0.00  0.00    +0.014 A 
ATOM     23  C   UNL     1      13.734   7.722   5.953  0.00  0.00    +0.014 A 
ATOM     25  C   UNL     1      15.836   7.814   4.120  0.00  0.00    +0.019 A 
ATOM     26  C   UNL     1      14.983   8.200   6.347  0.00  0.00    +0.019 A 
ATOM     27  C   UNL     1      16.035   8.246   5.431  0.00  0.00    +0.052 A 
BRANCH  27  28
ATOM      5  N   UNL     1      18.353   9.134   6.165  0.00  0.00    -0.191 NA
ATOM     28  C   UNL     1      17.314   8.736   5.836  0.00  0.00    +0.099 C 
ENDBRANCH  27  28
ENDBRANCH  19  20
ENDBRANCH  13   4
ENDBRANCH   7  13
BRANCH   9  14
ATOM     14  C   UNL     1       9.759   9.458   6.892  0.00  0.00    +0.128 C 
BRANCH  14  18
ATOM      2  O   UNL     1       8.945  11.719   7.265  0.00  0.00    -0.251 OA
ATOM     18  C   UNL     1       9.392  10.671   7.707  0.00  0.00    +0.308 C 
BRANCH  18   1
ATOM      1  O   UNL     1       9.646  10.398   9.022  0.00  0.00    -0.465 OA
BRANCH   1  21
ATOM     21  C   UNL     1       9.909  11.537   9.847  0.00  0.00    +0.229 C 
ATOM     24  C   UNL     1       8.762  11.718  10.819  0.00  0.00    +0.048 C 
ENDBRANCH   1  21
ENDBRANCH  18   1
ENDBRANCH  14  18
ENDBRANCH   9  14
TORSDOF 9
ENDMDL
MODEL 10
REMARK VINA RESULT:      -5.3     24.490     26.840
REMARK  Name = 38029812
REMARK  13 active torsions:
REMARK  status: ('A' for Active; 'I' for Inactive)
REMARK    1  A    between atoms: O_1  and  C_18
REMARK    2  A    between atoms: O_1  and  C_21
REMARK    3  A    between atoms: N_4  and  C_13
REMARK    4  A    between atoms: C_6  and  C_10
REMARK    5  A    between atoms: C_7  and  C_13
REMARK    6  A    between atoms: C_9  and  C_14
REMARK    7  A    between atoms: C_10  and  C_15
REMARK    8  A    between atoms: C_10  and  C_16
REMARK    9  A    between atoms: C_11  and  C_17
REMARK   10  A    between atoms: C_14  and  C_18
REMARK   11  A    between atoms: C_19  and  C_20
REMARK   12  A    between atoms: C_21  and  C_24
REMARK   13  A    between atoms: C_27  and  C_28
REMARK                            x       y       z     vdW  Elec       q    Type
REMARK                         _______ _______ _______ _____ _____    ______ ____
ROOT
ATOM      6  C   UNL     1      18.072  -3.459  23.727  0.00  0.00    +0.000 C 
ATOM      7  C   UNL     1      18.805  -4.608  22.990  0.00  0.00    +0.032 C 
ATOM      8  C   UNL     1      19.079  -2.412  24.224  0.00  0.00    +0.012 C 
ATOM      9  C   UNL     1      20.125  -3.016  25.180  0.00  0.00    +0.025 C 
ATOM     11  C   UNL     1      20.703  -4.308  24.638  0.00  0.00    -0.073 C 
ATOM     12  C   UNL     1      20.107  -4.998  23.650  0.00  0.00    -0.022 C 
ATOM     17  C   UNL     1      22.009  -4.765  25.228  0.00  0.00    +0.039 C 
ENDROOT
BRANCH   6  10
ATOM     10  C   UNL     1      17.023  -2.789  22.835  0.00  0.00    -0.013 C 
ATOM     15  C   UNL     1      17.398  -1.332  22.576  0.00  0.00    +0.007 C 
ATOM     16  C   UNL     1      15.641  -2.886  23.472  0.00  0.00    +0.007 C 
ENDBRANCH   6  10
BRANCH   7  13
ATOM     13  C   UNL     1      17.907  -5.844  22.860  0.00  0.00    +0.112 C 
BRANCH  13   4
ATOM      3  O   UNL     1      18.562  -7.955  24.693  0.00  0.00    -0.270 OA
ATOM      4  N   UNL     1      17.256  -6.131  24.100  0.00  0.00    -0.311 N 
ATOM     19  C   UNL     1      17.640  -7.181  24.933  0.00  0.00    +0.244 C 
ATOM     29  H   UNL     1      16.478  -5.535  24.360  0.00  0.00    +0.149 HD
BRANCH  19  20
ATOM     20  C   UNL     1      16.844  -7.363  26.175  0.00  0.00    +0.037 A 
ATOM     22  C   UNL     1      16.393  -8.633  26.534  0.00  0.00    +0.014 A 
ATOM     23  C   UNL     1      16.550  -6.263  26.982  0.00  0.00    +0.014 A 
ATOM     25  C   UNL     1      15.646  -8.803  27.699  0.00  0.00    +0.019 A 
ATOM     26  C   UNL     1      15.804  -6.434  28.147  0.00  0.00    +0.019 A 
ATOM     27  C   UNL     1      15.351  -7.704  28.507  0.00  0.00    +0.052 A 
BRANCH  27  28
ATOM      5  N   UNL     1      13.966  -8.020  30.671  0.00  0.00    -0.191 NA
ATOM     28  C   UNL     1      14.587  -7.878  29.701  0.00  0.00    +0.099 C 
ENDBRANCH  27  28
ENDBRANCH  19  20
ENDBRANCH  13   4
ENDBRANCH   7  13
BRANCH   9  14
ATOM     14  C   UNL     1      19.538  -3.224  26.581  0.00  0.00    +0.128 C 
BRANCH  14  18
ATOM      2  O   UNL     1      20.502  -1.080  27.201  0.00  0.00    -0.251 OA
ATOM     18  C   UNL     1      19.774  -2.027  27.464  0.00  0.00    +0.308 C 
BRANCH  18   1
ATOM      1  O   UNL     1      19.038  -2.181  28.605  0.00  0.00    -0.465 OA
BRANCH   1  21
ATOM     21  C   UNL     1      17.674  -2.564  28.410  0.00  0.00    +0.229 C 
ATOM     24  C   UNL     1      17.014  -2.743  29.761  0.00  0.00    +0.048 C 
ENDBRANCH   1  21
ENDBRANCH  18   1
ENDBRANCH  14  18
ENDBRANCH   9  14
TORSDOF 9
ENDMDL
