MODEL 1
REMARK VINA RESULT:      -8.1      0.000      0.000
REMARK  Name = 25390339
REMARK  7 active torsions:
REMARK  status: ('A' for Active; 'I' for Inactive)
REMARK    1  A    between atoms: O_3  and  C_12
REMARK    2  A    between atoms: O_4  and  C_13
REMARK    3  A    between atoms: N_9  and  C_16
REMARK    4  A    between atoms: N_10  and  C_23
REMARK    5  A    between atoms: C_11  and  C_15
REMARK    6  A    between atoms: C_14  and  C_16
REMARK    7  A    between atoms: C_15  and  C_17
REMARK                            x       y       z     vdW  Elec       q    Type
REMARK                         _______ _______ _______ _____ _____    ______ ____
ROOT
ATOM      2  O   UNL     1      13.031  11.094  21.317  0.00  0.00    -0.366 OA
ATOM     11  C   UNL     1      12.005  10.122  21.049  0.00  0.00    +0.159 C 
ATOM     12  C   UNL     1      11.606   9.560  22.402  0.00  0.00    +0.175 C 
ATOM     13  C   UNL     1      11.736  10.782  23.288  0.00  0.00    +0.176 C 
ATOM     14  C   UNL     1      12.975  11.459  22.717  0.00  0.00    +0.167 C 
ENDROOT
BRANCH  12   3
ATOM      3  O   UNL     1      10.304   9.016  22.386  0.00  0.00    -0.387 OA
ATOM     29  H   UNL     1       9.740   9.624  21.879  0.00  0.00    +0.210 HD
ENDBRANCH  12   3
BRANCH  13   4
ATOM      4  O   UNL     1      10.624  11.655  23.093  0.00  0.00    -0.387 OA
ATOM     30  H   UNL     1      10.476  11.728  22.135  0.00  0.00    +0.210 HD
ENDBRANCH  13   4
BRANCH  11  15
ATOM     15  C   UNL     1      12.537   9.071  20.091  0.00  0.00    +0.130 C 
BRANCH  15  17
ATOM      5  O   UNL     1      12.344   9.320  15.052  0.00  0.00    -0.377 OA
ATOM      6  O   UNL     1      10.341   8.420  19.483  0.00  0.00    -0.276 OA
ATOM      8  N   UNL     1      11.867   8.666  17.751  0.00  0.00    -0.297 N 
ATOM     17  C   UNL     1      11.478   8.687  19.089  0.00  0.00    +0.218 C 
ATOM     18  C   UNL     1      10.900   8.310  16.714  0.00  0.00    +0.136 C 
ATOM     19  C   UNL     1      13.236   8.855  17.260  0.00  0.00    +0.136 C 
ATOM     20  C   UNL     1      11.001   9.276  15.540  0.00  0.00    +0.179 C 
ATOM     21  C   UNL     1      13.242   9.794  16.060  0.00  0.00    +0.179 C 
ENDBRANCH  15  17
ENDBRANCH  11  15
BRANCH  14  16
ATOM     16  C   UNL     1      14.267  10.989  23.371  0.00  0.00    +0.140 C 
BRANCH  16   9
ATOM      7  O   UNL     1      16.270  10.139  21.508  0.00  0.00    -0.253 OA
ATOM      9  N   UNL     1      14.576   9.639  23.001  0.00  0.00    -0.297 N 
ATOM     10  N   UNL     1      15.651   7.912  21.918  0.00  0.00    -0.269 N 
ATOM     22  C   UNL     1      15.577   9.299  22.077  0.00  0.00    +0.304 C 
ATOM     31  H   UNL     1      14.050   8.890  23.442  0.00  0.00    +0.150 HD
ATOM     32  H   UNL     1      15.000   7.355  22.466  0.00  0.00    +0.156 HD
BRANCH  10  23
ATOM      1  F   UNL     1      16.531   5.598  17.804  0.00  0.00    -0.205 F 
ATOM     23  C   UNL     1      16.525   7.180  21.081  0.00  0.00    +0.037 A 
ATOM     24  C   UNL     1      16.088   6.741  19.831  0.00  0.00    +0.061 A 
ATOM     25  C   UNL     1      17.824   6.898  21.504  0.00  0.00    +0.023 A 
ATOM     26  C   UNL     1      16.950   6.020  19.004  0.00  0.00    +0.125 A 
ATOM     27  C   UNL     1      18.686   6.177  20.677  0.00  0.00    +0.005 A 
ATOM     28  C   UNL     1      18.249   5.739  19.427  0.00  0.00    +0.038 A 
ENDBRANCH  10  23
ENDBRANCH  16   9
ENDBRANCH  14  16
TORSDOF 7
ENDMDL
MODEL 2
REMARK VINA RESULT:      -7.6      3.769      7.638
REMARK  Name = 25390339
REMARK  7 active torsions:
REMARK  status: ('A' for Active; 'I' for Inactive)
REMARK    1  A    between atoms: O_3  and  C_12
REMARK    2  A    between atoms: O_4  and  C_13
REMARK    3  A    between atoms: N_9  and  C_16
REMARK    4  A    between atoms: N_10  and  C_23
REMARK    5  A    between atoms: C_11  and  C_15
REMARK    6  A    between atoms: C_14  and  C_16
REMARK    7  A    between atoms: C_15  and  C_17
REMARK                            x       y       z     vdW  Elec       q    Type
REMARK                         _______ _______ _______ _____ _____    ______ ____
ROOT
ATOM      2  O   UNL     1      13.227   7.287  19.166  0.00  0.00    -0.366 OA
ATOM     11  C   UNL     1      14.366   6.964  19.983  0.00  0.00    +0.159 C 
ATOM     12  C   UNL     1      14.048   7.507  21.365  0.00  0.00    +0.175 C 
ATOM     13  C   UNL     1      12.554   7.272  21.447  0.00  0.00    +0.176 C 
ATOM     14  C   UNL     1      12.104   7.590  20.026  0.00  0.00    +0.167 C 
ENDROOT
BRANCH  12   3
ATOM      3  O   UNL     1      14.775   6.842  22.376  0.00  0.00    -0.387 OA
ATOM     29  H   UNL     1      14.314   6.005  22.564  0.00  0.00    +0.210 HD
ENDBRANCH  12   3
BRANCH  13   4
ATOM      4  O   UNL     1      12.282   5.894  21.701  0.00  0.00    -0.387 OA
ATOM     30  H   UNL     1      13.136   5.445  21.814  0.00  0.00    +0.210 HD
ENDBRANCH  13   4
BRANCH  11  15
ATOM     15  C   UNL     1      15.620   7.564  19.373  0.00  0.00    +0.130 C 
BRANCH  15  17
ATOM      5  O   UNL     1      20.134   7.762  21.625  0.00  0.00    -0.377 OA
ATOM      6  O   UNL     1      16.770   5.599  18.716  0.00  0.00    -0.276 OA
ATOM      8  N   UNL     1      17.767   6.879  20.376  0.00  0.00    -0.297 N 
ATOM     17  C   UNL     1      16.765   6.587  19.454  0.00  0.00    +0.218 C 
ATOM     18  C   UNL     1      18.918   5.987  20.514  0.00  0.00    +0.136 C 
ATOM     19  C   UNL     1      17.733   7.973  21.352  0.00  0.00    +0.136 C 
ATOM     20  C   UNL     1      20.209   6.791  20.578  0.00  0.00    +0.179 C 
ATOM     21  C   UNL     1      19.074   8.693  21.387  0.00  0.00    +0.179 C 
ENDBRANCH  15  17
ENDBRANCH  11  15
BRANCH  14  16
ATOM     16  C   UNL     1      11.747   9.056  19.827  0.00  0.00    +0.140 C 
BRANCH  16   9
ATOM      7  O   UNL     1      12.602  11.334  21.339  0.00  0.00    -0.253 OA
ATOM      9  N   UNL     1      11.112   9.599  20.992  0.00  0.00    -0.297 N 
ATOM     10  N   UNL     1      10.770  11.022  22.773  0.00  0.00    -0.269 N 
ATOM     22  C   UNL     1      11.592  10.725  21.682  0.00  0.00    +0.304 C 
ATOM     31  H   UNL     1      10.264   9.152  21.327  0.00  0.00    +0.150 HD
ATOM     32  H   UNL     1       9.968  10.412  22.920  0.00  0.00    +0.156 HD
BRANCH  10  23
ATOM      1  F   UNL     1       9.547  15.374  24.390  0.00  0.00    -0.205 F 
ATOM     23  C   UNL     1      10.915  12.072  23.709  0.00  0.00    +0.037 A 
ATOM     24  C   UNL     1      10.144  13.228  23.585  0.00  0.00    +0.061 A 
ATOM     25  C   UNL     1      11.827  11.951  24.758  0.00  0.00    +0.023 A 
ATOM     26  C   UNL     1      10.286  14.264  24.508  0.00  0.00    +0.125 A 
ATOM     27  C   UNL     1      11.968  12.987  25.681  0.00  0.00    +0.005 A 
ATOM     28  C   UNL     1      11.197  14.143  25.557  0.00  0.00    +0.038 A 
ENDBRANCH  10  23
ENDBRANCH  16   9
ENDBRANCH  14  16
TORSDOF 7
ENDMDL
MODEL 3
REMARK VINA RESULT:      -7.5      2.820      5.537
REMARK  Name = 25390339
REMARK  7 active torsions:
REMARK  status: ('A' for Active; 'I' for Inactive)
REMARK    1  A    between atoms: O_3  and  C_12
REMARK    2  A    between atoms: O_4  and  C_13
REMARK    3  A    between atoms: N_9  and  C_16
REMARK    4  A    between atoms: N_10  and  C_23
REMARK    5  A    between atoms: C_11  and  C_15
REMARK    6  A    between atoms: C_14  and  C_16
REMARK    7  A    between atoms: C_15  and  C_17
REMARK                            x       y       z     vdW  Elec       q    Type
REMARK                         _______ _______ _______ _____ _____    ______ ____
ROOT
ATOM      2  O   UNL     1      13.755   7.709  21.363  0.00  0.00    -0.366 OA
ATOM     11  C   UNL     1      12.495   8.397  21.281  0.00  0.00    +0.159 C 
ATOM     12  C   UNL     1      12.034   8.244  19.843  0.00  0.00    +0.175 C 
ATOM     13  C   UNL     1      12.532   6.852  19.512  0.00  0.00    +0.176 C 
ATOM     14  C   UNL     1      13.875   6.815  20.231  0.00  0.00    +0.167 C 
ENDROOT
BRANCH  12   3
ATOM      3  O   UNL     1      10.635   8.382  19.716  0.00  0.00    -0.387 OA
ATOM     29  H   UNL     1      10.235   8.066  20.545  0.00  0.00    +0.210 HD
ENDBRANCH  12   3
BRANCH  13   4
ATOM      4  O   UNL     1      11.685   5.869  20.104  0.00  0.00    -0.387 OA
ATOM     30  H   UNL     1      11.503   5.195  19.427  0.00  0.00    +0.210 HD
ENDBRANCH  13   4
BRANCH  11  15
ATOM     15  C   UNL     1      12.674   9.843  21.707  0.00  0.00    +0.130 C 
BRANCH  15  17
ATOM      5  O   UNL     1      12.164  13.408  25.246  0.00  0.00    -0.377 OA
ATOM      6  O   UNL     1      10.474   9.616  22.558  0.00  0.00    -0.276 OA
ATOM      8  N   UNL     1      11.665  11.486  23.246  0.00  0.00    -0.297 N 
ATOM     17  C   UNL     1      11.501  10.298  22.537  0.00  0.00    +0.218 C 
ATOM     18  C   UNL     1      10.578  11.996  24.081  0.00  0.00    +0.136 C 
ATOM     19  C   UNL     1      12.820  12.385  23.147  0.00  0.00    +0.136 C 
ATOM     20  C   UNL     1      11.115  12.454  25.430  0.00  0.00    +0.179 C 
ATOM     21  C   UNL     1      13.262  12.832  24.534  0.00  0.00    +0.179 C 
ENDBRANCH  15  17
ENDBRANCH  11  15
BRANCH  14  16
ATOM     16  C   UNL     1      15.028   7.308  19.369  0.00  0.00    +0.140 C 
BRANCH  16   9
ATOM      7  O   UNL     1      17.424   5.860  18.763  0.00  0.00    -0.253 OA
ATOM      9  N   UNL     1      16.255   7.335  20.108  0.00  0.00    -0.297 N 
ATOM     10  N   UNL     1      18.436   6.820  20.650  0.00  0.00    -0.269 N 
ATOM     22  C   UNL     1      17.394   6.595  19.747  0.00  0.00    +0.304 C 
ATOM     31  H   UNL     1      16.307   7.930  20.929  0.00  0.00    +0.150 HD
ATOM     32  H   UNL     1      18.244   7.461  21.418  0.00  0.00    +0.156 HD
BRANCH  10  23
ATOM      1  F   UNL     1      21.345   3.002  20.759  0.00  0.00    -0.205 F 
ATOM     23  C   UNL     1      19.736   6.263  20.633  0.00  0.00    +0.037 A 
ATOM     24  C   UNL     1      19.902   4.880  20.707  0.00  0.00    +0.061 A 
ATOM     25  C   UNL     1      20.851   7.096  20.539  0.00  0.00    +0.023 A 
ATOM     26  C   UNL     1      21.184   4.329  20.688  0.00  0.00    +0.125 A 
ATOM     27  C   UNL     1      22.133   6.545  20.520  0.00  0.00    +0.005 A 
ATOM     28  C   UNL     1      22.299   5.162  20.593  0.00  0.00    +0.038 A 
ENDBRANCH  10  23
ENDBRANCH  16   9
ENDBRANCH  14  16
TORSDOF 7
ENDMDL
MODEL 4
REMARK VINA RESULT:      -7.3      3.336      7.441
REMARK  Name = 25390339
REMARK  7 active torsions:
REMARK  status: ('A' for Active; 'I' for Inactive)
REMARK    1  A    between atoms: O_3  and  C_12
REMARK    2  A    between atoms: O_4  and  C_13
REMARK    3  A    between atoms: N_9  and  C_16
REMARK    4  A    between atoms: N_10  and  C_23
REMARK    5  A    between atoms: C_11  and  C_15
REMARK    6  A    between atoms: C_14  and  C_16
REMARK    7  A    between atoms: C_15  and  C_17
REMARK                            x       y       z     vdW  Elec       q    Type
REMARK                         _______ _______ _______ _____ _____    ______ ____
ROOT
ATOM      2  O   UNL     1      14.845   7.766  18.828  0.00  0.00    -0.366 OA
ATOM     11  C   UNL     1      14.247   6.689  19.570  0.00  0.00    +0.159 C 
ATOM     12  C   UNL     1      12.841   7.152  19.907  0.00  0.00    +0.175 C 
ATOM     13  C   UNL     1      12.478   7.947  18.670  0.00  0.00    +0.176 C 
ATOM     14  C   UNL     1      13.797   8.634  18.336  0.00  0.00    +0.167 C 
ENDROOT
BRANCH  12   3
ATOM      3  O   UNL     1      11.970   6.068  20.150  0.00  0.00    -0.387 OA
ATOM     29  H   UNL     1      11.200   6.416  20.634  0.00  0.00    +0.210 HD
ENDBRANCH  12   3
BRANCH  13   4
ATOM      4  O   UNL     1      12.152   7.068  17.594  0.00  0.00    -0.387 OA
ATOM     30  H   UNL     1      12.826   6.367  17.576  0.00  0.00    +0.210 HD
ENDBRANCH  13   4
BRANCH  11  15
ATOM     15  C   UNL     1      15.091   6.382  20.794  0.00  0.00    +0.130 C 
BRANCH  15  17
ATOM      5  O   UNL     1      19.982   7.582  21.154  0.00  0.00    -0.377 OA
ATOM      6  O   UNL     1      15.173   8.497  21.861  0.00  0.00    -0.276 OA
ATOM      8  N   UNL     1      17.171   7.695  20.992  0.00  0.00    -0.297 N 
ATOM     17  C   UNL     1      15.807   7.623  21.265  0.00  0.00    +0.218 C 
ATOM     18  C   UNL     1      17.942   8.862  21.419  0.00  0.00    +0.136 C 
ATOM     19  C   UNL     1      17.928   6.736  20.179  0.00  0.00    +0.136 C 
ATOM     20  C   UNL     1      19.257   8.426  22.053  0.00  0.00    +0.179 C 
ATOM     21  C   UNL     1      19.246   6.392  20.860  0.00  0.00    +0.179 C 
ENDBRANCH  15  17
ENDBRANCH  11  15
BRANCH  14  16
ATOM     16  C   UNL     1      13.954   9.986  19.018  0.00  0.00    +0.140 C 
BRANCH  16   9
ATOM      7  O   UNL     1      13.755  11.879  21.159  0.00  0.00    -0.253 OA
ATOM      9  N   UNL     1      12.767  10.348  19.735  0.00  0.00    -0.297 N 
ATOM     10  N   UNL     1      11.453  11.438  21.284  0.00  0.00    -0.269 N 
ATOM     22  C   UNL     1      12.747  11.290  20.777  0.00  0.00    +0.304 C 
ATOM     31  H   UNL     1      11.892   9.908  19.465  0.00  0.00    +0.150 HD
ATOM     32  H   UNL     1      10.727  10.870  20.854  0.00  0.00    +0.156 HD
BRANCH  10  23
ATOM      1  F   UNL     1      10.524  12.185  25.935  0.00  0.00    -0.205 F 
ATOM     23  C   UNL     1      11.023  12.284  22.332  0.00  0.00    +0.037 A 
ATOM     24  C   UNL     1      10.984  11.808  23.643  0.00  0.00    +0.061 A 
ATOM     25  C   UNL     1      10.642  13.598  22.057  0.00  0.00    +0.023 A 
ATOM     26  C   UNL     1      10.562  12.642  24.677  0.00  0.00    +0.125 A 
ATOM     27  C   UNL     1      10.219  14.433  23.091  0.00  0.00    +0.005 A 
ATOM     28  C   UNL     1      10.181  13.955  24.401  0.00  0.00    +0.038 A 
ENDBRANCH  10  23
ENDBRANCH  16   9
ENDBRANCH  14  16
TORSDOF 7
ENDMDL
MODEL 5
REMARK VINA RESULT:      -7.3      3.440      6.358
REMARK  Name = 25390339
REMARK  7 active torsions:
REMARK  status: ('A' for Active; 'I' for Inactive)
REMARK    1  A    between atoms: O_3  and  C_12
REMARK    2  A    between atoms: O_4  and  C_13
REMARK    3  A    between atoms: N_9  and  C_16
REMARK    4  A    between atoms: N_10  and  C_23
REMARK    5  A    between atoms: C_11  and  C_15
REMARK    6  A    between atoms: C_14  and  C_16
REMARK    7  A    between atoms: C_15  and  C_17
REMARK                            x       y       z     vdW  Elec       q    Type
REMARK                         _______ _______ _______ _____ _____    ______ ____
ROOT
ATOM      2  O   UNL     1      12.566   7.207  19.147  0.00  0.00    -0.366 OA
ATOM     11  C   UNL     1      13.837   6.971  19.779  0.00  0.00    +0.159 C 
ATOM     12  C   UNL     1      13.683   7.462  21.208  0.00  0.00    +0.175 C 
ATOM     13  C   UNL     1      12.243   7.096  21.501  0.00  0.00    +0.176 C 
ATOM     14  C   UNL     1      11.562   7.396  20.172  0.00  0.00    +0.167 C 
ENDROOT
BRANCH  12   3
ATOM      3  O   UNL     1      14.606   6.847  22.081  0.00  0.00    -0.387 OA
ATOM     29  H   UNL     1      15.494   6.974  21.704  0.00  0.00    +0.210 HD
ENDBRANCH  12   3
BRANCH  13   4
ATOM      4  O   UNL     1      12.129   5.696  21.752  0.00  0.00    -0.387 OA
ATOM     30  H   UNL     1      12.766   5.472  22.451  0.00  0.00    +0.210 HD
ENDBRANCH  13   4
BRANCH  11  15
ATOM     15  C   UNL     1      14.931   7.689  19.009  0.00  0.00    +0.130 C 
BRANCH  15  17
ATOM      5  O   UNL     1      14.038  10.519  14.924  0.00  0.00    -0.377 OA
ATOM      6  O   UNL     1      14.686   9.914  19.789  0.00  0.00    -0.276 OA
ATOM      8  N   UNL     1      14.160   9.532  17.561  0.00  0.00    -0.297 N 
ATOM     17  C   UNL     1      14.582   9.145  18.831  0.00  0.00    +0.218 C 
ATOM     18  C   UNL     1      13.808  10.928  17.300  0.00  0.00    +0.136 C 
ATOM     19  C   UNL     1      13.905   8.626  16.436  0.00  0.00    +0.136 C 
ATOM     20  C   UNL     1      14.422  11.394  15.988  0.00  0.00    +0.179 C 
ATOM     21  C   UNL     1      14.510   9.189  15.157  0.00  0.00    +0.179 C 
ENDBRANCH  15  17
ENDBRANCH  11  15
BRANCH  14  16
ATOM     16  C   UNL     1      11.056   8.828  20.070  0.00  0.00    +0.140 C 
BRANCH  16   9
ATOM      7  O   UNL     1      12.089  11.184  21.331  0.00  0.00    -0.253 OA
ATOM      9  N   UNL     1      10.690   9.342  21.356  0.00  0.00    -0.297 N 
ATOM     10  N   UNL     1      10.693  10.764  23.171  0.00  0.00    -0.269 N 
ATOM     22  C   UNL     1      11.241  10.510  21.910  0.00  0.00    +0.304 C 
ATOM     31  H   UNL     1       9.984   8.842  21.889  0.00  0.00    +0.150 HD
ATOM     32  H   UNL     1       9.999  10.102  23.509  0.00  0.00    +0.156 HD
BRANCH  10  23
ATOM      1  F   UNL     1      13.478  12.775  26.525  0.00  0.00    -0.205 F 
ATOM     23  C   UNL     1      10.987  11.836  24.045  0.00  0.00    +0.037 A 
ATOM     24  C   UNL     1      12.109  11.775  24.871  0.00  0.00    +0.061 A 
ATOM     25  C   UNL     1      10.157  12.957  24.079  0.00  0.00    +0.023 A 
ATOM     26  C   UNL     1      12.401  12.833  25.732  0.00  0.00    +0.125 A 
ATOM     27  C   UNL     1      10.449  14.015  24.939  0.00  0.00    +0.005 A 
ATOM     28  C   UNL     1      11.571  13.954  25.765  0.00  0.00    +0.038 A 
ENDBRANCH  10  23
ENDBRANCH  16   9
ENDBRANCH  14  16
TORSDOF 7
ENDMDL
MODEL 6
REMARK VINA RESULT:      -7.0     15.242     19.798
REMARK  Name = 25390339
REMARK  7 active torsions:
REMARK  status: ('A' for Active; 'I' for Inactive)
REMARK    1  A    between atoms: O_3  and  C_12
REMARK    2  A    between atoms: O_4  and  C_13
REMARK    3  A    between atoms: N_9  and  C_16
REMARK    4  A    between atoms: N_10  and  C_23
REMARK    5  A    between atoms: C_11  and  C_15
REMARK    6  A    between atoms: C_14  and  C_16
REMARK    7  A    between atoms: C_15  and  C_17
REMARK                            x       y       z     vdW  Elec       q    Type
REMARK                         _______ _______ _______ _____ _____    ______ ____
ROOT
ATOM      2  O   UNL     1      13.143   3.183   0.178  0.00  0.00    -0.366 OA
ATOM     11  C   UNL     1      14.304   3.787  -0.420  0.00  0.00    +0.159 C 
ATOM     12  C   UNL     1      14.793   4.818   0.581  0.00  0.00    +0.175 C 
ATOM     13  C   UNL     1      14.485   4.133   1.896  0.00  0.00    +0.176 C 
ATOM     14  C   UNL     1      13.152   3.458   1.599  0.00  0.00    +0.167 C 
ENDROOT
BRANCH  12   3
ATOM      3  O   UNL     1      16.164   5.111   0.411  0.00  0.00    -0.387 OA
ATOM     29  H   UNL     1      16.663   4.303   0.620  0.00  0.00    +0.210 HD
ENDBRANCH  12   3
BRANCH  13   4
ATOM      4  O   UNL     1      15.448   3.114   2.163  0.00  0.00    -0.387 OA
ATOM     30  H   UNL     1      16.037   3.446   2.862  0.00  0.00    +0.210 HD
ENDBRANCH  13   4
BRANCH  11  15
ATOM     15  C   UNL     1      13.932   4.382  -1.767  0.00  0.00    +0.130 C 
BRANCH  15  17
ATOM      5  O   UNL     1       9.516   3.454  -4.031  0.00  0.00    -0.377 OA
ATOM      6  O   UNL     1      12.487   6.153  -1.141  0.00  0.00    -0.276 OA
ATOM      8  N   UNL     1      11.517   4.373  -2.272  0.00  0.00    -0.297 N 
ATOM     17  C   UNL     1      12.585   5.054  -1.692  0.00  0.00    +0.218 C 
ATOM     18  C   UNL     1      10.177   4.957  -2.249  0.00  0.00    +0.136 C 
ATOM     19  C   UNL     1      11.573   3.014  -2.823  0.00  0.00    +0.136 C 
ATOM     20  C   UNL     1       9.516   4.822  -3.615  0.00  0.00    +0.179 C 
ATOM     21  C   UNL     1      10.850   2.957  -4.163  0.00  0.00    +0.179 C 
ENDBRANCH  15  17
ENDBRANCH  11  15
BRANCH  14  16
ATOM     16  C   UNL     1      11.953   4.342   1.909  0.00  0.00    +0.140 C 
BRANCH  16   9
ATOM      7  O   UNL     1       9.800   5.035   3.667  0.00  0.00    -0.253 OA
ATOM      9  N   UNL     1      12.065   4.932   3.210  0.00  0.00    -0.297 N 
ATOM     10  N   UNL     1      11.374   5.805   5.229  0.00  0.00    -0.269 N 
ATOM     22  C   UNL     1      10.959   5.244   4.018  0.00  0.00    +0.304 C 
ATOM     31  H   UNL     1      12.995   5.121   3.571  0.00  0.00    +0.150 HD
ATOM     32  H   UNL     1      12.377   5.911   5.362  0.00  0.00    +0.156 HD
BRANCH  10  23
ATOM      1  F   UNL     1       9.018   4.942   9.322  0.00  0.00    -0.205 F 
ATOM     23  C   UNL     1      10.567   6.251   6.301  0.00  0.00    +0.037 A 
ATOM     24  C   UNL     1      10.183   5.359   7.302  0.00  0.00    +0.061 A 
ATOM     25  C   UNL     1      10.158   7.583   6.361  0.00  0.00    +0.023 A 
ATOM     26  C   UNL     1       9.388   5.798   8.362  0.00  0.00    +0.125 A 
ATOM     27  C   UNL     1       9.364   8.022   7.420  0.00  0.00    +0.005 A 
ATOM     28  C   UNL     1       8.980   7.130   8.420  0.00  0.00    +0.038 A 
ENDBRANCH  10  23
ENDBRANCH  16   9
ENDBRANCH  14  16
TORSDOF 7
ENDMDL
MODEL 7
REMARK VINA RESULT:      -6.9      3.795      6.409
REMARK  Name = 25390339
REMARK  7 active torsions:
REMARK  status: ('A' for Active; 'I' for Inactive)
REMARK    1  A    between atoms: O_3  and  C_12
REMARK    2  A    between atoms: O_4  and  C_13
REMARK    3  A    between atoms: N_9  and  C_16
REMARK    4  A    between atoms: N_10  and  C_23
REMARK    5  A    between atoms: C_11  and  C_15
REMARK    6  A    between atoms: C_14  and  C_16
REMARK    7  A    between atoms: C_15  and  C_17
REMARK                            x       y       z     vdW  Elec       q    Type
REMARK                         _______ _______ _______ _____ _____    ______ ____
ROOT
ATOM      2  O   UNL     1      11.853   7.167  19.511  0.00  0.00    -0.366 OA
ATOM     11  C   UNL     1      12.973   8.013  19.193  0.00  0.00    +0.159 C 
ATOM     12  C   UNL     1      13.556   8.442  20.527  0.00  0.00    +0.175 C 
ATOM     13  C   UNL     1      13.341   7.200  21.366  0.00  0.00    +0.176 C 
ATOM     14  C   UNL     1      11.978   6.721  20.882  0.00  0.00    +0.167 C 
ENDROOT
BRANCH  12   3
ATOM      3  O   UNL     1      14.913   8.815  20.417  0.00  0.00    -0.387 OA
ATOM     29  H   UNL     1      14.940   9.776  20.268  0.00  0.00    +0.210 HD
ENDBRANCH  12   3
BRANCH  13   4
ATOM      4  O   UNL     1      14.306   6.203  21.032  0.00  0.00    -0.387 OA
ATOM     30  H   UNL     1      13.821   5.390  20.811  0.00  0.00    +0.210 HD
ENDBRANCH  13   4
BRANCH  11  15
ATOM     15  C   UNL     1      12.506   9.176  18.335  0.00  0.00    +0.130 C 
BRANCH  15  17
ATOM      5  O   UNL     1      15.080  12.651  15.730  0.00  0.00    -0.377 OA
ATOM      6  O   UNL     1      12.984   8.200  16.229  0.00  0.00    -0.276 OA
ATOM      8  N   UNL     1      14.020  10.224  16.694  0.00  0.00    -0.297 N 
ATOM     17  C   UNL     1      13.189   9.147  16.992  0.00  0.00    +0.218 C 
ATOM     18  C   UNL     1      14.716  10.278  15.409  0.00  0.00    +0.136 C 
ATOM     19  C   UNL     1      14.384  11.301  17.622  0.00  0.00    +0.136 C 
ATOM     20  C   UNL     1      14.606  11.671  14.803  0.00  0.00    +0.179 C 
ATOM     21  C   UNL     1      14.293  12.652  16.924  0.00  0.00    +0.179 C 
ENDBRANCH  15  17
ENDBRANCH  11  15
BRANCH  14  16
ATOM     16  C   UNL     1      10.821   7.315  21.672  0.00  0.00    +0.140 C 
BRANCH  16   9
ATOM      7  O   UNL     1      10.543  10.165  21.750  0.00  0.00    -0.253 OA
ATOM      9  N   UNL     1      11.292   8.194  22.701  0.00  0.00    -0.297 N 
ATOM     10  N   UNL     1      11.677  10.181  23.805  0.00  0.00    -0.269 N 
ATOM     22  C   UNL     1      11.116   9.588  22.670  0.00  0.00    +0.304 C 
ATOM     31  H   UNL     1      11.767   7.785  23.500  0.00  0.00    +0.150 HD
ATOM     32  H   UNL     1      12.120   9.556  24.475  0.00  0.00    +0.156 HD
BRANCH  10  23
ATOM      1  F   UNL     1      10.170  13.856  26.503  0.00  0.00    -0.205 F 
ATOM     23  C   UNL     1      11.708  11.554  24.141  0.00  0.00    +0.037 A 
ATOM     24  C   UNL     1      10.908  12.037  25.177  0.00  0.00    +0.061 A 
ATOM     25  C   UNL     1      12.541  12.426  23.439  0.00  0.00    +0.023 A 
ATOM     26  C   UNL     1      10.939  13.391  25.510  0.00  0.00    +0.125 A 
ATOM     27  C   UNL     1      12.572  13.780  23.773  0.00  0.00    +0.005 A 
ATOM     28  C   UNL     1      11.772  14.262  24.808  0.00  0.00    +0.038 A 
ENDBRANCH  10  23
ENDBRANCH  16   9
ENDBRANCH  14  16
TORSDOF 7
ENDMDL
MODEL 8
REMARK VINA RESULT:      -6.6      3.996      8.307
REMARK  Name = 25390339
REMARK  7 active torsions:
REMARK  status: ('A' for Active; 'I' for Inactive)
REMARK    1  A    between atoms: O_3  and  C_12
REMARK    2  A    between atoms: O_4  and  C_13
REMARK    3  A    between atoms: N_9  and  C_16
REMARK    4  A    between atoms: N_10  and  C_23
REMARK    5  A    between atoms: C_11  and  C_15
REMARK    6  A    between atoms: C_14  and  C_16
REMARK    7  A    between atoms: C_15  and  C_17
REMARK                            x       y       z     vdW  Elec       q    Type
REMARK                         _______ _______ _______ _____ _____    ______ ____
ROOT
ATOM      2  O   UNL     1      15.317   7.849  19.240  0.00  0.00    -0.366 OA
ATOM     11  C   UNL     1      15.983   7.152  20.308  0.00  0.00    +0.159 C 
ATOM     12  C   UNL     1      15.200   7.483  21.566  0.00  0.00    +0.175 C 
ATOM     13  C   UNL     1      13.784   7.549  21.033  0.00  0.00    +0.176 C 
ATOM     14  C   UNL     1      13.986   8.210  19.675  0.00  0.00    +0.167 C 
ENDROOT
BRANCH  12   3
ATOM      3  O   UNL     1      15.375   6.507  22.570  0.00  0.00    -0.387 OA
ATOM     29  H   UNL     1      15.269   5.635  22.151  0.00  0.00    +0.210 HD
ENDBRANCH  12   3
BRANCH  13   4
ATOM      4  O   UNL     1      13.275   6.234  20.814  0.00  0.00    -0.387 OA
ATOM     30  H   UNL     1      13.459   6.001  19.889  0.00  0.00    +0.210 HD
ENDBRANCH  13   4
BRANCH  11  15
ATOM     15  C   UNL     1      17.437   7.585  20.370  0.00  0.00    +0.130 C 
BRANCH  15  17
ATOM      5  O   UNL     1      22.232   6.600  21.608  0.00  0.00    -0.377 OA
ATOM      6  O   UNL     1      18.008   5.577  19.248  0.00  0.00    -0.276 OA
ATOM      8  N   UNL     1      19.543   6.371  20.798  0.00  0.00    -0.297 N 
ATOM     17  C   UNL     1      18.347   6.418  20.084  0.00  0.00    +0.218 C 
ATOM     18  C   UNL     1      20.486   5.276  20.577  0.00  0.00    +0.136 C 
ATOM     19  C   UNL     1      19.920   7.281  21.885  0.00  0.00    +0.136 C 
ATOM     20  C   UNL     1      21.906   5.813  20.460  0.00  0.00    +0.179 C 
ATOM     21  C   UNL     1      21.365   7.732  21.718  0.00  0.00    +0.179 C 
ENDBRANCH  15  17
ENDBRANCH  11  15
BRANCH  14  16
ATOM     16  C   UNL     1      13.912   9.730  19.734  0.00  0.00    +0.140 C 
BRANCH  16   9
ATOM      7  O   UNL     1      13.593  12.120  21.280  0.00  0.00    -0.253 OA
ATOM      9  N   UNL     1      12.721  10.166  20.402  0.00  0.00    -0.297 N 
ATOM     10  N   UNL     1      11.359  11.521  21.676  0.00  0.00    -0.269 N 
ATOM     22  C   UNL     1      12.641  11.357  21.144  0.00  0.00    +0.304 C 
ATOM     31  H   UNL     1      11.889   9.590  20.322  0.00  0.00    +0.150 HD
ATOM     32  H   UNL     1      10.682  10.790  21.468  0.00  0.00    +0.156 HD
BRANCH  10  23
ATOM      1  F   UNL     1      10.323  13.362  25.988  0.00  0.00    -0.205 F 
ATOM     23  C   UNL     1      10.881  12.583  22.477  0.00  0.00    +0.037 A 
ATOM     24  C   UNL     1      10.836  12.445  23.865  0.00  0.00    +0.061 A 
ATOM     25  C   UNL     1      10.458  13.772  21.881  0.00  0.00    +0.023 A 
ATOM     26  C   UNL     1      10.367  13.494  24.656  0.00  0.00    +0.125 A 
ATOM     27  C   UNL     1       9.989  14.820  22.673  0.00  0.00    +0.005 A 
ATOM     28  C   UNL     1       9.944  14.681  24.060  0.00  0.00    +0.038 A 
ENDBRANCH  10  23
ENDBRANCH  16   9
ENDBRANCH  14  16
TORSDOF 7
ENDMDL
MODEL 9
REMARK VINA RESULT:      -6.5     25.692     28.579
REMARK  Name = 25390339
REMARK  7 active torsions:
REMARK  status: ('A' for Active; 'I' for Inactive)
REMARK    1  A    between atoms: O_3  and  C_12
REMARK    2  A    between atoms: O_4  and  C_13
REMARK    3  A    between atoms: N_9  and  C_16
REMARK    4  A    between atoms: N_10  and  C_23
REMARK    5  A    between atoms: C_11  and  C_15
REMARK    6  A    between atoms: C_14  and  C_16
REMARK    7  A    between atoms: C_15  and  C_17
REMARK                            x       y       z     vdW  Elec       q    Type
REMARK                         _______ _______ _______ _____ _____    ______ ____
ROOT
ATOM      2  O   UNL     1      -3.639 -10.545  14.039  0.00  0.00    -0.366 OA
ATOM     11  C   UNL     1      -3.550 -10.824  15.447  0.00  0.00    +0.159 C 
ATOM     12  C   UNL     1      -2.131 -11.310  15.682  0.00  0.00    +0.175 C 
ATOM     13  C   UNL     1      -1.354 -10.464  14.694  0.00  0.00    +0.176 C 
ATOM     14  C   UNL     1      -2.301 -10.417  13.502  0.00  0.00    +0.167 C 
ENDROOT
BRANCH  12   3
ATOM      3  O   UNL     1      -1.721 -11.124  17.020  0.00  0.00    -0.387 OA
ATOM     29  H   UNL     1      -0.824 -11.491  17.104  0.00  0.00    +0.210 HD
ENDBRANCH  12   3
BRANCH  13   4
ATOM      4  O   UNL     1      -1.201  -9.135  15.192  0.00  0.00    -0.387 OA
ATOM     30  H   UNL     1      -1.959  -8.617  14.875  0.00  0.00    +0.210 HD
ENDBRANCH  13   4
BRANCH  11  15
ATOM     15  C   UNL     1      -4.608 -11.843  15.833  0.00  0.00    +0.130 C 
BRANCH  15  17
ATOM      5  O   UNL     1      -7.103 -10.761  20.087  0.00  0.00    -0.377 OA
ATOM      6  O   UNL     1      -6.697 -10.949  15.162  0.00  0.00    -0.276 OA
ATOM      8  N   UNL     1      -6.188 -10.810  17.422  0.00  0.00    -0.297 N 
ATOM     17  C   UNL     1      -5.925 -11.159  16.100  0.00  0.00    +0.218 C 
ATOM     18  C   UNL     1      -7.446 -10.149  17.769  0.00  0.00    +0.136 C 
ATOM     19  C   UNL     1      -5.244 -10.932  18.539  0.00  0.00    +0.136 C 
ATOM     20  C   UNL     1      -8.050 -10.779  19.016  0.00  0.00    +0.179 C 
ATOM     21  C   UNL     1      -5.940 -11.524  19.757  0.00  0.00    +0.179 C 
ENDBRANCH  15  17
ENDBRANCH  11  15
BRANCH  14  16
ATOM     16  C   UNL     1      -2.083 -11.559  12.520  0.00  0.00    +0.140 C 
BRANCH  16   9
ATOM      7  O   UNL     1      -2.793  -9.946  10.262  0.00  0.00    -0.253 OA
ATOM      9  N   UNL     1      -3.220 -11.734  11.666  0.00  0.00    -0.297 N 
ATOM     10  N   UNL     1      -4.672 -11.312   9.925  0.00  0.00    -0.269 N 
ATOM     22  C   UNL     1      -3.503 -10.899  10.571  0.00  0.00    +0.304 C 
ATOM     31  H   UNL     1      -3.846 -12.511  11.855  0.00  0.00    +0.150 HD
ATOM     32  H   UNL     1      -5.145 -12.125  10.312  0.00  0.00    +0.156 HD
BRANCH  10  23
ATOM      1  F   UNL     1      -5.114 -10.919   5.160  0.00  0.00    -0.205 F 
ATOM     23  C   UNL     1      -5.286 -10.734   8.790  0.00  0.00    +0.037 A 
ATOM     24  C   UNL     1      -4.888 -11.119   7.510  0.00  0.00    +0.061 A 
ATOM     25  C   UNL     1      -6.293  -9.781   8.950  0.00  0.00    +0.023 A 
ATOM     26  C   UNL     1      -5.495 -10.551   6.389  0.00  0.00    +0.125 A 
ATOM     27  C   UNL     1      -6.900  -9.213   7.830  0.00  0.00    +0.005 A 
ATOM     28  C   UNL     1      -6.502  -9.598   6.550  0.00  0.00    +0.038 A 
ENDBRANCH  10  23
ENDBRANCH  16   9
ENDBRANCH  14  16
TORSDOF 7
ENDMDL
MODEL 10
REMARK VINA RESULT:      -6.5     26.564     29.132
REMARK  Name = 25390339
REMARK  7 active torsions:
REMARK  status: ('A' for Active; 'I' for Inactive)
REMARK    1  A    between atoms: O_3  and  C_12
REMARK    2  A    between atoms: O_4  and  C_13
REMARK    3  A    between atoms: N_9  and  C_16
REMARK    4  A    between atoms: N_10  and  C_23
REMARK    5  A    between atoms: C_11  and  C_15
REMARK    6  A    between atoms: C_14  and  C_16
REMARK    7  A    between atoms: C_15  and  C_17
REMARK                            x       y       z     vdW  Elec       q    Type
REMARK                         _______ _______ _______ _____ _____    ______ ____
ROOT
ATOM      2  O   UNL     1      -6.312 -10.986  16.803  0.00  0.00    -0.366 OA
ATOM     11  C   UNL     1      -4.913 -11.283  16.961  0.00  0.00    +0.159 C 
ATOM     12  C   UNL     1      -4.702 -11.484  18.452  0.00  0.00    +0.175 C 
ATOM     13  C   UNL     1      -6.002 -12.147  18.856  0.00  0.00    +0.176 C 
ATOM     14  C   UNL     1      -7.018 -11.406  17.994  0.00  0.00    +0.167 C 
ENDROOT
BRANCH  12   3
ATOM      3  O   UNL     1      -3.564 -12.274  18.723  0.00  0.00    -0.387 OA
ATOM     29  H   UNL     1      -2.844 -11.670  18.977  0.00  0.00    +0.210 HD
ENDBRANCH  12   3
BRANCH  13   4
ATOM      4  O   UNL     1      -6.003 -13.518  18.461  0.00  0.00    -0.387 OA
ATOM     30  H   UNL     1      -6.550 -13.591  17.661  0.00  0.00    +0.210 HD
ENDBRANCH  13   4
BRANCH  11  15
ATOM     15  C   UNL     1      -4.082 -10.152  16.381  0.00  0.00    +0.130 C 
BRANCH  15  17
ATOM      5  O   UNL     1      -3.319 -12.124  11.796  0.00  0.00    -0.377 OA
ATOM      6  O   UNL     1      -1.838 -10.911  16.356  0.00  0.00    -0.276 OA
ATOM      8  N   UNL     1      -2.963 -10.935  14.326  0.00  0.00    -0.297 N 
ATOM     17  C   UNL     1      -2.856 -10.698  15.695  0.00  0.00    +0.218 C 
ATOM     18  C   UNL     1      -1.822 -11.469  13.584  0.00  0.00    +0.136 C 
ATOM     19  C   UNL     1      -4.113 -10.577  13.488  0.00  0.00    +0.136 C 
ATOM     20  C   UNL     1      -2.271 -12.586  12.652  0.00  0.00    +0.179 C 
ATOM     21  C   UNL     1      -4.465 -11.728  12.555  0.00  0.00    +0.179 C 
ENDBRANCH  15  17
ENDBRANCH  11  15
BRANCH  14  16
ATOM     16  C   UNL     1      -7.576 -10.161  18.667  0.00  0.00    +0.140 C 
BRANCH  16   9
ATOM      7  O   UNL     1     -10.162  -9.707  17.520  0.00  0.00    -0.253 OA
ATOM      9  N   UNL     1      -7.922  -9.159  17.702  0.00  0.00    -0.297 N 
ATOM     10  N   UNL     1      -9.254  -7.943  16.266  0.00  0.00    -0.269 N 
ATOM     22  C   UNL     1      -9.218  -8.996  17.184  0.00  0.00    +0.304 C 
ATOM     31  H   UNL     1      -7.193  -8.527  17.386  0.00  0.00    +0.150 HD
ATOM     32  H   UNL     1      -8.378  -7.454  16.098  0.00  0.00    +0.156 HD
BRANCH  10  23
ATOM      1  F   UNL     1     -12.624  -8.588  12.908  0.00  0.00    -0.205 F 
ATOM     23  C   UNL     1     -10.366  -7.469  15.532  0.00  0.00    +0.037 A 
ATOM     24  C   UNL     1     -10.958  -8.278  14.562  0.00  0.00    +0.061 A 
ATOM     25  C   UNL     1     -10.873  -6.193  15.779  0.00  0.00    +0.023 A 
ATOM     26  C   UNL     1     -12.056  -7.812  13.839  0.00  0.00    +0.125 A 
ATOM     27  C   UNL     1     -11.971  -5.727  15.056  0.00  0.00    +0.005 A 
ATOM     28  C   UNL     1     -12.563  -6.537  14.087  0.00  0.00    +0.038 A 
ENDBRANCH  10  23
ENDBRANCH  16   9
ENDBRANCH  14  16
TORSDOF 7
ENDMDL
