REMARK  Name = 45783518
REMARK  4 active torsions:
REMARK  status: ('A' for Active; 'I' for Inactive)
REMARK    1  A    between atoms: N_3  and  C_13
REMARK    2  A    between atoms: C_9  and  C_14
REMARK    3  A    between atoms: C_13  and  C_15
REMARK    4  A    between atoms: C_16  and  C_21
REMARK                            x       y       z     vdW  Elec       q    Type
REMARK                         _______ _______ _______ _____ _____    ______ ____
ROOT
ATOM      1  O   UNL     1      -2.317   0.482  -2.006  0.00  0.00    -0.336 OA
ATOM      4  N   UNL     1      -1.356   1.142  -0.094  0.00  0.00    -0.190 NA
ATOM      6  N   UNL     1      -0.953   0.191  -2.135  0.00  0.00    -0.056 NA
ATOM     14  C   UNL     1      -2.468   1.039  -0.776  0.00  0.00    +0.245 A 
ATOM     16  C   UNL     1      -0.454   0.608  -0.968  0.00  0.00    +0.204 A 
ENDROOT
BRANCH  16  21
ATOM      2  O   UNL     1       7.702  -0.265   0.666  0.00  0.00    -0.377 OA
ATOM      5  N   UNL     1       4.966   0.183   0.202  0.00  0.00    -0.311 N 
ATOM      7  N   UNL     1       3.169  -0.159  -1.300  0.00  0.00    -0.240 NA
ATOM     18  C   UNL     1       5.929   0.252  -0.906  0.00  0.00    +0.134 C 
ATOM     19  C   UNL     1       5.402  -0.606   1.359  0.00  0.00    +0.134 C 
ATOM     21  C   UNL     1       0.940   0.508  -0.645  0.00  0.00    +0.041 A 
ATOM     22  C   UNL     1       7.304   0.632  -0.370  0.00  0.00    +0.178 C 
ATOM     23  C   UNL     1       6.806  -0.181   1.774  0.00  0.00    +0.178 C 
ATOM     24  C   UNL     1       3.604   0.285  -0.100  0.00  0.00    +0.121 A 
ATOM     25  C   UNL     1       1.425   0.955   0.580  0.00  0.00    +0.016 A 
ATOM     26  C   UNL     1       2.782   0.845   0.865  0.00  0.00    +0.044 A 
ATOM     28  C   UNL     1       1.845  -0.036  -1.542  0.00  0.00    +0.124 A 
ENDBRANCH  16  21
BRANCH  14   9
ATOM      3  N   UNL     1      -4.332   0.799   0.856  0.00  0.00    -0.287 NA
ATOM      9  C   UNL     1      -3.874   1.448  -0.389  0.00  0.00    +0.146 C 
ATOM     10  C   UNL     1      -3.999   2.958  -0.112  0.00  0.00    +0.030 C 
ATOM     11  C   UNL     1      -4.590   3.058   1.287  0.00  0.00    +0.017 C 
ATOM     12  C   UNL     1      -5.280   1.722   1.478  0.00  0.00    +0.085 C 
BRANCH   3  13
ATOM     13  C   UNL     1      -4.913  -0.519   0.636  0.00  0.00    +0.121 C 
BRANCH  13  15
ATOM      8  N   UNL     1      -2.868  -3.302  -0.915  0.00  0.00    -0.263 NA
ATOM     15  C   UNL     1      -3.855  -1.576   0.461  0.00  0.00    -0.015 A 
ATOM     17  C   UNL     1      -2.911  -1.817   1.453  0.00  0.00    +0.008 A 
ATOM     20  C   UNL     1      -3.791  -2.339  -0.694  0.00  0.00    +0.115 A 
ATOM     27  C   UNL     1      -1.946  -2.799   1.263  0.00  0.00    +0.020 A 
ATOM     29  C   UNL     1      -1.967  -3.508   0.072  0.00  0.00    +0.111 A 
ENDBRANCH  13  15
ENDBRANCH   3  13
ENDBRANCH  14   9
TORSDOF 4
