REMARK  Name = 38030912
REMARK  15 active torsions:
REMARK  status: ('A' for Active; 'I' for Inactive)
REMARK    1  A    between atoms: O_2  and  C_26
REMARK    2  A    between atoms: O_2  and  C_29
REMARK    3  A    between atoms: O_3  and  C_34
REMARK    4  A    between atoms: O_3  and  C_35
REMARK    5  A    between atoms: N_4  and  C_13
REMARK    6  A    between atoms: N_5  and  C_25
REMARK    7  A    between atoms: C_8  and  C_12
REMARK    8  A    between atoms: C_9  and  C_13
REMARK    9  A    between atoms: C_11  and  C_16
REMARK   10  A    between atoms: C_12  and  C_19
REMARK   11  A    between atoms: C_12  and  C_20
REMARK   12  A    between atoms: C_15  and  C_23
REMARK   13  A    between atoms: C_16  and  C_24
REMARK   14  A    between atoms: C_25  and  C_26
REMARK   15  A    between atoms: C_27  and  C_28
REMARK                            x       y       z     vdW  Elec       q    Type
REMARK                         _______ _______ _______ _____ _____    ______ ____
ROOT
ATOM      8  C   UNL     1       1.320  -0.789   0.712  0.00  0.00    +0.000 C 
ATOM      9  C   UNL     1       2.052  -2.049   0.196  0.00  0.00    +0.029 C 
ATOM     10  C   UNL     1       0.299  -0.297  -0.324  0.00  0.00    +0.012 C 
ATOM     11  C   UNL     1      -0.739  -1.370  -0.717  0.00  0.00    +0.024 C 
ATOM     14  C   UNL     1       1.116  -3.041  -0.445  0.00  0.00    -0.023 C 
ATOM     15  C   UNL     1      -0.137  -2.761  -0.848  0.00  0.00    -0.073 C 
ATOM     23  C   UNL     1      -1.018  -3.850  -1.398  0.00  0.00    +0.039 C 
ENDROOT
BRANCH   8  12
ATOM     12  C   UNL     1       0.652  -1.047   2.070  0.00  0.00    -0.013 C 
ATOM     19  C   UNL     1       1.698  -1.083   3.179  0.00  0.00    +0.007 C 
ATOM     20  C   UNL     1      -0.403   0.018   2.354  0.00  0.00    +0.007 C 
ENDBRANCH   8  12
BRANCH   9  13
ATOM     13  C   UNL     1       3.163  -1.692  -0.796  0.00  0.00    +0.092 C 
BRANCH  13   4
ATOM      4  N   UNL     1       4.106  -0.748  -0.198  0.00  0.00    -0.299 NA
ATOM      5  N   UNL     1       6.764   0.286   0.274  0.00  0.00    -0.298 NA
ATOM     17  C   UNL     1       5.047  -1.442   0.688  0.00  0.00    +0.100 C 
ATOM     18  C   UNL     1       4.831  -0.006  -1.237  0.00  0.00    +0.100 C 
ATOM     21  C   UNL     1       6.039  -0.455   1.313  0.00  0.00    +0.100 C 
ATOM     22  C   UNL     1       5.821   0.982  -0.610  0.00  0.00    +0.100 C 
BRANCH   5  25
ATOM     25  C   UNL     1       7.707   1.229   0.872  0.00  0.00    +0.112 C 
BRANCH  25  26
ATOM     26  C   UNL     1       8.752   1.660  -0.145  0.00  0.00    +0.174 C 
BRANCH  26   2
ATOM      2  O   UNL     1       9.636   2.587   0.472  0.00  0.00    -0.382 OA
ATOM     29  C   UNL     1      10.652   3.014  -0.424  0.00  0.00    +0.194 C 
ENDBRANCH  26   2
ENDBRANCH  25  26
ENDBRANCH   5  25
ENDBRANCH  13   4
ENDBRANCH   9  13
BRANCH  11  16
ATOM     16  C   UNL     1      -1.461  -0.910  -1.989  0.00  0.00    +0.105 C 
BRANCH  16  24
ATOM      1  O   UNL     1      -3.607  -0.153  -1.108  0.00  0.00    -0.420 OA
ATOM      6  N   UNL     1      -2.325   1.486  -1.930  0.00  0.00    -0.112 NA
ATOM      7  N   UNL     1      -3.499   2.052  -1.469  0.00  0.00    -0.107 NA
ATOM     24  C   UNL     1      -2.432   0.198  -1.698  0.00  0.00    +0.218 A 
ATOM     27  C   UNL     1      -4.217   1.059  -0.999  0.00  0.00    +0.248 A 
BRANCH  27  28
ATOM     28  C   UNL     1      -5.519   1.055  -0.398  0.00  0.00    +0.039 A 
ATOM     30  C   UNL     1      -6.221   2.251  -0.243  0.00  0.00    +0.017 A 
ATOM     31  C   UNL     1      -6.085  -0.146   0.031  0.00  0.00    +0.017 A 
ATOM     32  C   UNL     1      -7.487   2.246   0.340  0.00  0.00    +0.046 A 
ATOM     33  C   UNL     1      -7.352  -0.150   0.615  0.00  0.00    +0.046 A 
ATOM     34  C   UNL     1      -8.053   1.046   0.770  0.00  0.00    +0.120 A 
BRANCH  34   3
ATOM      3  O   UNL     1      -9.290   1.041   1.337  0.00  0.00    -0.495 OA
ATOM     35  C   UNL     1      -9.808  -0.222   1.753  0.00  0.00    +0.277 C 
ENDBRANCH  34   3
ENDBRANCH  27  28
ENDBRANCH  16  24
ENDBRANCH  11  16
TORSDOF 10
