MODEL 1
REMARK VINA RESULT:      -7.1      0.000      0.000
REMARK  Name = 26743438
REMARK  7 active torsions:
REMARK  status: ('A' for Active; 'I' for Inactive)
REMARK    1  A    between atoms: S_1  and  C_20
REMARK    2  A    between atoms: S_1  and  C_23
REMARK    3  A    between atoms: O_3  and  C_12
REMARK    4  A    between atoms: N_7  and  C_14
REMARK    5  A    between atoms: C_10  and  C_15
REMARK    6  A    between atoms: C_14  and  C_16
REMARK    7  A    between atoms: C_17  and  C_20
REMARK                            x       y       z     vdW  Elec       q    Type
REMARK                         _______ _______ _______ _____ _____    ______ ____
ROOT
ATOM      4  O   UNL     1      -5.381 -11.669  17.078  0.00  0.00    -0.336 OA
ATOM      8  N   UNL     1      -5.632  -9.813  15.848  0.00  0.00    -0.193 NA
ATOM      9  N   UNL     1      -6.603 -11.106  17.468  0.00  0.00    -0.060 NA
ATOM     15  C   UNL     1      -4.876 -10.845  16.123  0.00  0.00    +0.245 A 
ATOM     17  C   UNL     1      -6.681 -10.016  16.699  0.00  0.00    +0.193 A 
ENDROOT
BRANCH  15  10
ATOM      7  N   UNL     1      -3.261 -10.555  14.250  0.00  0.00    -0.285 NA
ATOM     10  C   UNL     1      -3.540 -11.241  15.528  0.00  0.00    +0.149 C 
ATOM     11  C   UNL     1      -2.352 -10.877  16.438  0.00  0.00    +0.061 C 
ATOM     12  C   UNL     1      -1.438 -10.022  15.570  0.00  0.00    +0.130 C 
ATOM     13  C   UNL     1      -1.808 -10.430  14.156  0.00  0.00    +0.116 C 
BRANCH  12   3
ATOM      3  O   UNL     1      -0.078 -10.293  15.855  0.00  0.00    -0.390 OA
ATOM     30  H   UNL     1       0.449  -9.570  15.475  0.00  0.00    +0.210 HD
ENDBRANCH  12   3
BRANCH   7  14
ATOM     14  C   UNL     1      -3.828 -11.238  13.095  0.00  0.00    +0.120 C 
BRANCH  14  16
ATOM     16  C   UNL     1      -4.116 -10.286  11.966  0.00  0.00    -0.033 A 
ATOM     18  C   UNL     1      -5.306  -9.557  11.953  0.00  0.00    +0.005 A 
ATOM     19  C   UNL     1      -3.193 -10.131  10.932  0.00  0.00    +0.005 A 
ATOM     21  C   UNL     1      -5.572  -8.675  10.906  0.00  0.00    +0.000 A 
ATOM     22  C   UNL     1      -3.458  -9.248   9.885  0.00  0.00    +0.000 A 
ATOM     24  C   UNL     1      -4.648  -8.521   9.872  0.00  0.00    +0.000 A 
ENDBRANCH  14  16
ENDBRANCH   7  14
ENDBRANCH  15  10
BRANCH  17  20
ATOM     20  C   UNL     1      -7.823  -9.098  16.765  0.00  0.00    +0.251 C 
BRANCH  20   1
ATOM      1  S   UNL     1      -9.178  -9.812  15.875  0.00  0.00    +0.004 S 
ATOM      5  O   UNL     1      -9.905 -10.667  16.796  0.00  0.00    -0.169 OA
ATOM      6  O   UNL     1      -8.678 -10.341  14.621  0.00  0.00    -0.169 OA
BRANCH   1  23
ATOM      2  F   UNL     1     -12.604  -5.196  14.567  0.00  0.00    -0.205 F 
ATOM     23  C   UNL     1     -10.204  -8.429  15.484  0.00  0.00    +0.089 A 
ATOM     25  C   UNL     1     -10.109  -7.256  16.232  0.00  0.00    +0.030 A 
ATOM     26  C   UNL     1     -11.109  -8.510  14.425  0.00  0.00    +0.030 A 
ATOM     27  C   UNL     1     -10.919  -6.163  15.923  0.00  0.00    +0.040 A 
ATOM     28  C   UNL     1     -11.920  -7.417  14.116  0.00  0.00    +0.040 A 
ATOM     29  C   UNL     1     -11.825  -6.244  14.864  0.00  0.00    +0.124 A 
ENDBRANCH   1  23
ENDBRANCH  20   1
ENDBRANCH  17  20
TORSDOF 7
ENDMDL
MODEL 2
REMARK VINA RESULT:      -6.9      2.497      2.935
REMARK  Name = 26743438
REMARK  7 active torsions:
REMARK  status: ('A' for Active; 'I' for Inactive)
REMARK    1  A    between atoms: S_1  and  C_20
REMARK    2  A    between atoms: S_1  and  C_23
REMARK    3  A    between atoms: O_3  and  C_12
REMARK    4  A    between atoms: N_7  and  C_14
REMARK    5  A    between atoms: C_10  and  C_15
REMARK    6  A    between atoms: C_14  and  C_16
REMARK    7  A    between atoms: C_17  and  C_20
REMARK                            x       y       z     vdW  Elec       q    Type
REMARK                         _______ _______ _______ _____ _____    ______ ____
ROOT
ATOM      4  O   UNL     1      -5.947 -11.092  14.813  0.00  0.00    -0.336 OA
ATOM      8  N   UNL     1      -5.302 -10.244  16.784  0.00  0.00    -0.193 NA
ATOM      9  N   UNL     1      -7.113 -10.636  15.440  0.00  0.00    -0.060 NA
ATOM     15  C   UNL     1      -4.929 -10.823  15.671  0.00  0.00    +0.245 A 
ATOM     17  C   UNL     1      -6.651 -10.150  16.597  0.00  0.00    +0.193 A 
ENDROOT
BRANCH  15  10
ATOM      7  N   UNL     1      -3.125 -10.535  13.979  0.00  0.00    -0.285 NA
ATOM     10  C   UNL     1      -3.540 -11.224  15.218  0.00  0.00    +0.149 C 
ATOM     11  C   UNL     1      -2.452 -10.870  16.248  0.00  0.00    +0.061 C 
ATOM     12  C   UNL     1      -1.447 -10.018  15.484  0.00  0.00    +0.130 C 
ATOM     13  C   UNL     1      -1.670 -10.419  14.038  0.00  0.00    +0.116 C 
BRANCH  12   3
ATOM      3  O   UNL     1      -0.127 -10.297  15.909  0.00  0.00    -0.390 OA
ATOM     30  H   UNL     1       0.345 -10.690  15.156  0.00  0.00    +0.210 HD
ENDBRANCH  12   3
BRANCH   7  14
ATOM     14  C   UNL     1      -3.572 -11.211  12.768  0.00  0.00    +0.120 C 
BRANCH  14  16
ATOM     16  C   UNL     1      -4.012 -10.235  11.711  0.00  0.00    -0.033 A 
ATOM     18  C   UNL     1      -5.246  -9.594  11.824  0.00  0.00    +0.005 A 
ATOM     19  C   UNL     1      -3.187  -9.971  10.618  0.00  0.00    +0.005 A 
ATOM     21  C   UNL     1      -5.654  -8.689  10.843  0.00  0.00    +0.000 A 
ATOM     22  C   UNL     1      -3.595  -9.066   9.637  0.00  0.00    +0.000 A 
ATOM     24  C   UNL     1      -4.828  -8.426   9.750  0.00  0.00    +0.000 A 
ENDBRANCH  14  16
ENDBRANCH   7  14
ENDBRANCH  15  10
BRANCH  17  20
ATOM     20  C   UNL     1      -7.540  -9.551  17.598  0.00  0.00    +0.251 C 
BRANCH  20   1
ATOM      1  S   UNL     1      -8.186 -10.840  18.628  0.00  0.00    +0.004 S 
ATOM      5  O   UNL     1      -7.514 -10.753  19.911  0.00  0.00    -0.169 OA
ATOM      6  O   UNL     1      -8.176 -12.079  17.874  0.00  0.00    -0.169 OA
BRANCH   1  23
ATOM      2  F   UNL     1     -13.831  -9.327  19.410  0.00  0.00    -0.205 F 
ATOM     23  C   UNL     1      -9.877 -10.387  18.861  0.00  0.00    +0.089 A 
ATOM     25  C   UNL     1     -10.609  -9.849  17.802  0.00  0.00    +0.030 A 
ATOM     26  C   UNL     1     -10.482 -10.566  20.106  0.00  0.00    +0.030 A 
ATOM     27  C   UNL     1     -11.944  -9.491  17.987  0.00  0.00    +0.040 A 
ATOM     28  C   UNL     1     -11.817 -10.209  20.291  0.00  0.00    +0.040 A 
ATOM     29  C   UNL     1     -12.548  -9.671  19.232  0.00  0.00    +0.124 A 
ENDBRANCH   1  23
ENDBRANCH  20   1
ENDBRANCH  17  20
TORSDOF 7
ENDMDL
MODEL 3
REMARK VINA RESULT:      -6.8     26.707     29.905
REMARK  Name = 26743438
REMARK  7 active torsions:
REMARK  status: ('A' for Active; 'I' for Inactive)
REMARK    1  A    between atoms: S_1  and  C_20
REMARK    2  A    between atoms: S_1  and  C_23
REMARK    3  A    between atoms: O_3  and  C_12
REMARK    4  A    between atoms: N_7  and  C_14
REMARK    5  A    between atoms: C_10  and  C_15
REMARK    6  A    between atoms: C_14  and  C_16
REMARK    7  A    between atoms: C_17  and  C_20
REMARK                            x       y       z     vdW  Elec       q    Type
REMARK                         _______ _______ _______ _____ _____    ______ ____
ROOT
ATOM      4  O   UNL     1      14.505  12.137  21.214  0.00  0.00    -0.336 OA
ATOM      8  N   UNL     1      14.700  10.345  22.544  0.00  0.00    -0.193 NA
ATOM      9  N   UNL     1      15.671  11.476  20.808  0.00  0.00    -0.060 NA
ATOM     15  C   UNL     1      13.997  11.406  22.240  0.00  0.00    +0.245 A 
ATOM     17  C   UNL     1      15.718  10.430  21.639  0.00  0.00    +0.193 A 
ENDROOT
BRANCH  15  10
ATOM      7  N   UNL     1      11.765  10.832  23.183  0.00  0.00    -0.285 NA
ATOM     10  C   UNL     1      12.715  11.918  22.863  0.00  0.00    +0.149 C 
ATOM     11  C   UNL     1      12.951  12.641  24.202  0.00  0.00    +0.061 C 
ATOM     12  C   UNL     1      12.057  11.920  25.203  0.00  0.00    +0.130 C 
ATOM     13  C   UNL     1      10.987  11.288  24.333  0.00  0.00    +0.116 C 
BRANCH  12   3
ATOM      3  O   UNL     1      11.507  12.833  26.133  0.00  0.00    -0.390 OA
ATOM     30  H   UNL     1      12.015  12.752  26.958  0.00  0.00    +0.210 HD
ENDBRANCH  12   3
BRANCH   7  14
ATOM     14  C   UNL     1      10.916  10.462  22.059  0.00  0.00    +0.120 C 
BRANCH  14  16
ATOM     16  C   UNL     1      11.282   9.114  21.499  0.00  0.00    -0.033 A 
ATOM     18  C   UNL     1      11.921   9.022  20.262  0.00  0.00    +0.005 A 
ATOM     19  C   UNL     1      10.984   7.956  22.217  0.00  0.00    +0.005 A 
ATOM     21  C   UNL     1      12.260   7.772  19.744  0.00  0.00    +0.000 A 
ATOM     22  C   UNL     1      11.324   6.706  21.699  0.00  0.00    +0.000 A 
ATOM     24  C   UNL     1      11.961   6.614  20.463  0.00  0.00    +0.000 A 
ENDBRANCH  14  16
ENDBRANCH   7  14
ENDBRANCH  15  10
BRANCH  17  20
ATOM     20  C   UNL     1      16.796   9.437  21.578  0.00  0.00    +0.251 C 
BRANCH  20   1
ATOM      1  S   UNL     1      16.160   7.953  20.848  0.00  0.00    +0.004 S 
ATOM      5  O   UNL     1      15.665   8.293  19.527  0.00  0.00    -0.169 OA
ATOM      6  O   UNL     1      15.296   7.300  21.813  0.00  0.00    -0.169 OA
BRANCH   1  23
ATOM      2  F   UNL     1      20.928   4.545  20.204  0.00  0.00    -0.205 F 
ATOM     23  C   UNL     1      17.588   6.932  20.654  0.00  0.00    +0.089 A 
ATOM     25  C   UNL     1      17.635   5.983  19.633  0.00  0.00    +0.030 A 
ATOM     26  C   UNL     1      18.670   7.074  21.524  0.00  0.00    +0.030 A 
ATOM     27  C   UNL     1      18.762   5.177  19.480  0.00  0.00    +0.040 A 
ATOM     28  C   UNL     1      19.798   6.267  21.371  0.00  0.00    +0.040 A 
ATOM     29  C   UNL     1      19.844   5.319  20.350  0.00  0.00    +0.124 A 
ENDBRANCH   1  23
ENDBRANCH  20   1
ENDBRANCH  17  20
TORSDOF 7
ENDMDL
MODEL 4
REMARK VINA RESULT:      -6.7     26.297     29.157
REMARK  Name = 26743438
REMARK  7 active torsions:
REMARK  status: ('A' for Active; 'I' for Inactive)
REMARK    1  A    between atoms: S_1  and  C_20
REMARK    2  A    between atoms: S_1  and  C_23
REMARK    3  A    between atoms: O_3  and  C_12
REMARK    4  A    between atoms: N_7  and  C_14
REMARK    5  A    between atoms: C_10  and  C_15
REMARK    6  A    between atoms: C_14  and  C_16
REMARK    7  A    between atoms: C_17  and  C_20
REMARK                            x       y       z     vdW  Elec       q    Type
REMARK                         _______ _______ _______ _____ _____    ______ ____
ROOT
ATOM      4  O   UNL     1      14.265  11.229  20.935  0.00  0.00    -0.336 OA
ATOM      8  N   UNL     1      14.522   9.318  22.075  0.00  0.00    -0.193 NA
ATOM      9  N   UNL     1      13.020  10.587  20.904  0.00  0.00    -0.060 NA
ATOM     15  C   UNL     1      15.090  10.415  21.643  0.00  0.00    +0.245 A 
ATOM     17  C   UNL     1      13.252   9.468  21.597  0.00  0.00    +0.193 A 
ENDROOT
BRANCH  15  10
ATOM      7  N   UNL     1      17.493  10.060  21.092  0.00  0.00    -0.285 NA
ATOM     10  C   UNL     1      16.516  10.892  21.824  0.00  0.00    +0.149 C 
ATOM     11  C   UNL     1      16.738  12.320  21.291  0.00  0.00    +0.061 C 
ATOM     12  C   UNL     1      17.888  12.197  20.300  0.00  0.00    +0.130 C 
ATOM     13  C   UNL     1      18.608  10.938  20.746  0.00  0.00    +0.116 C 
BRANCH  12   3
ATOM      3  O   UNL     1      18.729  13.333  20.362  0.00  0.00    -0.390 OA
ATOM     30  H   UNL     1      18.474  13.841  21.151  0.00  0.00    +0.210 HD
ENDBRANCH  12   3
BRANCH   7  14
ATOM     14  C   UNL     1      17.928   8.890  21.844  0.00  0.00    +0.120 C 
BRANCH  14  16
ATOM     16  C   UNL     1      17.996   7.661  20.978  0.00  0.00    -0.033 A 
ATOM     18  C   UNL     1      16.935   7.346  20.129  0.00  0.00    +0.005 A 
ATOM     19  C   UNL     1      19.120   6.836  21.025  0.00  0.00    +0.005 A 
ATOM     21  C   UNL     1      16.998   6.206  19.327  0.00  0.00    +0.000 A 
ATOM     22  C   UNL     1      19.184   5.697  20.223  0.00  0.00    +0.000 A 
ATOM     24  C   UNL     1      18.123   5.382  19.374  0.00  0.00    +0.000 A 
ENDBRANCH  14  16
ENDBRANCH   7  14
ENDBRANCH  15  10
BRANCH  17  20
ATOM     20  C   UNL     1      12.206   8.466  21.829  0.00  0.00    +0.251 C 
BRANCH  20   1
ATOM      1  S   UNL     1      12.497   7.082  20.763  0.00  0.00    +0.004 S 
ATOM      5  O   UNL     1      11.332   6.220  20.838  0.00  0.00    -0.169 OA
ATOM      6  O   UNL     1      13.820   6.557  21.042  0.00  0.00    -0.169 OA
BRANCH   1  23
ATOM      2  F   UNL     1      12.678   9.461  15.372  0.00  0.00    -0.205 F 
ATOM     23  C   UNL     1      12.550   7.795  19.148  0.00  0.00    +0.089 A 
ATOM     25  C   UNL     1      11.403   8.367  18.599  0.00  0.00    +0.030 A 
ATOM     26  C   UNL     1      13.741   7.786  18.421  0.00  0.00    +0.030 A 
ATOM     27  C   UNL     1      11.445   8.930  17.324  0.00  0.00    +0.040 A 
ATOM     28  C   UNL     1      13.784   8.349  17.145  0.00  0.00    +0.040 A 
ATOM     29  C   UNL     1      12.636   8.921  16.597  0.00  0.00    +0.124 A 
ENDBRANCH   1  23
ENDBRANCH  20   1
ENDBRANCH  17  20
TORSDOF 7
ENDMDL
MODEL 5
REMARK VINA RESULT:      -6.6     24.583     27.065
REMARK  Name = 26743438
REMARK  7 active torsions:
REMARK  status: ('A' for Active; 'I' for Inactive)
REMARK    1  A    between atoms: S_1  and  C_20
REMARK    2  A    between atoms: S_1  and  C_23
REMARK    3  A    between atoms: O_3  and  C_12
REMARK    4  A    between atoms: N_7  and  C_14
REMARK    5  A    between atoms: C_10  and  C_15
REMARK    6  A    between atoms: C_14  and  C_16
REMARK    7  A    between atoms: C_17  and  C_20
REMARK                            x       y       z     vdW  Elec       q    Type
REMARK                         _______ _______ _______ _____ _____    ______ ____
ROOT
ATOM      4  O   UNL     1      11.445   7.008  -1.180  0.00  0.00    -0.336 OA
ATOM      8  N   UNL     1      10.105   5.509  -0.192  0.00  0.00    -0.193 NA
ATOM      9  N   UNL     1      11.134   7.535   0.080  0.00  0.00    -0.060 NA
ATOM     15  C   UNL     1      10.799   5.816  -1.259  0.00  0.00    +0.245 A 
ATOM     17  C   UNL     1      10.341   6.594   0.602  0.00  0.00    +0.193 A 
ENDROOT
BRANCH  15  10
ATOM      7  N   UNL     1      11.655   3.738  -2.331  0.00  0.00    -0.285 NA
ATOM     10  C   UNL     1      10.978   5.034  -2.543  0.00  0.00    +0.149 C 
ATOM     11  C   UNL     1       9.640   4.674  -3.213  0.00  0.00    +0.061 C 
ATOM     12  C   UNL     1       9.675   3.160  -3.377  0.00  0.00    +0.130 C 
ATOM     13  C   UNL     1      11.157   2.837  -3.368  0.00  0.00    +0.116 C 
BRANCH  12   3
ATOM      3  O   UNL     1       9.060   2.772  -4.591  0.00  0.00    -0.390 OA
ATOM     30  H   UNL     1       8.586   1.940  -4.426  0.00  0.00    +0.210 HD
ENDBRANCH  12   3
BRANCH   7  14
ATOM     14  C   UNL     1      13.108   3.839  -2.345  0.00  0.00    +0.120 C 
BRANCH  14  16
ATOM     16  C   UNL     1      13.689   3.755  -0.959  0.00  0.00    -0.033 A 
ATOM     18  C   UNL     1      12.905   3.295   0.100  0.00  0.00    +0.005 A 
ATOM     19  C   UNL     1      15.012   4.135  -0.732  0.00  0.00    +0.005 A 
ATOM     21  C   UNL     1      13.444   3.218   1.384  0.00  0.00    +0.000 A 
ATOM     22  C   UNL     1      15.551   4.056   0.552  0.00  0.00    +0.000 A 
ATOM     24  C   UNL     1      14.767   3.598   1.609  0.00  0.00    +0.000 A 
ENDBRANCH  14  16
ENDBRANCH   7  14
ENDBRANCH  15  10
BRANCH  17  20
ATOM     20  C   UNL     1       9.764   6.721   1.945  0.00  0.00    +0.251 C 
BRANCH  20   1
ATOM      1  S   UNL     1      10.714   5.735   3.068  0.00  0.00    +0.004 S 
ATOM      5  O   UNL     1      12.086   6.206   3.010  0.00  0.00    -0.169 OA
ATOM      6  O   UNL     1      10.406   4.338   2.828  0.00  0.00    -0.169 OA
BRANCH   1  23
ATOM      2  F   UNL     1       8.525   7.114   8.365  0.00  0.00    -0.205 F 
ATOM     23  C   UNL     1      10.057   6.148   4.654  0.00  0.00    +0.089 A 
ATOM     25  C   UNL     1       8.779   6.695   4.760  0.00  0.00    +0.030 A 
ATOM     26  C   UNL     1      10.818   5.927   5.803  0.00  0.00    +0.030 A 
ATOM     27  C   UNL     1       8.260   7.021   6.012  0.00  0.00    +0.040 A 
ATOM     28  C   UNL     1      10.300   6.253   7.056  0.00  0.00    +0.040 A 
ATOM     29  C   UNL     1       9.022   6.800   7.161  0.00  0.00    +0.124 A 
ENDBRANCH   1  23
ENDBRANCH  20   1
ENDBRANCH  17  20
TORSDOF 7
ENDMDL
MODEL 6
REMARK VINA RESULT:      -6.6      3.394      4.557
REMARK  Name = 26743438
REMARK  7 active torsions:
REMARK  status: ('A' for Active; 'I' for Inactive)
REMARK    1  A    between atoms: S_1  and  C_20
REMARK    2  A    between atoms: S_1  and  C_23
REMARK    3  A    between atoms: O_3  and  C_12
REMARK    4  A    between atoms: N_7  and  C_14
REMARK    5  A    between atoms: C_10  and  C_15
REMARK    6  A    between atoms: C_14  and  C_16
REMARK    7  A    between atoms: C_17  and  C_20
REMARK                            x       y       z     vdW  Elec       q    Type
REMARK                         _______ _______ _______ _____ _____    ______ ____
ROOT
ATOM      4  O   UNL     1      -5.627 -12.672  14.030  0.00  0.00    -0.336 OA
ATOM      8  N   UNL     1      -5.715 -10.731  15.144  0.00  0.00    -0.193 NA
ATOM      9  N   UNL     1      -6.982 -12.437  14.297  0.00  0.00    -0.060 NA
ATOM     15  C   UNL     1      -4.952 -11.621  14.562  0.00  0.00    +0.245 A 
ATOM     17  C   UNL     1      -6.952 -11.275  14.956  0.00  0.00    +0.193 A 
ENDROOT
BRANCH  15  10
ATOM      7  N   UNL     1      -2.960 -10.581  13.490  0.00  0.00    -0.285 NA
ATOM     10  C   UNL     1      -3.446 -11.636  14.403  0.00  0.00    +0.149 C 
ATOM     11  C   UNL     1      -2.704 -11.382  15.728  0.00  0.00    +0.061 C 
ATOM     12  C   UNL     1      -1.792 -10.194  15.449  0.00  0.00    +0.130 C 
ATOM     13  C   UNL     1      -1.615 -10.230  13.943  0.00  0.00    +0.116 C 
BRANCH  12   3
ATOM      3  O   UNL     1      -0.558 -10.339  16.126  0.00  0.00    -0.390 OA
ATOM     30  H   UNL     1      -0.572  -9.736  16.889  0.00  0.00    +0.210 HD
ENDBRANCH  12   3
BRANCH   7  14
ATOM     14  C   UNL     1      -2.979 -10.979  12.089  0.00  0.00    +0.120 C 
BRANCH  14  16
ATOM     16  C   UNL     1      -3.813 -10.047  11.253  0.00  0.00    -0.033 A 
ATOM     18  C   UNL     1      -5.059  -9.621  11.713  0.00  0.00    +0.005 A 
ATOM     19  C   UNL     1      -3.339  -9.606  10.017  0.00  0.00    +0.005 A 
ATOM     21  C   UNL     1      -5.831  -8.757  10.937  0.00  0.00    +0.000 A 
ATOM     22  C   UNL     1      -4.111  -8.740   9.241  0.00  0.00    +0.000 A 
ATOM     24  C   UNL     1      -5.356  -8.316   9.701  0.00  0.00    +0.000 A 
ENDBRANCH  14  16
ENDBRANCH   7  14
ENDBRANCH  15  10
BRANCH  17  20
ATOM     20  C   UNL     1      -8.175 -10.626  15.443  0.00  0.00    +0.251 C 
BRANCH  20   1
ATOM      1  S   UNL     1      -8.632 -11.362  16.988  0.00  0.00    +0.004 S 
ATOM      5  O   UNL     1      -9.180 -12.675  16.702  0.00  0.00    -0.169 OA
ATOM      6  O   UNL     1      -9.399 -10.395  17.750  0.00  0.00    -0.169 OA
BRANCH   1  23
ATOM      2  F   UNL     1      -3.492 -12.086  19.783  0.00  0.00    -0.205 F 
ATOM     23  C   UNL     1      -7.092 -11.580  17.824  0.00  0.00    +0.089 A 
ATOM     25  C   UNL     1      -6.446 -12.815  17.789  0.00  0.00    +0.030 A 
ATOM     26  C   UNL     1      -6.521 -10.514  18.522  0.00  0.00    +0.030 A 
ATOM     27  C   UNL     1      -5.231 -12.987  18.450  0.00  0.00    +0.040 A 
ATOM     28  C   UNL     1      -5.304 -10.686  19.183  0.00  0.00    +0.040 A 
ATOM     29  C   UNL     1      -4.659 -11.922  19.147  0.00  0.00    +0.124 A 
ENDBRANCH   1  23
ENDBRANCH  20   1
ENDBRANCH  17  20
TORSDOF 7
ENDMDL
MODEL 7
REMARK VINA RESULT:      -6.5      3.407      6.582
REMARK  Name = 26743438
REMARK  7 active torsions:
REMARK  status: ('A' for Active; 'I' for Inactive)
REMARK    1  A    between atoms: S_1  and  C_20
REMARK    2  A    between atoms: S_1  and  C_23
REMARK    3  A    between atoms: O_3  and  C_12
REMARK    4  A    between atoms: N_7  and  C_14
REMARK    5  A    between atoms: C_10  and  C_15
REMARK    6  A    between atoms: C_14  and  C_16
REMARK    7  A    between atoms: C_17  and  C_20
REMARK                            x       y       z     vdW  Elec       q    Type
REMARK                         _______ _______ _______ _____ _____    ______ ____
ROOT
ATOM      4  O   UNL     1      -4.519 -11.144  18.027  0.00  0.00    -0.336 OA
ATOM      8  N   UNL     1      -4.522 -10.025  16.086  0.00  0.00    -0.193 NA
ATOM      9  N   UNL     1      -3.290 -11.422  17.416  0.00  0.00    -0.060 NA
ATOM     15  C   UNL     1      -5.182 -10.316  17.178  0.00  0.00    +0.245 A 
ATOM     17  C   UNL     1      -3.367 -10.727  16.277  0.00  0.00    +0.193 A 
ENDROOT
BRANCH  15  10
ATOM      7  N   UNL     1      -7.641 -10.455  16.807  0.00  0.00    -0.285 NA
ATOM     10  C   UNL     1      -6.558  -9.860  17.617  0.00  0.00    +0.149 C 
ATOM     11  C   UNL     1      -6.885 -10.265  19.067  0.00  0.00    +0.061 C 
ATOM     12  C   UNL     1      -8.190 -11.045  18.975  0.00  0.00    +0.130 C 
ATOM     13  C   UNL     1      -8.808 -10.550  17.680  0.00  0.00    +0.116 C 
BRANCH  12   3
ATOM      3  O   UNL     1      -9.018 -10.771  20.090  0.00  0.00    -0.390 OA
ATOM     30  H   UNL     1      -9.508 -11.585  20.295  0.00  0.00    +0.210 HD
ENDBRANCH  12   3
BRANCH   7  14
ATOM     14  C   UNL     1      -7.925  -9.707  15.590  0.00  0.00    +0.120 C 
BRANCH  14  16
ATOM     16  C   UNL     1      -7.863 -10.580  14.366  0.00  0.00    -0.033 A 
ATOM     18  C   UNL     1      -8.339 -10.104  13.144  0.00  0.00    +0.005 A 
ATOM     19  C   UNL     1      -7.330 -11.866  14.453  0.00  0.00    +0.005 A 
ATOM     21  C   UNL     1      -8.281 -10.914  12.010  0.00  0.00    +0.000 A 
ATOM     22  C   UNL     1      -7.271 -12.676  13.319  0.00  0.00    +0.000 A 
ATOM     24  C   UNL     1      -7.747 -12.200  12.098  0.00  0.00    +0.000 A 
ENDBRANCH  14  16
ENDBRANCH   7  14
ENDBRANCH  15  10
BRANCH  17  20
ATOM     20  C   UNL     1      -2.276 -10.719  15.296  0.00  0.00    +0.251 C 
BRANCH  20   1
ATOM      1  S   UNL     1      -2.665 -11.867  14.004  0.00  0.00    +0.004 S 
ATOM      5  O   UNL     1      -3.845 -12.604  14.415  0.00  0.00    -0.169 OA
ATOM      6  O   UNL     1      -1.451 -12.569  13.632  0.00  0.00    -0.169 OA
BRANCH   1  23
ATOM      2  F   UNL     1      -4.146  -8.423   9.454  0.00  0.00    -0.205 F 
ATOM     23  C   UNL     1      -3.107 -10.835  12.641  0.00  0.00    +0.089 A 
ATOM     25  C   UNL     1      -2.120 -10.341  11.789  0.00  0.00    +0.030 A 
ATOM     26  C   UNL     1      -4.446 -10.515  12.415  0.00  0.00    +0.030 A 
ATOM     27  C   UNL     1      -2.469  -9.526  10.713  0.00  0.00    +0.040 A 
ATOM     28  C   UNL     1      -4.797  -9.700  11.339  0.00  0.00    +0.040 A 
ATOM     29  C   UNL     1      -3.808  -9.206  10.488  0.00  0.00    +0.124 A 
ENDBRANCH   1  23
ENDBRANCH  20   1
ENDBRANCH  17  20
TORSDOF 7
ENDMDL
MODEL 8
REMARK VINA RESULT:      -6.4      3.553      7.841
REMARK  Name = 26743438
REMARK  7 active torsions:
REMARK  status: ('A' for Active; 'I' for Inactive)
REMARK    1  A    between atoms: S_1  and  C_20
REMARK    2  A    between atoms: S_1  and  C_23
REMARK    3  A    between atoms: O_3  and  C_12
REMARK    4  A    between atoms: N_7  and  C_14
REMARK    5  A    between atoms: C_10  and  C_15
REMARK    6  A    between atoms: C_14  and  C_16
REMARK    7  A    between atoms: C_17  and  C_20
REMARK                            x       y       z     vdW  Elec       q    Type
REMARK                         _______ _______ _______ _____ _____    ______ ____
ROOT
ATOM      4  O   UNL     1      -9.784 -11.136  13.763  0.00  0.00    -0.336 OA
ATOM      8  N   UNL     1      -8.239  -9.528  13.545  0.00  0.00    -0.193 NA
ATOM      9  N   UNL     1      -8.967 -11.523  12.693  0.00  0.00    -0.060 NA
ATOM     15  C   UNL     1      -9.286  -9.952  14.206  0.00  0.00    +0.245 A 
ATOM     17  C   UNL     1      -8.081 -10.525  12.626  0.00  0.00    +0.193 A 
ENDROOT
BRANCH  15  10
ATOM      7  N   UNL     1      -9.087  -8.976  16.488  0.00  0.00    -0.285 NA
ATOM     10  C   UNL     1     -10.002  -9.315  15.379  0.00  0.00    +0.149 C 
ATOM     11  C   UNL     1     -10.682  -7.984  15.009  0.00  0.00    +0.061 C 
ATOM     12  C   UNL     1     -10.120  -6.966  15.993  0.00  0.00    +0.130 C 
ATOM     13  C   UNL     1      -9.668  -7.818  17.165  0.00  0.00    +0.116 C 
BRANCH  12   3
ATOM      3  O   UNL     1     -11.114  -6.034  16.375  0.00  0.00    -0.390 OA
ATOM     30  H   UNL     1     -11.962  -6.509  16.406  0.00  0.00    +0.210 HD
ENDBRANCH  12   3
BRANCH   7  14
ATOM     14  C   UNL     1      -8.856 -10.086  17.403  0.00  0.00    +0.120 C 
BRANCH  14  16
ATOM     16  C   UNL     1      -7.389 -10.328  17.632  0.00  0.00    -0.033 A 
ATOM     18  C   UNL     1      -6.959 -10.964  18.797  0.00  0.00    +0.005 A 
ATOM     19  C   UNL     1      -6.456  -9.917  16.679  0.00  0.00    +0.005 A 
ATOM     21  C   UNL     1      -5.599 -11.188  19.010  0.00  0.00    +0.000 A 
ATOM     22  C   UNL     1      -5.096 -10.142  16.891  0.00  0.00    +0.000 A 
ATOM     24  C   UNL     1      -4.668 -10.777  18.056  0.00  0.00    +0.000 A 
ENDBRANCH  14  16
ENDBRANCH   7  14
ENDBRANCH  15  10
BRANCH  17  20
ATOM     20  C   UNL     1      -7.006 -10.506  11.628  0.00  0.00    +0.251 C 
BRANCH  20   1
ATOM      1  S   UNL     1      -5.716 -11.597  12.161  0.00  0.00    +0.004 S 
ATOM      5  O   UNL     1      -5.811 -12.808  11.368  0.00  0.00    -0.169 OA
ATOM      6  O   UNL     1      -5.739 -11.663  13.610  0.00  0.00    -0.169 OA
BRANCH   1  23
ATOM      2  F   UNL     1      -0.769  -8.780  10.629  0.00  0.00    -0.205 F 
ATOM     23  C   UNL     1      -4.233 -10.754  11.703  0.00  0.00    +0.089 A 
ATOM     25  C   UNL     1      -3.060 -10.959  12.428  0.00  0.00    +0.030 A 
ATOM     26  C   UNL     1      -4.236  -9.881  10.614  0.00  0.00    +0.030 A 
ATOM     27  C   UNL     1      -1.889 -10.294  12.066  0.00  0.00    +0.040 A 
ATOM     28  C   UNL     1      -3.065  -9.215  10.252  0.00  0.00    +0.040 A 
ATOM     29  C   UNL     1      -1.892  -9.421  10.977  0.00  0.00    +0.124 A 
ENDBRANCH   1  23
ENDBRANCH  20   1
ENDBRANCH  17  20
TORSDOF 7
ENDMDL
MODEL 9
REMARK VINA RESULT:      -6.4      2.398      2.978
REMARK  Name = 26743438
REMARK  7 active torsions:
REMARK  status: ('A' for Active; 'I' for Inactive)
REMARK    1  A    between atoms: S_1  and  C_20
REMARK    2  A    between atoms: S_1  and  C_23
REMARK    3  A    between atoms: O_3  and  C_12
REMARK    4  A    between atoms: N_7  and  C_14
REMARK    5  A    between atoms: C_10  and  C_15
REMARK    6  A    between atoms: C_14  and  C_16
REMARK    7  A    between atoms: C_17  and  C_20
REMARK                            x       y       z     vdW  Elec       q    Type
REMARK                         _______ _______ _______ _____ _____    ______ ____
ROOT
ATOM      4  O   UNL     1      -4.810 -10.872  17.278  0.00  0.00    -0.336 OA
ATOM      8  N   UNL     1      -5.930 -11.757  15.550  0.00  0.00    -0.193 NA
ATOM      9  N   UNL     1      -6.163 -10.853  17.639  0.00  0.00    -0.060 NA
ATOM     15  C   UNL     1      -4.762 -11.419  16.035  0.00  0.00    +0.245 A 
ATOM     17  C   UNL     1      -6.759 -11.390  16.570  0.00  0.00    +0.193 A 
ENDROOT
BRANCH  15  10
ATOM      7  N   UNL     1      -3.223 -10.710  14.210  0.00  0.00    -0.285 NA
ATOM     10  C   UNL     1      -3.389 -11.555  15.410  0.00  0.00    +0.149 C 
ATOM     11  C   UNL     1      -2.257 -11.119  16.359  0.00  0.00    +0.061 C 
ATOM     12  C   UNL     1      -1.483 -10.058  15.588  0.00  0.00    +0.130 C 
ATOM     13  C   UNL     1      -1.804 -10.369  14.138  0.00  0.00    +0.116 C 
BRANCH  12   3
ATOM      3  O   UNL     1      -0.096 -10.158  15.852  0.00  0.00    -0.390 OA
ATOM     30  H   UNL     1       0.241 -10.922  15.355  0.00  0.00    +0.210 HD
ENDBRANCH  12   3
BRANCH   7  14
ATOM     14  C   UNL     1      -3.696 -11.347  12.989  0.00  0.00    +0.120 C 
BRANCH  14  16
ATOM     16  C   UNL     1      -4.039 -10.337  11.927  0.00  0.00    -0.033 A 
ATOM     18  C   UNL     1      -3.165 -10.121  10.860  0.00  0.00    +0.005 A 
ATOM     19  C   UNL     1      -5.231  -9.617  12.007  0.00  0.00    +0.005 A 
ATOM     21  C   UNL     1      -3.483  -9.185   9.877  0.00  0.00    +0.000 A 
ATOM     22  C   UNL     1      -5.550  -8.682  11.023  0.00  0.00    +0.000 A 
ATOM     24  C   UNL     1      -4.676  -8.466   9.958  0.00  0.00    +0.000 A 
ENDBRANCH  14  16
ENDBRANCH   7  14
ENDBRANCH  15  10
BRANCH  17  20
ATOM     20  C   UNL     1      -8.213 -11.574  16.502  0.00  0.00    +0.251 C 
BRANCH  20   1
ATOM      1  S   UNL     1      -8.983  -9.984  16.383  0.00  0.00    +0.004 S 
ATOM      5  O   UNL     1      -9.743  -9.957  15.148  0.00  0.00    -0.169 OA
ATOM      6  O   UNL     1      -7.984  -8.967  16.655  0.00  0.00    -0.169 OA
BRANCH   1  23
ATOM      2  F   UNL     1     -12.788  -9.919  20.886  0.00  0.00    -0.205 F 
ATOM     23  C   UNL     1     -10.124  -9.964  17.731  0.00  0.00    +0.089 A 
ATOM     25  C   UNL     1     -11.439  -9.547  17.528  0.00  0.00    +0.030 A 
ATOM     26  C   UNL     1      -9.709 -10.367  19.001  0.00  0.00    +0.030 A 
ATOM     27  C   UNL     1     -12.339  -9.532  18.592  0.00  0.00    +0.040 A 
ATOM     28  C   UNL     1     -10.609 -10.352  20.067  0.00  0.00    +0.040 A 
ATOM     29  C   UNL     1     -11.924  -9.934  19.862  0.00  0.00    +0.124 A 
ENDBRANCH   1  23
ENDBRANCH  20   1
ENDBRANCH  17  20
TORSDOF 7
ENDMDL
MODEL 10
REMARK VINA RESULT:      -6.4     24.805     27.599
REMARK  Name = 26743438
REMARK  7 active torsions:
REMARK  status: ('A' for Active; 'I' for Inactive)
REMARK    1  A    between atoms: S_1  and  C_20
REMARK    2  A    between atoms: S_1  and  C_23
REMARK    3  A    between atoms: O_3  and  C_12
REMARK    4  A    between atoms: N_7  and  C_14
REMARK    5  A    between atoms: C_10  and  C_15
REMARK    6  A    between atoms: C_14  and  C_16
REMARK    7  A    between atoms: C_17  and  C_20
REMARK                            x       y       z     vdW  Elec       q    Type
REMARK                         _______ _______ _______ _____ _____    ______ ____
ROOT
ATOM      4  O   UNL     1      14.810   5.830   1.469  0.00  0.00    -0.336 OA
ATOM      8  N   UNL     1      13.278   6.984   2.628  0.00  0.00    -0.193 NA
ATOM      9  N   UNL     1      15.438   7.015   1.873  0.00  0.00    -0.060 NA
ATOM     15  C   UNL     1      13.542   5.893   1.954  0.00  0.00    +0.245 A 
ATOM     17  C   UNL     1      14.471   7.642   2.550  0.00  0.00    +0.193 A 
ENDROOT
BRANCH  15  10
ATOM      7  N   UNL     1      11.232   4.965   2.006  0.00  0.00    -0.285 NA
ATOM     10  C   UNL     1      12.644   4.712   1.652  0.00  0.00    +0.149 C 
ATOM     11  C   UNL     1      12.616   4.354   0.154  0.00  0.00    +0.061 C 
ATOM     12  C   UNL     1      11.143   4.387  -0.232  0.00  0.00    +0.130 C 
ATOM     13  C   UNL     1      10.426   4.166   1.086  0.00  0.00    +0.116 C 
BRANCH  12   3
ATOM      3  O   UNL     1      10.847   3.369  -1.169  0.00  0.00    -0.390 OA
ATOM     30  H   UNL     1      10.074   3.660  -1.681  0.00  0.00    +0.210 HD
ENDBRANCH  12   3
BRANCH   7  14
ATOM     14  C   UNL     1      10.928   4.670   3.400  0.00  0.00    +0.120 C 
BRANCH  14  16
ATOM     16  C   UNL     1       9.925   5.636   3.971  0.00  0.00    -0.033 A 
ATOM     18  C   UNL     1       9.715   6.870   3.354  0.00  0.00    +0.005 A 
ATOM     19  C   UNL     1       9.206   5.299   5.117  0.00  0.00    +0.005 A 
ATOM     21  C   UNL     1       8.785   7.765   3.884  0.00  0.00    +0.000 A 
ATOM     22  C   UNL     1       8.276   6.193   5.647  0.00  0.00    +0.000 A 
ATOM     24  C   UNL     1       8.066   7.426   5.031  0.00  0.00    +0.000 A 
ENDBRANCH  14  16
ENDBRANCH   7  14
ENDBRANCH  15  10
BRANCH  17  20
ATOM     20  C   UNL     1      14.683   8.954   3.173  0.00  0.00    +0.251 C 
BRANCH  20   1
ATOM      1  S   UNL     1      15.230   8.710   4.840  0.00  0.00    +0.004 S 
ATOM      5  O   UNL     1      15.684   9.993   5.343  0.00  0.00    -0.169 OA
ATOM      6  O   UNL     1      16.106   7.555   4.873  0.00  0.00    -0.169 OA
BRANCH   1  23
ATOM      2  F   UNL     1      10.313   7.238   7.740  0.00  0.00    -0.205 F 
ATOM     23  C   UNL     1      13.756   8.270   5.708  0.00  0.00    +0.089 A 
ATOM     25  C   UNL     1      12.611   9.056   5.584  0.00  0.00    +0.030 A 
ATOM     26  C   UNL     1      13.738   7.135   6.519  0.00  0.00    +0.030 A 
ATOM     27  C   UNL     1      11.448   8.708   6.269  0.00  0.00    +0.040 A 
ATOM     28  C   UNL     1      12.574   6.786   7.205  0.00  0.00    +0.040 A 
ATOM     29  C   UNL     1      11.430   7.573   7.081  0.00  0.00    +0.124 A 
ENDBRANCH   1  23
ENDBRANCH  20   1
ENDBRANCH  17  20
TORSDOF 7
ENDMDL
