REMARK  Name = 26743070
REMARK  7 active torsions:
REMARK  status: ('A' for Active; 'I' for Inactive)
REMARK    1  A    between atoms: N_6  and  C_19
REMARK    2  A    between atoms: C_8  and  C_14
REMARK    3  A    between atoms: C_9  and  C_13
REMARK    4  A    between atoms: C_13  and  C_15
REMARK    5  A    between atoms: C_14  and  C_16
REMARK    6  A    between atoms: C_18  and  C_21
REMARK    7  A    between atoms: C_19  and  C_20
REMARK                            x       y       z     vdW  Elec       q    Type
REMARK                         _______ _______ _______ _____ _____    ______ ____
ROOT
ATOM      5  N   UNL     1      -2.658  -4.287  -0.316  0.00  0.00    -0.316 NA
ATOM      8  C   UNL     1      -3.891  -1.631  -0.292  0.00  0.00    +0.004 C 
ATOM      9  C   UNL     1      -2.359  -1.813  -0.416  0.00  0.00    +0.012 C 
ATOM     10  C   UNL     1      -4.535  -2.839   0.405  0.00  0.00    +0.019 C 
ATOM     11  C   UNL     1      -2.057  -3.179  -1.060  0.00  0.00    +0.085 C 
ATOM     12  C   UNL     1      -4.113  -4.153  -0.252  0.00  0.00    +0.081 C 
ATOM     33  H   UNL     1      -2.277  -4.323   0.628  0.00  0.00    +0.122 HD
ENDROOT
BRANCH   9  13
ATOM     13  C   UNL     1      -1.607  -1.661   0.913  0.00  0.00    +0.064 C 
BRANCH  13  15
ATOM      2  O   UNL     1       1.620  -0.152   0.392  0.00  0.00    -0.354 OA
ATOM      7  N   UNL     1       0.247  -0.080   0.595  0.00  0.00    -0.083 NA
ATOM     15  C   UNL     1      -0.155  -1.350   0.688  0.00  0.00    +0.085 A 
ATOM     17  C   UNL     1       0.909  -2.259   0.552  0.00  0.00    +0.076 A 
ATOM     18  C   UNL     1       2.002  -1.454   0.368  0.00  0.00    +0.167 A 
BRANCH  18  21
ATOM     21  C   UNL     1       3.402  -1.687   0.165  0.00  0.00    +0.020 A 
ATOM     24  C   UNL     1       3.893  -2.992   0.125  0.00  0.00    +0.011 A 
ATOM     25  C   UNL     1       4.273  -0.610   0.007  0.00  0.00    +0.011 A 
ATOM     29  C   UNL     1       5.255  -3.219  -0.073  0.00  0.00    +0.001 A 
ATOM     30  C   UNL     1       5.635  -0.836  -0.191  0.00  0.00    +0.001 A 
ATOM     32  C   UNL     1       6.126  -2.141  -0.231  0.00  0.00    +0.000 A 
ENDBRANCH  18  21
ENDBRANCH  13  15
ENDBRANCH   9  13
BRANCH   8  14
ATOM     14  C   UNL     1      -4.294  -0.328   0.397  0.00  0.00    +0.099 C 
BRANCH  14  16
ATOM      1  O   UNL     1      -3.515   0.926  -1.520  0.00  0.00    -0.276 OA
ATOM      6  N   UNL     1      -3.531   1.935   0.574  0.00  0.00    -0.311 N 
ATOM     16  C   UNL     1      -3.742   0.890  -0.313  0.00  0.00    +0.214 C 
ATOM     34  H   UNL     1      -3.742   1.806   1.559  0.00  0.00    +0.149 HD
BRANCH   6  19
ATOM     19  C   UNL     1      -3.008   3.220   0.170  0.00  0.00    +0.139 C 
BRANCH  19  20
ATOM      3  O   UNL     1       1.510   3.195  -1.843  0.00  0.00    -0.453 OA
ATOM      4  O   UNL     1       2.594   3.380   0.301  0.00  0.00    -0.453 OA
ATOM     20  C   UNL     1      -1.509   3.263   0.243  0.00  0.00    -0.027 A 
ATOM     22  C   UNL     1      -0.755   3.200  -0.932  0.00  0.00    +0.054 A 
ATOM     23  C   UNL     1      -0.876   3.371   1.493  0.00  0.00    +0.009 A 
ATOM     26  C   UNL     1       0.619   3.246  -0.815  0.00  0.00    +0.167 A 
ATOM     27  C   UNL     1       1.238   3.351   0.409  0.00  0.00    +0.166 A 
ATOM     28  C   UNL     1       0.518   3.416   1.584  0.00  0.00    +0.050 A 
ATOM     31  C   UNL     1       2.759   3.281  -1.128  0.00  0.00    +0.466 C 
ENDBRANCH  19  20
ENDBRANCH   6  19
ENDBRANCH  14  16
ENDBRANCH   8  14
TORSDOF 7
