MODEL 1
REMARK VINA RESULT:      -6.7      0.000      0.000
REMARK  Name = 75536594
REMARK  6 active torsions:
REMARK  status: ('A' for Active; 'I' for Inactive)
REMARK    1  A    between atoms: O_3  and  C_9
REMARK    2  A    between atoms: N_5  and  C_8
REMARK    3  A    between atoms: N_5  and  C_10
REMARK    4  A    between atoms: N_7  and  C_17
REMARK    5  A    between atoms: C_11  and  C_17
REMARK    6  A    between atoms: C_18  and  C_19
REMARK                            x       y       z     vdW  Elec       q    Type
REMARK                         _______ _______ _______ _____ _____    ______ ____
ROOT
ATOM      2  O   UNL     1      10.639   7.522  20.918  0.00  0.00    -0.371 OA
ATOM      8  C   UNL     1      11.612   9.430  21.945  0.00  0.00    +0.111 C 
ATOM      9  C   UNL     1      12.640   8.775  21.040  0.00  0.00    +0.164 C 
ATOM     11  C   UNL     1      11.744   7.966  20.113  0.00  0.00    +0.165 C 
ATOM     12  C   UNL     1      10.610   8.302  22.127  0.00  0.00    +0.181 C 
ENDROOT
BRANCH   9   3
ATOM      3  O   UNL     1      13.421   9.718  20.331  0.00  0.00    -0.388 OA
ATOM     25  H   UNL     1      14.104  10.062  20.931  0.00  0.00    +0.210 HD
ENDBRANCH   9   3
BRANCH   8   5
ATOM      5  N   UNL     1      12.161   9.907  23.203  0.00  0.00    -0.306 NA
ATOM     23  H   UNL     1      13.173   9.779  23.216  0.00  0.00    +0.123 HD
BRANCH   5  10
ATOM      6  N   UNL     1       9.843  13.457  23.556  0.00  0.00    -0.316 NA
ATOM     10  C   UNL     1      11.841  11.317  23.408  0.00  0.00    +0.056 C 
ATOM     13  C   UNL     1      11.169  11.896  22.158  0.00  0.00    +0.034 C 
ATOM     14  C   UNL     1      10.932  11.503  24.629  0.00  0.00    +0.034 C 
ATOM     15  C   UNL     1      10.729  13.341  22.395  0.00  0.00    +0.082 C 
ATOM     16  C   UNL     1      10.501  12.964  24.769  0.00  0.00    +0.082 C 
ATOM     24  H   UNL     1       9.588  14.435  23.688  0.00  0.00    +0.122 HD
ENDBRANCH   5  10
ENDBRANCH   8   5
BRANCH  11  17
ATOM     17  C   UNL     1      12.443   6.770  19.494  0.00  0.00    +0.138 C 
BRANCH  17   7
ATOM      4  O   UNL     1      14.829   7.266  17.978  0.00  0.00    -0.270 OA
ATOM      7  N   UNL     1      13.794   6.655  19.961  0.00  0.00    -0.308 N 
ATOM     18  C   UNL     1      14.896   6.917  19.153  0.00  0.00    +0.251 C 
ATOM     26  H   UNL     1      13.925   6.355  20.922  0.00  0.00    +0.149 HD
BRANCH  18  19
ATOM      1  S   UNL     1      17.397   5.765  18.975  0.00  0.00    -0.092 S 
ATOM     19  C   UNL     1      16.229   6.724  19.779  0.00  0.00    +0.074 A 
ATOM     20  C   UNL     1      16.705   7.225  20.971  0.00  0.00    +0.021 A 
ATOM     21  C   UNL     1      18.045   6.815  21.228  0.00  0.00    +0.008 A 
ATOM     22  C   UNL     1      18.543   6.016  20.222  0.00  0.00    +0.046 A 
ENDBRANCH  18  19
ENDBRANCH  17   7
ENDBRANCH  11  17
TORSDOF 6
ENDMDL
MODEL 2
REMARK VINA RESULT:      -6.7      3.459      5.161
REMARK  Name = 75536594
REMARK  6 active torsions:
REMARK  status: ('A' for Active; 'I' for Inactive)
REMARK    1  A    between atoms: O_3  and  C_9
REMARK    2  A    between atoms: N_5  and  C_8
REMARK    3  A    between atoms: N_5  and  C_10
REMARK    4  A    between atoms: N_7  and  C_17
REMARK    5  A    between atoms: C_11  and  C_17
REMARK    6  A    between atoms: C_18  and  C_19
REMARK                            x       y       z     vdW  Elec       q    Type
REMARK                         _______ _______ _______ _____ _____    ______ ____
ROOT
ATOM      2  O   UNL     1      12.281   9.087  21.604  0.00  0.00    -0.371 OA
ATOM      8  C   UNL     1      12.165   7.210  20.154  0.00  0.00    +0.111 C 
ATOM      9  C   UNL     1      13.592   7.368  20.647  0.00  0.00    +0.164 C 
ATOM     11  C   UNL     1      13.379   8.207  21.899  0.00  0.00    +0.165 C 
ATOM     12  C   UNL     1      11.593   8.588  20.444  0.00  0.00    +0.181 C 
ENDROOT
BRANCH   9   3
ATOM      3  O   UNL     1      14.208   6.128  20.941  0.00  0.00    -0.388 OA
ATOM     25  H   UNL     1      13.511   5.483  21.150  0.00  0.00    +0.210 HD
ENDBRANCH   9   3
BRANCH   8   5
ATOM      5  N   UNL     1      12.070   6.842  18.751  0.00  0.00    -0.306 NA
ATOM     23  H   UNL     1      11.116   6.558  18.527  0.00  0.00    +0.123 HD
BRANCH   5  10
ATOM      6  N   UNL     1      13.033   9.008  15.217  0.00  0.00    -0.316 NA
ATOM     10  C   UNL     1      12.466   7.957  17.894  0.00  0.00    +0.056 C 
ATOM     13  C   UNL     1      13.754   7.616  17.139  0.00  0.00    +0.034 C 
ATOM     14  C   UNL     1      11.351   8.311  16.902  0.00  0.00    +0.034 C 
ATOM     15  C   UNL     1      14.122   8.729  16.157  0.00  0.00    +0.082 C 
ATOM     16  C   UNL     1      11.813   9.397  15.929  0.00  0.00    +0.082 C 
ATOM     24  H   UNL     1      13.313   9.764  14.594  0.00  0.00    +0.122 HD
ENDBRANCH   5  10
ENDBRANCH   8   5
BRANCH  11  17
ATOM     17  C   UNL     1      14.599   9.022  22.291  0.00  0.00    +0.138 C 
BRANCH  17   7
ATOM      4  O   UNL     1      16.731   9.641  20.471  0.00  0.00    -0.270 OA
ATOM      7  N   UNL     1      15.808   8.275  22.103  0.00  0.00    -0.308 N 
ATOM     18  C   UNL     1      16.793   8.650  21.194  0.00  0.00    +0.251 C 
ATOM     26  H   UNL     1      15.920   7.433  22.658  0.00  0.00    +0.149 HD
BRANCH  18  19
ATOM      1  S   UNL     1      19.398   8.159  21.959  0.00  0.00    -0.092 S 
ATOM     19  C   UNL     1      17.974   7.754  21.099  0.00  0.00    +0.074 A 
ATOM     20  C   UNL     1      18.114   6.582  20.390  0.00  0.00    +0.021 A 
ATOM     21  C   UNL     1      19.408   6.008  20.554  0.00  0.00    +0.008 A 
ATOM     22  C   UNL     1      20.207   6.764  21.383  0.00  0.00    +0.046 A 
ENDBRANCH  18  19
ENDBRANCH  17   7
ENDBRANCH  11  17
TORSDOF 6
ENDMDL
MODEL 3
REMARK VINA RESULT:      -6.3      2.956      6.878
REMARK  Name = 75536594
REMARK  6 active torsions:
REMARK  status: ('A' for Active; 'I' for Inactive)
REMARK    1  A    between atoms: O_3  and  C_9
REMARK    2  A    between atoms: N_5  and  C_8
REMARK    3  A    between atoms: N_5  and  C_10
REMARK    4  A    between atoms: N_7  and  C_17
REMARK    5  A    between atoms: C_11  and  C_17
REMARK    6  A    between atoms: C_18  and  C_19
REMARK                            x       y       z     vdW  Elec       q    Type
REMARK                         _______ _______ _______ _____ _____    ______ ____
ROOT
ATOM      2  O   UNL     1      10.570   8.519  20.007  0.00  0.00    -0.371 OA
ATOM      8  C   UNL     1      12.423   7.206  19.313  0.00  0.00    +0.111 C 
ATOM      9  C   UNL     1      12.276   7.098  20.819  0.00  0.00    +0.164 C 
ATOM     11  C   UNL     1      10.824   7.515  21.004  0.00  0.00    +0.165 C 
ATOM     12  C   UNL     1      11.616   8.460  19.021  0.00  0.00    +0.181 C 
ENDROOT
BRANCH   9   3
ATOM      3  O   UNL     1      12.514   5.788  21.298  0.00  0.00    -0.388 OA
ATOM     25  H   UNL     1      11.875   5.189  20.877  0.00  0.00    +0.210 HD
ENDBRANCH   9   3
BRANCH   8   5
ATOM      5  N   UNL     1      13.803   7.305  18.866  0.00  0.00    -0.306 NA
ATOM     23  H   UNL     1      13.902   8.070  18.199  0.00  0.00    +0.123 HD
BRANCH   5  10
ATOM      6  N   UNL     1      17.396   8.052  21.019  0.00  0.00    -0.316 NA
ATOM     10  C   UNL     1      14.700   7.521  19.998  0.00  0.00    +0.056 C 
ATOM     13  C   UNL     1      15.790   6.444  20.024  0.00  0.00    +0.034 C 
ATOM     14  C   UNL     1      15.337   8.914  19.938  0.00  0.00    +0.034 C 
ATOM     15  C   UNL     1      16.801   6.719  21.139  0.00  0.00    +0.082 C 
ATOM     16  C   UNL     1      16.365   9.092  21.056  0.00  0.00    +0.082 C 
ATOM     24  H   UNL     1      18.049   8.199  21.788  0.00  0.00    +0.122 HD
ENDBRANCH   5  10
ENDBRANCH   8   5
BRANCH  11  17
ATOM     17  C   UNL     1      10.530   8.076  22.384  0.00  0.00    +0.138 C 
BRANCH  17   7
ATOM      4  O   UNL     1      12.616  10.013  22.752  0.00  0.00    -0.270 OA
ATOM      7  N   UNL     1      10.390   9.503  22.349  0.00  0.00    -0.308 N 
ATOM     18  C   UNL     1      11.461  10.370  22.538  0.00  0.00    +0.251 C 
ATOM     26  H   UNL     1       9.457   9.869  22.191  0.00  0.00    +0.149 HD
BRANCH  18  19
ATOM      1  S   UNL     1      10.605  12.594  23.929  0.00  0.00    -0.092 S 
ATOM     19  C   UNL     1      11.144  11.821  22.500  0.00  0.00    +0.074 A 
ATOM     20  C   UNL     1      11.222  12.695  21.438  0.00  0.00    +0.021 A 
ATOM     21  C   UNL     1      10.833  14.016  21.802  0.00  0.00    +0.008 A 
ATOM     22  C   UNL     1      10.473  14.102  23.128  0.00  0.00    +0.046 A 
ENDBRANCH  18  19
ENDBRANCH  17   7
ENDBRANCH  11  17
TORSDOF 6
ENDMDL
MODEL 4
REMARK VINA RESULT:      -6.2     25.909     27.492
REMARK  Name = 75536594
REMARK  6 active torsions:
REMARK  status: ('A' for Active; 'I' for Inactive)
REMARK    1  A    between atoms: O_3  and  C_9
REMARK    2  A    between atoms: N_5  and  C_8
REMARK    3  A    between atoms: N_5  and  C_10
REMARK    4  A    between atoms: N_7  and  C_17
REMARK    5  A    between atoms: C_11  and  C_17
REMARK    6  A    between atoms: C_18  and  C_19
REMARK                            x       y       z     vdW  Elec       q    Type
REMARK                         _______ _______ _______ _____ _____    ______ ____
ROOT
ATOM      2  O   UNL     1      -1.248 -11.342  15.203  0.00  0.00    -0.371 OA
ATOM      8  C   UNL     1      -3.442 -11.098  16.079  0.00  0.00    +0.111 C 
ATOM      9  C   UNL     1      -3.519 -11.807  14.739  0.00  0.00    +0.164 C 
ATOM     11  C   UNL     1      -2.098 -12.334  14.603  0.00  0.00    +0.165 C 
ATOM     12  C   UNL     1      -2.060 -10.469  16.007  0.00  0.00    +0.181 C 
ENDROOT
BRANCH   9   3
ATOM      3  O   UNL     1      -4.473 -12.851  14.729  0.00  0.00    -0.388 OA
ATOM     25  H   UNL     1      -4.391 -13.331  13.887  0.00  0.00    +0.210 HD
ENDBRANCH   9   3
BRANCH   8   5
ATOM      5  N   UNL     1      -4.498 -10.121  16.284  0.00  0.00    -0.306 NA
ATOM     23  H   UNL     1      -4.919  -9.866  15.391  0.00  0.00    +0.123 HD
BRANCH   5  10
ATOM      6  N   UNL     1      -7.164 -10.353  19.592  0.00  0.00    -0.316 NA
ATOM     10  C   UNL     1      -5.524 -10.647  17.181  0.00  0.00    +0.056 C 
ATOM     13  C   UNL     1      -4.950 -10.845  18.587  0.00  0.00    +0.034 C 
ATOM     14  C   UNL     1      -6.740  -9.714  17.234  0.00  0.00    +0.034 C 
ATOM     15  C   UNL     1      -6.040 -11.293  19.563  0.00  0.00    +0.082 C 
ATOM     16  C   UNL     1      -7.759 -10.206  18.262  0.00  0.00    +0.082 C 
ATOM     24  H   UNL     1      -7.872 -10.697  20.240  0.00  0.00    +0.122 HD
ENDBRANCH   5  10
ENDBRANCH   8   5
BRANCH  11  17
ATOM     17  C   UNL     1      -1.678 -12.566  13.162  0.00  0.00    +0.138 C 
BRANCH  17   7
ATOM      4  O   UNL     1      -1.407  -9.999  11.906  0.00  0.00    -0.270 OA
ATOM      7  N   UNL     1      -2.599 -11.960  12.246  0.00  0.00    -0.308 N 
ATOM     18  C   UNL     1      -2.386 -10.706  11.682  0.00  0.00    +0.251 C 
ATOM     26  H   UNL     1      -3.441 -12.482  12.026  0.00  0.00    +0.149 HD
BRANCH  18  19
ATOM      1  S   UNL     1      -4.988 -10.956  10.799  0.00  0.00    -0.092 S 
ATOM     19  C   UNL     1      -3.449 -10.207  10.772  0.00  0.00    +0.074 A 
ATOM     20  C   UNL     1      -3.392  -9.176   9.860  0.00  0.00    +0.021 A 
ATOM     21  C   UNL     1      -4.628  -9.000   9.173  0.00  0.00    +0.008 A 
ATOM     22  C   UNL     1      -5.583  -9.903   9.586  0.00  0.00    +0.046 A 
ENDBRANCH  18  19
ENDBRANCH  17   7
ENDBRANCH  11  17
TORSDOF 6
ENDMDL
MODEL 5
REMARK VINA RESULT:      -6.2      1.722      2.073
REMARK  Name = 75536594
REMARK  6 active torsions:
REMARK  status: ('A' for Active; 'I' for Inactive)
REMARK    1  A    between atoms: O_3  and  C_9
REMARK    2  A    between atoms: N_5  and  C_8
REMARK    3  A    between atoms: N_5  and  C_10
REMARK    4  A    between atoms: N_7  and  C_17
REMARK    5  A    between atoms: C_11  and  C_17
REMARK    6  A    between atoms: C_18  and  C_19
REMARK                            x       y       z     vdW  Elec       q    Type
REMARK                         _______ _______ _______ _____ _____    ______ ____
ROOT
ATOM      2  O   UNL     1      13.166   6.953  21.009  0.00  0.00    -0.371 OA
ATOM      8  C   UNL     1      11.091   8.107  21.042  0.00  0.00    +0.111 C 
ATOM      9  C   UNL     1      11.762   8.331  19.699  0.00  0.00    +0.164 C 
ATOM     11  C   UNL     1      12.732   7.159  19.655  0.00  0.00    +0.165 C 
ATOM     12  C   UNL     1      12.264   7.645  21.890  0.00  0.00    +0.181 C 
ENDROOT
BRANCH   9   3
ATOM      3  O   UNL     1      10.847   8.301  18.620  0.00  0.00    -0.388 OA
ATOM     25  H   UNL     1      11.327   8.026  17.821  0.00  0.00    +0.210 HD
ENDBRANCH   9   3
BRANCH   8   5
ATOM      5  N   UNL     1      10.440   9.293  21.574  0.00  0.00    -0.306 NA
ATOM     23  H   UNL     1       9.694   9.025  22.215  0.00  0.00    +0.123 HD
BRANCH   5  10
ATOM      6  N   UNL     1      12.064  12.718  23.507  0.00  0.00    -0.316 NA
ATOM     10  C   UNL     1      11.403  10.145  22.268  0.00  0.00    +0.056 C 
ATOM     13  C   UNL     1      11.695  11.400  21.439  0.00  0.00    +0.034 C 
ATOM     14  C   UNL     1      10.887  10.540  23.657  0.00  0.00    +0.034 C 
ATOM     15  C   UNL     1      12.616  12.354  22.200  0.00  0.00    +0.082 C 
ATOM     16  C   UNL     1      11.840  11.528  24.331  0.00  0.00    +0.082 C 
ATOM     24  H   UNL     1      12.715  13.339  23.986  0.00  0.00    +0.122 HD
ENDBRANCH   5  10
ENDBRANCH   8   5
BRANCH  11  17
ATOM     17  C   UNL     1      13.934   7.406  18.761  0.00  0.00    +0.138 C 
BRANCH  17   7
ATOM      4  O   UNL     1      16.297   5.786  18.579  0.00  0.00    -0.270 OA
ATOM      7  N   UNL     1      15.135   7.554  19.531  0.00  0.00    -0.308 N 
ATOM     18  C   UNL     1      16.237   6.720  19.375  0.00  0.00    +0.251 C 
ATOM     26  H   UNL     1      15.150   8.298  20.220  0.00  0.00    +0.149 HD
BRANCH  18  19
ATOM      1  S   UNL     1      17.387   8.398  21.239  0.00  0.00    -0.092 S 
ATOM     19  C   UNL     1      17.394   6.988  20.268  0.00  0.00    +0.074 A 
ATOM     20  C   UNL     1      18.535   6.240  20.451  0.00  0.00    +0.021 A 
ATOM     21  C   UNL     1      19.417   6.832  21.401  0.00  0.00    +0.008 A 
ATOM     22  C   UNL     1      18.915   8.010  21.908  0.00  0.00    +0.046 A 
ENDBRANCH  18  19
ENDBRANCH  17   7
ENDBRANCH  11  17
TORSDOF 6
ENDMDL
MODEL 6
REMARK VINA RESULT:      -5.9      3.525      8.461
REMARK  Name = 75536594
REMARK  6 active torsions:
REMARK  status: ('A' for Active; 'I' for Inactive)
REMARK    1  A    between atoms: O_3  and  C_9
REMARK    2  A    between atoms: N_5  and  C_8
REMARK    3  A    between atoms: N_5  and  C_10
REMARK    4  A    between atoms: N_7  and  C_17
REMARK    5  A    between atoms: C_11  and  C_17
REMARK    6  A    between atoms: C_18  and  C_19
REMARK                            x       y       z     vdW  Elec       q    Type
REMARK                         _______ _______ _______ _____ _____    ______ ____
ROOT
ATOM      2  O   UNL     1      16.571   5.614  18.601  0.00  0.00    -0.371 OA
ATOM      8  C   UNL     1      18.056   6.200  20.360  0.00  0.00    +0.111 C 
ATOM      9  C   UNL     1      16.953   7.239  20.276  0.00  0.00    +0.164 C 
ATOM     11  C   UNL     1      15.876   6.466  19.527  0.00  0.00    +0.165 C 
ATOM     12  C   UNL     1      17.953   5.541  18.994  0.00  0.00    +0.181 C 
ENDROOT
BRANCH   9   3
ATOM      3  O   UNL     1      16.507   7.667  21.548  0.00  0.00    -0.388 OA
ATOM     25  H   UNL     1      16.154   8.568  21.461  0.00  0.00    +0.210 HD
ENDBRANCH   9   3
BRANCH   8   5
ATOM      5  N   UNL     1      19.370   6.764  20.618  0.00  0.00    -0.306 NA
ATOM     23  H   UNL     1      19.279   7.702  21.007  0.00  0.00    +0.123 HD
BRANCH   5  10
ATOM      6  N   UNL     1      22.700   4.977  22.574  0.00  0.00    -0.316 NA
ATOM     10  C   UNL     1      20.123   5.920  21.543  0.00  0.00    +0.056 C 
ATOM     13  C   UNL     1      21.003   4.935  20.766  0.00  0.00    +0.034 C 
ATOM     14  C   UNL     1      20.987   6.769  22.484  0.00  0.00    +0.034 C 
ATOM     15  C   UNL     1      21.879   4.118  21.717  0.00  0.00    +0.082 C 
ATOM     16  C   UNL     1      21.864   5.881  23.368  0.00  0.00    +0.082 C 
ATOM     24  H   UNL     1      23.254   4.395  23.201  0.00  0.00    +0.122 HD
ENDBRANCH   5  10
ENDBRANCH   8   5
BRANCH  11  17
ATOM     17  C   UNL     1      14.906   7.359  18.775  0.00  0.00    +0.138 C 
BRANCH  17   7
ATOM      4  O   UNL     1      12.233   6.667  19.558  0.00  0.00    -0.270 OA
ATOM      7  N   UNL     1      14.062   8.088  19.677  0.00  0.00    -0.308 N 
ATOM     18  C   UNL     1      12.773   7.677  20.001  0.00  0.00    +0.251 C 
ATOM     26  H   UNL     1      14.439   8.944  20.070  0.00  0.00    +0.149 HD
BRANCH  18  19
ATOM      1  S   UNL     1      10.855   7.862  21.975  0.00  0.00    -0.092 S 
ATOM     19  C   UNL     1      12.017   8.558  20.928  0.00  0.00    +0.074 A 
ATOM     20  C   UNL     1      12.109   9.922  21.092  0.00  0.00    +0.021 A 
ATOM     21  C   UNL     1      11.213  10.404  22.088  0.00  0.00    +0.008 A 
ATOM     22  C   UNL     1      10.469   9.388  22.650  0.00  0.00    +0.046 A 
ENDBRANCH  18  19
ENDBRANCH  17   7
ENDBRANCH  11  17
TORSDOF 6
ENDMDL
MODEL 7
REMARK VINA RESULT:      -5.9      4.078      6.686
REMARK  Name = 75536594
REMARK  6 active torsions:
REMARK  status: ('A' for Active; 'I' for Inactive)
REMARK    1  A    between atoms: O_3  and  C_9
REMARK    2  A    between atoms: N_5  and  C_8
REMARK    3  A    between atoms: N_5  and  C_10
REMARK    4  A    between atoms: N_7  and  C_17
REMARK    5  A    between atoms: C_11  and  C_17
REMARK    6  A    between atoms: C_18  and  C_19
REMARK                            x       y       z     vdW  Elec       q    Type
REMARK                         _______ _______ _______ _____ _____    ______ ____
ROOT
ATOM      2  O   UNL     1      18.563   6.102  19.705  0.00  0.00    -0.371 OA
ATOM      8  C   UNL     1      16.290   6.744  19.949  0.00  0.00    +0.111 C 
ATOM      9  C   UNL     1      16.999   6.916  21.280  0.00  0.00    +0.164 C 
ATOM     11  C   UNL     1      18.452   6.987  20.832  0.00  0.00    +0.165 C 
ATOM     12  C   UNL     1      17.241   5.809  19.220  0.00  0.00    +0.181 C 
ENDROOT
BRANCH   9   3
ATOM      3  O   UNL     1      16.599   8.088  21.964  0.00  0.00    -0.388 OA
ATOM     25  H   UNL     1      17.338   8.719  21.944  0.00  0.00    +0.210 HD
ENDBRANCH   9   3
BRANCH   8   5
ATOM      5  N   UNL     1      14.946   6.202  20.069  0.00  0.00    -0.306 NA
ATOM     23  H   UNL     1      14.840   5.721  20.961  0.00  0.00    +0.123 HD
BRANCH   5  10
ATOM      6  N   UNL     1      11.198   8.094  19.379  0.00  0.00    -0.316 NA
ATOM     10  C   UNL     1      13.948   7.263  19.960  0.00  0.00    +0.056 C 
ATOM     13  C   UNL     1      13.401   7.334  18.531  0.00  0.00    +0.034 C 
ATOM     14  C   UNL     1      12.801   7.043  20.953  0.00  0.00    +0.034 C 
ATOM     15  C   UNL     1      12.278   8.367  18.428  0.00  0.00    +0.082 C 
ATOM     16  C   UNL     1      11.701   8.087  20.755  0.00  0.00    +0.082 C 
ATOM     24  H   UNL     1      10.481   8.813  19.289  0.00  0.00    +0.122 HD
ENDBRANCH   5  10
ENDBRANCH   8   5
BRANCH  11  17
ATOM     17  C   UNL     1      19.435   6.571  21.911  0.00  0.00    +0.138 C 
BRANCH  17   7
ATOM      4  O   UNL     1      21.418   5.120  23.396  0.00  0.00    -0.270 OA
ATOM      7  N   UNL     1      20.501   5.779  21.370  0.00  0.00    -0.308 N 
ATOM     18  C   UNL     1      21.421   5.106  22.167  0.00  0.00    +0.251 C 
ATOM     26  H   UNL     1      20.573   5.735  20.359  0.00  0.00    +0.149 HD
BRANCH  18  19
ATOM      1  S   UNL     1      23.623   5.211  20.509  0.00  0.00    -0.092 S 
ATOM     19  C   UNL     1      22.482   4.352  21.452  0.00  0.00    +0.074 A 
ATOM     20  C   UNL     1      22.709   2.993  21.427  0.00  0.00    +0.021 A 
ATOM     21  C   UNL     1      23.833   2.653  20.622  0.00  0.00    +0.008 A 
ATOM     22  C   UNL     1      24.424   3.765  20.062  0.00  0.00    +0.046 A 
ENDBRANCH  18  19
ENDBRANCH  17   7
ENDBRANCH  11  17
TORSDOF 6
ENDMDL
MODEL 8
REMARK VINA RESULT:      -5.7     26.297     28.207
REMARK  Name = 75536594
REMARK  6 active torsions:
REMARK  status: ('A' for Active; 'I' for Inactive)
REMARK    1  A    between atoms: O_3  and  C_9
REMARK    2  A    between atoms: N_5  and  C_8
REMARK    3  A    between atoms: N_5  and  C_10
REMARK    4  A    between atoms: N_7  and  C_17
REMARK    5  A    between atoms: C_11  and  C_17
REMARK    6  A    between atoms: C_18  and  C_19
REMARK                            x       y       z     vdW  Elec       q    Type
REMARK                         _______ _______ _______ _____ _____    ______ ____
ROOT
ATOM      2  O   UNL     1      -8.503 -11.054  18.791  0.00  0.00    -0.371 OA
ATOM      8  C   UNL     1      -9.153  -9.234  17.410  0.00  0.00    +0.111 C 
ATOM      9  C   UNL     1      -7.638  -9.321  17.435  0.00  0.00    +0.164 C 
ATOM     11  C   UNL     1      -7.433 -10.763  17.876  0.00  0.00    +0.165 C 
ATOM     12  C   UNL     1      -9.521 -10.049  18.639  0.00  0.00    +0.181 C 
ENDROOT
BRANCH   9   3
ATOM      3  O   UNL     1      -7.056  -9.068  16.170  0.00  0.00    -0.388 OA
ATOM     25  H   UNL     1      -7.269  -8.155  15.914  0.00  0.00    +0.210 HD
ENDBRANCH   9   3
BRANCH   8   5
ATOM      5  N   UNL     1      -9.661  -7.873  17.461  0.00  0.00    -0.306 NA
ATOM     23  H   UNL     1      -8.890  -7.209  17.405  0.00  0.00    +0.123 HD
BRANCH   5  10
ATOM      6  N   UNL     1     -13.150  -6.529  15.430  0.00  0.00    -0.316 NA
ATOM     10  C   UNL     1     -10.601  -7.630  16.369  0.00  0.00    +0.056 C 
ATOM     13  C   UNL     1     -11.942  -8.311  16.661  0.00  0.00    +0.034 C 
ATOM     14  C   UNL     1     -10.811  -6.127  16.149  0.00  0.00    +0.034 C 
ATOM     15  C   UNL     1     -12.971  -7.975  15.581  0.00  0.00    +0.082 C 
ATOM     16  C   UNL     1     -11.884  -5.876  15.088  0.00  0.00    +0.082 C 
ATOM     24  H   UNL     1     -13.829  -6.350  14.691  0.00  0.00    +0.122 HD
ENDBRANCH   5  10
ENDBRANCH   8   5
BRANCH  11  17
ATOM     17  C   UNL     1      -6.097 -11.000  18.557  0.00  0.00    +0.138 C 
BRANCH  17   7
ATOM      4  O   UNL     1      -4.946 -12.651  16.510  0.00  0.00    -0.270 OA
ATOM      7  N   UNL     1      -5.003 -10.657  17.694  0.00  0.00    -0.308 N 
ATOM     18  C   UNL     1      -4.508 -11.524  16.725  0.00  0.00    +0.251 C 
ATOM     26  H   UNL     1      -4.582  -9.744  17.826  0.00  0.00    +0.149 HD
BRANCH  18  19
ATOM      1  S   UNL     1      -3.509 -10.892  14.231  0.00  0.00    -0.092 S 
ATOM     19  C   UNL     1      -3.354 -11.029  15.931  0.00  0.00    +0.074 A 
ATOM     20  C   UNL     1      -2.108 -10.640  16.369  0.00  0.00    +0.021 A 
ATOM     21  C   UNL     1      -1.269 -10.223  15.296  0.00  0.00    +0.008 A 
ATOM     22  C   UNL     1      -1.906 -10.311  14.077  0.00  0.00    +0.046 A 
ENDBRANCH  18  19
ENDBRANCH  17   7
ENDBRANCH  11  17
TORSDOF 6
ENDMDL
MODEL 9
REMARK VINA RESULT:      -5.7      3.540      8.421
REMARK  Name = 75536594
REMARK  6 active torsions:
REMARK  status: ('A' for Active; 'I' for Inactive)
REMARK    1  A    between atoms: O_3  and  C_9
REMARK    2  A    between atoms: N_5  and  C_8
REMARK    3  A    between atoms: N_5  and  C_10
REMARK    4  A    between atoms: N_7  and  C_17
REMARK    5  A    between atoms: C_11  and  C_17
REMARK    6  A    between atoms: C_18  and  C_19
REMARK                            x       y       z     vdW  Elec       q    Type
REMARK                         _______ _______ _______ _____ _____    ______ ____
ROOT
ATOM      2  O   UNL     1      16.500   8.333  20.558  0.00  0.00    -0.371 OA
ATOM      8  C   UNL     1      18.551   7.342  21.228  0.00  0.00    +0.111 C 
ATOM      9  C   UNL     1      17.715   6.306  20.500  0.00  0.00    +0.164 C 
ATOM     11  C   UNL     1      16.759   7.196  19.718  0.00  0.00    +0.165 C 
ATOM     12  C   UNL     1      17.498   8.376  21.593  0.00  0.00    +0.181 C 
ENDROOT
BRANCH   9   3
ATOM      3  O   UNL     1      18.487   5.483  19.646  0.00  0.00    -0.388 OA
ATOM     25  H   UNL     1      17.910   5.150  18.939  0.00  0.00    +0.210 HD
ENDBRANCH   9   3
BRANCH   8   5
ATOM      5  N   UNL     1      19.252   6.816  22.388  0.00  0.00    -0.306 NA
ATOM     23  H   UNL     1      18.914   5.879  22.607  0.00  0.00    +0.123 HD
BRANCH   5  10
ATOM      6  N   UNL     1      22.950   6.029  20.436  0.00  0.00    -0.316 NA
ATOM     10  C   UNL     1      20.692   6.777  22.150  0.00  0.00    +0.056 C 
ATOM     13  C   UNL     1      21.170   5.328  22.015  0.00  0.00    +0.034 C 
ATOM     14  C   UNL     1      21.064   7.573  20.893  0.00  0.00    +0.034 C 
ATOM     15  C   UNL     1      22.656   5.274  21.657  0.00  0.00    +0.082 C 
ATOM     16  C   UNL     1      22.554   7.432  20.579  0.00  0.00    +0.082 C 
ATOM     24  H   UNL     1      23.950   5.981  20.244  0.00  0.00    +0.122 HD
ENDBRANCH   5  10
ENDBRANCH   8   5
BRANCH  11  17
ATOM     17  C   UNL     1      15.452   6.511  19.364  0.00  0.00    +0.138 C 
BRANCH  17   7
ATOM      4  O   UNL     1      12.676   6.756  18.677  0.00  0.00    -0.270 OA
ATOM      7  N   UNL     1      14.389   6.932  20.230  0.00  0.00    -0.308 N 
ATOM     18  C   UNL     1      13.066   7.022  19.811  0.00  0.00    +0.251 C 
ATOM     26  H   UNL     1      14.642   7.183  21.180  0.00  0.00    +0.149 HD
BRANCH  18  19
ATOM      1  S   UNL     1      12.185   9.120  21.370  0.00  0.00    -0.092 S 
ATOM     19  C   UNL     1      12.089   7.501  20.821  0.00  0.00    +0.074 A 
ATOM     20  C   UNL     1      11.057   6.813  21.420  0.00  0.00    +0.021 A 
ATOM     21  C   UNL     1      10.336   7.625  22.343  0.00  0.00    +0.008 A 
ATOM     22  C   UNL     1      10.845   8.903  22.414  0.00  0.00    +0.046 A 
ENDBRANCH  18  19
ENDBRANCH  17   7
ENDBRANCH  11  17
TORSDOF 6
ENDMDL
MODEL 10
REMARK VINA RESULT:      -5.6      4.795      7.626
REMARK  Name = 75536594
REMARK  6 active torsions:
REMARK  status: ('A' for Active; 'I' for Inactive)
REMARK    1  A    between atoms: O_3  and  C_9
REMARK    2  A    between atoms: N_5  and  C_8
REMARK    3  A    between atoms: N_5  and  C_10
REMARK    4  A    between atoms: N_7  and  C_17
REMARK    5  A    between atoms: C_11  and  C_17
REMARK    6  A    between atoms: C_18  and  C_19
REMARK                            x       y       z     vdW  Elec       q    Type
REMARK                         _______ _______ _______ _____ _____    ______ ____
ROOT
ATOM      2  O   UNL     1      18.851   6.628  21.888  0.00  0.00    -0.371 OA
ATOM      8  C   UNL     1      17.031   6.678  20.363  0.00  0.00    +0.111 C 
ATOM      9  C   UNL     1      18.281   6.230  19.628  0.00  0.00    +0.164 C 
ATOM     11  C   UNL     1      19.149   5.756  20.785  0.00  0.00    +0.165 C 
ATOM     12  C   UNL     1      17.626   7.327  21.601  0.00  0.00    +0.181 C 
ENDROOT
BRANCH   9   3
ATOM      3  O   UNL     1      18.027   5.194  18.699  0.00  0.00    -0.388 OA
ATOM     25  H   UNL     1      18.786   5.132  18.095  0.00  0.00    +0.210 HD
ENDBRANCH   9   3
BRANCH   8   5
ATOM      5  N   UNL     1      16.196   7.586  19.595  0.00  0.00    -0.306 NA
ATOM     23  H   UNL     1      16.615   7.760  18.681  0.00  0.00    +0.123 HD
BRANCH   5  10
ATOM      6  N   UNL     1      11.949   7.428  19.391  0.00  0.00    -0.316 NA
ATOM     10  C   UNL     1      14.853   7.036  19.423  0.00  0.00    +0.056 C 
ATOM     13  C   UNL     1      14.039   7.213  20.709  0.00  0.00    +0.034 C 
ATOM     14  C   UNL     1      14.131   7.703  18.246  0.00  0.00    +0.034 C 
ATOM     15  C   UNL     1      12.598   6.741  20.511  0.00  0.00    +0.082 C 
ATOM     16  C   UNL     1      12.687   7.213  18.144  0.00  0.00    +0.082 C 
ATOM     24  H   UNL     1      10.999   7.074  19.284  0.00  0.00    +0.122 HD
ENDBRANCH   5  10
ENDBRANCH   8   5
BRANCH  11  17
ATOM     17  C   UNL     1      20.635   5.801  20.481  0.00  0.00    +0.138 C 
BRANCH  17   7
ATOM      4  O   UNL     1      23.413   5.151  20.163  0.00  0.00    -0.270 OA
ATOM      7  N   UNL     1      21.314   4.658  21.018  0.00  0.00    -0.308 N 
ATOM     18  C   UNL     1      22.669   4.421  20.814  0.00  0.00    +0.251 C 
ATOM     26  H   UNL     1      20.756   4.003  21.556  0.00  0.00    +0.149 HD
BRANCH  18  19
ATOM      1  S   UNL     1      23.017   2.907  23.094  0.00  0.00    -0.092 S 
ATOM     19  C   UNL     1      23.216   3.177  21.415  0.00  0.00    +0.074 A 
ATOM     20  C   UNL     1      23.893   2.147  20.802  0.00  0.00    +0.021 A 
ATOM     21  C   UNL     1      24.256   1.122  21.722  0.00  0.00    +0.008 A 
ATOM     22  C   UNL     1      23.841   1.408  23.004  0.00  0.00    +0.046 A 
ENDBRANCH  18  19
ENDBRANCH  17   7
ENDBRANCH  11  17
TORSDOF 6
ENDMDL
