MODEL 1
REMARK VINA RESULT:      -6.0      0.000      0.000
REMARK  Name = 71693206
REMARK  16 active torsions:
REMARK  status: ('A' for Active; 'I' for Inactive)
REMARK    1  A    between atoms: O_2  and  C_32
REMARK    2  A    between atoms: O_2  and  C_34
REMARK    3  A    between atoms: O_4  and  C_33
REMARK    4  A    between atoms: N_6  and  C_16
REMARK    5  A    between atoms: C_9  and  C_13
REMARK    6  A    between atoms: C_10  and  C_16
REMARK    7  A    between atoms: C_12  and  C_17
REMARK    8  A    between atoms: C_13  and  C_18
REMARK    9  A    between atoms: C_13  and  C_19
REMARK   10  A    between atoms: C_14  and  C_20
REMARK   11  A    between atoms: C_17  and  C_21
REMARK   12  A    between atoms: C_22  and  C_25
REMARK   13  A    between atoms: C_25  and  C_27
REMARK   14  A    between atoms: C_27  and  C_31
REMARK   15  A    between atoms: C_29  and  C_32
REMARK   16  A    between atoms: C_31  and  C_33
REMARK                            x       y       z     vdW  Elec       q    Type
REMARK                         _______ _______ _______ _____ _____    ______ ____
ROOT
ATOM      9  C   UNL     1       8.774   8.425   5.425  0.00  0.00    +0.000 C 
ATOM     10  C   UNL     1       8.457   7.652   6.729  0.00  0.00    +0.032 C 
ATOM     11  C   UNL     1       8.553   7.524   4.200  0.00  0.00    +0.012 C 
ATOM     12  C   UNL     1       9.428   6.258   4.242  0.00  0.00    +0.022 C 
ATOM     14  C   UNL     1       9.378   5.583   5.598  0.00  0.00    -0.073 C 
ATOM     15  C   UNL     1       8.928   6.217   6.695  0.00  0.00    -0.022 C 
ATOM     20  C   UNL     1       9.813   4.144   5.655  0.00  0.00    +0.039 C 
ENDROOT
BRANCH   9  13
ATOM     13  C   UNL     1       7.925   9.693   5.296  0.00  0.00    -0.013 C 
ATOM     18  C   UNL     1       8.821  10.922   5.164  0.00  0.00    +0.007 C 
ATOM     19  C   UNL     1       6.980   9.583   4.104  0.00  0.00    +0.007 C 
ENDBRANCH   9  13
BRANCH  10  16
ATOM     16  C   UNL     1       9.059   8.358   7.950  0.00  0.00    +0.112 C 
BRANCH  16   6
ATOM      1  O   UNL     1      10.207  10.798   8.933  0.00  0.00    -0.276 OA
ATOM      6  N   UNL     1      10.360   8.866   7.652  0.00  0.00    -0.315 N 
ATOM     22  C   UNL     1      10.840  10.068   8.176  0.00  0.00    +0.213 C 
ATOM     35  H   UNL     1      10.982   8.297   7.084  0.00  0.00    +0.149 HD
BRANCH  22  25
ATOM     25  C   UNL     1      12.239  10.391   7.678  0.00  0.00    +0.096 C 
BRANCH  25  27
ATOM     27  C   UNL     1      12.615   9.663   6.388  0.00  0.00    +0.020 C 
BRANCH  27  31
ATOM     31  C   UNL     1      13.841   8.765   6.563  0.00  0.00    +0.121 C 
BRANCH  31  33
ATOM      5  O   UNL     1      12.517   6.792   7.089  0.00  0.00    -0.251 OA
ATOM     33  C   UNL     1      13.475   7.299   6.524  0.00  0.00    +0.305 C 
BRANCH  33   4
ATOM      4  O   UNL     1      14.354   6.589   5.769  0.00  0.00    -0.481 OA
ATOM     37  H   UNL     1      14.085   5.649   5.683  0.00  0.00    +0.295 HD
ENDBRANCH  33   4
ENDBRANCH  31  33
ENDBRANCH  27  31
ENDBRANCH  25  27
ENDBRANCH  22  25
ENDBRANCH  16   6
ENDBRANCH  10  16
BRANCH  12  17
ATOM     17  C   UNL     1      10.874   6.572   3.841  0.00  0.00    +0.082 C 
BRANCH  17  21
ATOM      7  N   UNL     1      10.509   5.618   1.557  0.00  0.00    -0.342 N 
ATOM      8  N   UNL     1      12.434   5.089   2.533  0.00  0.00    -0.232 NA
ATOM     21  C   UNL     1      11.305   5.750   2.660  0.00  0.00    +0.109 A 
ATOM     23  C   UNL     1      11.168   4.817   0.658  0.00  0.00    +0.067 A 
ATOM     24  C   UNL     1      12.366   4.501   1.291  0.00  0.00    +0.089 A 
ATOM     26  C   UNL     1      10.828   4.358  -0.614  0.00  0.00    +0.042 A 
ATOM     28  C   UNL     1      13.293   3.678   0.630  0.00  0.00    +0.030 A 
ATOM     29  C   UNL     1      11.762   3.539  -1.258  0.00  0.00    +0.061 A 
ATOM     30  C   UNL     1      12.974   3.204  -0.649  0.00  0.00    +0.017 A 
ATOM     36  H   UNL     1       9.594   6.032   1.425  0.00  0.00    +0.167 HD
BRANCH  29  32
ATOM      3  O   UNL     1      12.319   2.709  -3.422  0.00  0.00    -0.245 OA
ATOM     32  C   UNL     1      11.464   3.028  -2.588  0.00  0.00    +0.339 C 
BRANCH  32   2
ATOM      2  O   UNL     1      10.115   2.944  -2.802  0.00  0.00    -0.464 OA
ATOM     34  C   UNL     1       9.618   1.701  -3.308  0.00  0.00    +0.280 C 
ENDBRANCH  32   2
ENDBRANCH  29  32
ENDBRANCH  17  21
ENDBRANCH  12  17
TORSDOF 12
ENDMDL
MODEL 2
REMARK VINA RESULT:      -5.8     36.168     38.804
REMARK  Name = 71693206
REMARK  16 active torsions:
REMARK  status: ('A' for Active; 'I' for Inactive)
REMARK    1  A    between atoms: O_2  and  C_32
REMARK    2  A    between atoms: O_2  and  C_34
REMARK    3  A    between atoms: O_4  and  C_33
REMARK    4  A    between atoms: N_6  and  C_16
REMARK    5  A    between atoms: C_9  and  C_13
REMARK    6  A    between atoms: C_10  and  C_16
REMARK    7  A    between atoms: C_12  and  C_17
REMARK    8  A    between atoms: C_13  and  C_18
REMARK    9  A    between atoms: C_13  and  C_19
REMARK   10  A    between atoms: C_14  and  C_20
REMARK   11  A    between atoms: C_17  and  C_21
REMARK   12  A    between atoms: C_22  and  C_25
REMARK   13  A    between atoms: C_25  and  C_27
REMARK   14  A    between atoms: C_27  and  C_31
REMARK   15  A    between atoms: C_29  and  C_32
REMARK   16  A    between atoms: C_31  and  C_33
REMARK                            x       y       z     vdW  Elec       q    Type
REMARK                         _______ _______ _______ _____ _____    ______ ____
ROOT
ATOM      9  C   UNL     1     -12.767   9.380  33.078  0.00  0.00    +0.000 C 
ATOM     10  C   UNL     1     -13.931  10.333  33.447  0.00  0.00    +0.032 C 
ATOM     11  C   UNL     1     -13.248   8.302  32.094  0.00  0.00    +0.012 C 
ATOM     12  C   UNL     1     -14.403   7.462  32.669  0.00  0.00    +0.022 C 
ATOM     14  C   UNL     1     -15.473   8.331  33.297  0.00  0.00    -0.073 C 
ATOM     15  C   UNL     1     -15.248   9.616  33.626  0.00  0.00    -0.022 C 
ATOM     20  C   UNL     1     -16.825   7.703  33.497  0.00  0.00    +0.039 C 
ENDROOT
BRANCH   9  13
ATOM     13  C   UNL     1     -11.580  10.139  32.477  0.00  0.00    -0.013 C 
ATOM     18  C   UNL     1     -10.269   9.632  33.070  0.00  0.00    +0.007 C 
ATOM     19  C   UNL     1     -11.574  10.002  30.957  0.00  0.00    +0.007 C 
ENDBRANCH   9  13
BRANCH  10  16
ATOM     16  C   UNL     1     -13.609  11.133  34.715  0.00  0.00    +0.112 C 
BRANCH  16   6
ATOM      1  O   UNL     1     -14.104  10.896  37.532  0.00  0.00    -0.276 OA
ATOM      6  N   UNL     1     -12.872  10.337  35.644  0.00  0.00    -0.315 N 
ATOM     22  C   UNL     1     -13.182  10.280  37.004  0.00  0.00    +0.213 C 
ATOM     35  H   UNL     1     -12.129   9.742  35.286  0.00  0.00    +0.149 HD
BRANCH  22  25
ATOM     25  C   UNL     1     -12.226   9.384  37.772  0.00  0.00    +0.096 C 
BRANCH  25  27
ATOM     27  C   UNL     1     -11.275   8.590  36.877  0.00  0.00    +0.020 C 
BRANCH  27  31
ATOM     31  C   UNL     1     -10.540   7.488  37.643  0.00  0.00    +0.121 C 
BRANCH  31  33
ATOM      5  O   UNL     1      -9.076   8.858  39.023  0.00  0.00    -0.251 OA
ATOM     33  C   UNL     1      -9.943   8.001  38.933  0.00  0.00    +0.305 C 
BRANCH  33   4
ATOM      4  O   UNL     1     -10.496   7.389  40.013  0.00  0.00    -0.481 OA
ATOM     37  H   UNL     1     -11.255   7.897  40.373  0.00  0.00    +0.295 HD
ENDBRANCH  33   4
ENDBRANCH  31  33
ENDBRANCH  27  31
ENDBRANCH  25  27
ENDBRANCH  22  25
ENDBRANCH  16   6
ENDBRANCH  10  16
BRANCH  12  17
ATOM     17  C   UNL     1     -13.885   6.422  33.668  0.00  0.00    +0.082 C 
BRANCH  17  21
ATOM      7  N   UNL     1     -14.404   4.754  31.877  0.00  0.00    -0.342 N 
ATOM      8  N   UNL     1     -14.201   3.937  33.934  0.00  0.00    -0.232 NA
ATOM     21  C   UNL     1     -14.160   5.023  33.195  0.00  0.00    +0.109 A 
ATOM     23  C   UNL     1     -14.617   3.403  31.758  0.00  0.00    +0.067 A 
ATOM     24  C   UNL     1     -14.484   2.917  33.055  0.00  0.00    +0.089 A 
ATOM     26  C   UNL     1     -14.904   2.592  30.660  0.00  0.00    +0.042 A 
ATOM     28  C   UNL     1     -14.645   1.541  33.291  0.00  0.00    +0.030 A 
ATOM     29  C   UNL     1     -15.061   1.225  30.913  0.00  0.00    +0.061 A 
ATOM     30  C   UNL     1     -14.934   0.707  32.204  0.00  0.00    +0.017 A 
ATOM     36  H   UNL     1     -14.428   5.428  31.123  0.00  0.00    +0.167 HD
BRANCH  29  32
ATOM      3  O   UNL     1     -16.134   0.596  28.879  0.00  0.00    -0.245 OA
ATOM     32  C   UNL     1     -15.363   0.327  29.807  0.00  0.00    +0.339 C 
BRANCH  32   2
ATOM      2  O   UNL     1     -14.685  -0.856  29.923  0.00  0.00    -0.464 OA
ATOM     34  C   UNL     1     -13.391  -0.920  29.314  0.00  0.00    +0.280 C 
ENDBRANCH  32   2
ENDBRANCH  29  32
ENDBRANCH  17  21
ENDBRANCH  12  17
TORSDOF 12
ENDMDL
MODEL 3
REMARK VINA RESULT:      -5.8     23.109     25.408
REMARK  Name = 71693206
REMARK  16 active torsions:
REMARK  status: ('A' for Active; 'I' for Inactive)
REMARK    1  A    between atoms: O_2  and  C_32
REMARK    2  A    between atoms: O_2  and  C_34
REMARK    3  A    between atoms: O_4  and  C_33
REMARK    4  A    between atoms: N_6  and  C_16
REMARK    5  A    between atoms: C_9  and  C_13
REMARK    6  A    between atoms: C_10  and  C_16
REMARK    7  A    between atoms: C_12  and  C_17
REMARK    8  A    between atoms: C_13  and  C_18
REMARK    9  A    between atoms: C_13  and  C_19
REMARK   10  A    between atoms: C_14  and  C_20
REMARK   11  A    between atoms: C_17  and  C_21
REMARK   12  A    between atoms: C_22  and  C_25
REMARK   13  A    between atoms: C_25  and  C_27
REMARK   14  A    between atoms: C_27  and  C_31
REMARK   15  A    between atoms: C_29  and  C_32
REMARK   16  A    between atoms: C_31  and  C_33
REMARK                            x       y       z     vdW  Elec       q    Type
REMARK                         _______ _______ _______ _____ _____    ______ ____
ROOT
ATOM      9  C   UNL     1      -3.085 -12.216  13.811  0.00  0.00    +0.000 C 
ATOM     10  C   UNL     1      -1.873 -11.351  14.236  0.00  0.00    +0.032 C 
ATOM     11  C   UNL     1      -3.009 -12.547  12.312  0.00  0.00    +0.012 C 
ATOM     12  C   UNL     1      -2.982 -11.281  11.437  0.00  0.00    +0.022 C 
ATOM     14  C   UNL     1      -1.992 -10.258  11.956  0.00  0.00    -0.073 C 
ATOM     15  C   UNL     1      -1.497 -10.313  13.205  0.00  0.00    -0.022 C 
ATOM     20  C   UNL     1      -1.548  -9.194  10.989  0.00  0.00    +0.039 C 
ENDROOT
BRANCH   9  13
ATOM     13  C   UNL     1      -3.172 -13.511  14.624  0.00  0.00    -0.013 C 
ATOM     18  C   UNL     1      -4.630 -13.901  14.850  0.00  0.00    +0.007 C 
ATOM     19  C   UNL     1      -2.416 -14.634  13.921  0.00  0.00    +0.007 C 
ENDBRANCH   9  13
BRANCH  10  16
ATOM     16  C   UNL     1      -2.130 -10.663  15.582  0.00  0.00    +0.112 C 
BRANCH  16   6
ATOM      1  O   UNL     1      -3.970 -11.250  17.706  0.00  0.00    -0.276 OA
ATOM      6  N   UNL     1      -3.486 -10.226  15.678  0.00  0.00    -0.315 N 
ATOM     22  C   UNL     1      -4.314 -10.560  16.751  0.00  0.00    +0.213 C 
ATOM     35  H   UNL     1      -3.841  -9.595  14.964  0.00  0.00    +0.149 HD
BRANCH  22  25
ATOM     25  C   UNL     1      -5.714  -9.992  16.593  0.00  0.00    +0.096 C 
BRANCH  25  27
ATOM     27  C   UNL     1      -6.820 -10.947  17.042  0.00  0.00    +0.020 C 
BRANCH  27  31
ATOM     31  C   UNL     1      -7.851 -10.263  17.940  0.00  0.00    +0.121 C 
BRANCH  31  33
ATOM      5  O   UNL     1      -6.606 -10.948  19.917  0.00  0.00    -0.251 OA
ATOM     33  C   UNL     1      -7.666 -10.634  19.394  0.00  0.00    +0.305 C 
BRANCH  33   4
ATOM      4  O   UNL     1      -8.841 -10.577  20.074  0.00  0.00    -0.481 OA
ATOM     37  H   UNL     1      -9.073 -11.442  20.475  0.00  0.00    +0.295 HD
ENDBRANCH  33   4
ENDBRANCH  31  33
ENDBRANCH  27  31
ENDBRANCH  25  27
ENDBRANCH  22  25
ENDBRANCH  16   6
ENDBRANCH  10  16
BRANCH  12  17
ATOM     17  C   UNL     1      -4.382 -10.670  11.305  0.00  0.00    +0.082 C 
BRANCH  17  21
ATOM      7  N   UNL     1      -5.682  -9.622   9.442  0.00  0.00    -0.342 N 
ATOM      8  N   UNL     1      -4.426 -11.369   8.885  0.00  0.00    -0.232 NA
ATOM     21  C   UNL     1      -4.809 -10.584   9.867  0.00  0.00    +0.109 A 
ATOM     23  C   UNL     1      -5.876  -9.799   8.095  0.00  0.00    +0.067 A 
ATOM     24  C   UNL     1      -5.081 -10.895   7.773  0.00  0.00    +0.089 A 
ATOM     26  C   UNL     1      -6.654  -9.115   7.161  0.00  0.00    +0.042 A 
ATOM     28  C   UNL     1      -5.049 -11.350   6.443  0.00  0.00    +0.030 A 
ATOM     29  C   UNL     1      -6.610  -9.581   5.843  0.00  0.00    +0.061 A 
ATOM     30  C   UNL     1      -5.822 -10.679   5.488  0.00  0.00    +0.017 A 
ATOM     36  H   UNL     1      -6.113  -8.908  10.015  0.00  0.00    +0.167 HD
BRANCH  29  32
ATOM      3  O   UNL     1      -7.558  -9.327   3.670  0.00  0.00    -0.245 OA
ATOM     32  C   UNL     1      -7.402  -8.908   4.823  0.00  0.00    +0.339 C 
BRANCH  32   2
ATOM      2  O   UNL     1      -7.954  -7.751   5.300  0.00  0.00    -0.464 OA
ATOM     34  C   UNL     1      -9.341  -7.535   5.020  0.00  0.00    +0.280 C 
ENDBRANCH  32   2
ENDBRANCH  29  32
ENDBRANCH  17  21
ENDBRANCH  12  17
TORSDOF 12
ENDMDL
MODEL 4
REMARK VINA RESULT:      -5.8      1.756      2.413
REMARK  Name = 71693206
REMARK  16 active torsions:
REMARK  status: ('A' for Active; 'I' for Inactive)
REMARK    1  A    between atoms: O_2  and  C_32
REMARK    2  A    between atoms: O_2  and  C_34
REMARK    3  A    between atoms: O_4  and  C_33
REMARK    4  A    between atoms: N_6  and  C_16
REMARK    5  A    between atoms: C_9  and  C_13
REMARK    6  A    between atoms: C_10  and  C_16
REMARK    7  A    between atoms: C_12  and  C_17
REMARK    8  A    between atoms: C_13  and  C_18
REMARK    9  A    between atoms: C_13  and  C_19
REMARK   10  A    between atoms: C_14  and  C_20
REMARK   11  A    between atoms: C_17  and  C_21
REMARK   12  A    between atoms: C_22  and  C_25
REMARK   13  A    between atoms: C_25  and  C_27
REMARK   14  A    between atoms: C_27  and  C_31
REMARK   15  A    between atoms: C_29  and  C_32
REMARK   16  A    between atoms: C_31  and  C_33
REMARK                            x       y       z     vdW  Elec       q    Type
REMARK                         _______ _______ _______ _____ _____    ______ ____
ROOT
ATOM      9  C   UNL     1       9.151   8.401   5.986  0.00  0.00    +0.000 C 
ATOM     10  C   UNL     1       8.742   8.501   7.476  0.00  0.00    +0.032 C 
ATOM     11  C   UNL     1       8.788   7.019   5.422  0.00  0.00    +0.012 C 
ATOM     12  C   UNL     1       9.473   5.876   6.194  0.00  0.00    +0.022 C 
ATOM     14  C   UNL     1       9.341   6.051   7.693  0.00  0.00    -0.073 C 
ATOM     15  C   UNL     1       9.000   7.228   8.248  0.00  0.00    -0.022 C 
ATOM     20  C   UNL     1       9.565   4.828   8.540  0.00  0.00    +0.039 C 
ENDROOT
BRANCH   9  13
ATOM     13  C   UNL     1       8.494   9.496   5.141  0.00  0.00    -0.013 C 
ATOM     18  C   UNL     1       9.556  10.359   4.467  0.00  0.00    +0.007 C 
ATOM     19  C   UNL     1       7.560   8.879   4.104  0.00  0.00    +0.007 C 
ENDBRANCH   9  13
BRANCH  10  16
ATOM     16  C   UNL     1       9.454   9.670   8.168  0.00  0.00    +0.112 C 
BRANCH  16   6
ATOM      1  O   UNL     1      11.100  11.850   7.289  0.00  0.00    -0.276 OA
ATOM      6  N   UNL     1      10.859   9.628   7.919  0.00  0.00    -0.315 N 
ATOM     22  C   UNL     1      11.585  10.741   7.491  0.00  0.00    +0.213 C 
ATOM     35  H   UNL     1      11.359   8.766   8.120  0.00  0.00    +0.149 HD
BRANCH  22  25
ATOM     25  C   UNL     1      13.053  10.418   7.272  0.00  0.00    +0.096 C 
BRANCH  25  27
ATOM     27  C   UNL     1      13.291   9.066   6.598  0.00  0.00    +0.020 C 
BRANCH  27  31
ATOM     31  C   UNL     1      14.748   8.876   6.174  0.00  0.00    +0.121 C 
BRANCH  31  33
ATOM      5  O   UNL     1      15.744   7.317   4.592  0.00  0.00    -0.251 OA
ATOM     33  C   UNL     1      14.972   7.534   5.514  0.00  0.00    +0.305 C 
BRANCH  33   4
ATOM      4  O   UNL     1      14.198   6.570   6.078  0.00  0.00    -0.481 OA
ATOM     37  H   UNL     1      13.375   6.940   6.462  0.00  0.00    +0.295 HD
ENDBRANCH  33   4
ENDBRANCH  31  33
ENDBRANCH  27  31
ENDBRANCH  25  27
ENDBRANCH  22  25
ENDBRANCH  16   6
ENDBRANCH  10  16
BRANCH  12  17
ATOM     17  C   UNL     1      10.943   5.736   5.786  0.00  0.00    +0.082 C 
BRANCH  17  21
ATOM      7  N   UNL     1      12.156   5.888   3.603  0.00  0.00    -0.342 N 
ATOM      8  N   UNL     1      10.238   4.767   3.571  0.00  0.00    -0.232 NA
ATOM     21  C   UNL     1      11.080   5.445   4.319  0.00  0.00    +0.109 A 
ATOM     23  C   UNL     1      11.998   5.469   2.306  0.00  0.00    +0.067 A 
ATOM     24  C   UNL     1      10.794   4.772   2.313  0.00  0.00    +0.089 A 
ATOM     26  C   UNL     1      12.782   5.636   1.164  0.00  0.00    +0.042 A 
ATOM     28  C   UNL     1      10.328   4.199   1.117  0.00  0.00    +0.030 A 
ATOM     29  C   UNL     1      12.303   5.059  -0.017  0.00  0.00    +0.061 A 
ATOM     30  C   UNL     1      11.098   4.353  -0.043  0.00  0.00    +0.017 A 
ATOM     36  H   UNL     1      12.931   6.432   3.962  0.00  0.00    +0.167 HD
BRANCH  29  32
ATOM      3  O   UNL     1      13.025   6.181  -1.993  0.00  0.00    -0.245 OA
ATOM     32  C   UNL     1      13.077   5.200  -1.242  0.00  0.00    +0.339 C 
BRANCH  32   2
ATOM      2  O   UNL     1      13.872   4.107  -1.461  0.00  0.00    -0.464 OA
ATOM     34  C   UNL     1      15.279   4.283  -1.263  0.00  0.00    +0.280 C 
ENDBRANCH  32   2
ENDBRANCH  29  32
ENDBRANCH  17  21
ENDBRANCH  12  17
TORSDOF 12
ENDMDL
MODEL 5
REMARK VINA RESULT:      -5.7     25.001     27.913
REMARK  Name = 71693206
REMARK  16 active torsions:
REMARK  status: ('A' for Active; 'I' for Inactive)
REMARK    1  A    between atoms: O_2  and  C_32
REMARK    2  A    between atoms: O_2  and  C_34
REMARK    3  A    between atoms: O_4  and  C_33
REMARK    4  A    between atoms: N_6  and  C_16
REMARK    5  A    between atoms: C_9  and  C_13
REMARK    6  A    between atoms: C_10  and  C_16
REMARK    7  A    between atoms: C_12  and  C_17
REMARK    8  A    between atoms: C_13  and  C_18
REMARK    9  A    between atoms: C_13  and  C_19
REMARK   10  A    between atoms: C_14  and  C_20
REMARK   11  A    between atoms: C_17  and  C_21
REMARK   12  A    between atoms: C_22  and  C_25
REMARK   13  A    between atoms: C_25  and  C_27
REMARK   14  A    between atoms: C_27  and  C_31
REMARK   15  A    between atoms: C_29  and  C_32
REMARK   16  A    between atoms: C_31  and  C_33
REMARK                            x       y       z     vdW  Elec       q    Type
REMARK                         _______ _______ _______ _____ _____    ______ ____
ROOT
ATOM      9  C   UNL     1      -5.693 -10.691  17.669  0.00  0.00    +0.000 C 
ATOM     10  C   UNL     1      -5.115 -11.129  16.300  0.00  0.00    +0.032 C 
ATOM     11  C   UNL     1      -7.199 -10.988  17.735  0.00  0.00    +0.012 C 
ATOM     12  C   UNL     1      -7.984 -10.271  16.621  0.00  0.00    +0.022 C 
ATOM     14  C   UNL     1      -7.320 -10.435  15.269  0.00  0.00    -0.073 C 
ATOM     15  C   UNL     1      -6.041 -10.832  15.145  0.00  0.00    -0.022 C 
ATOM     20  C   UNL     1      -8.175 -10.176  14.059  0.00  0.00    +0.039 C 
ENDROOT
BRANCH   9  13
ATOM     13  C   UNL     1      -4.977 -11.378  18.835  0.00  0.00    -0.013 C 
ATOM     18  C   UNL     1      -5.804 -11.261  20.112  0.00  0.00    +0.007 C 
ATOM     19  C   UNL     1      -4.701 -12.842  18.502  0.00  0.00    +0.007 C 
ENDBRANCH   9  13
BRANCH  10  16
ATOM     16  C   UNL     1      -3.751 -10.477  16.042  0.00  0.00    +0.112 C 
BRANCH  16   6
ATOM      1  O   UNL     1      -1.272 -11.081  14.729  0.00  0.00    -0.276 OA
ATOM      6  N   UNL     1      -3.488 -10.390  14.641  0.00  0.00    -0.315 N 
ATOM     22  C   UNL     1      -2.247 -10.705  14.084  0.00  0.00    +0.213 C 
ATOM     35  H   UNL     1      -4.255 -10.148  14.020  0.00  0.00    +0.149 HD
BRANCH  22  25
ATOM     25  C   UNL     1      -2.226 -10.500  12.579  0.00  0.00    +0.096 C 
BRANCH  25  27
ATOM     27  C   UNL     1      -3.610 -10.547  11.933  0.00  0.00    +0.020 C 
BRANCH  27  31
ATOM     31  C   UNL     1      -3.863  -9.355  11.009  0.00  0.00    +0.121 C 
BRANCH  31  33
ATOM      5  O   UNL     1      -4.206 -10.949   9.201  0.00  0.00    -0.251 OA
ATOM     33  C   UNL     1      -4.116  -9.791   9.584  0.00  0.00    +0.305 C 
BRANCH  33   4
ATOM      4  O   UNL     1      -4.237  -8.723   8.753  0.00  0.00    -0.481 OA
ATOM     37  H   UNL     1      -3.835  -8.896   7.875  0.00  0.00    +0.295 HD
ENDBRANCH  33   4
ENDBRANCH  31  33
ENDBRANCH  27  31
ENDBRANCH  25  27
ENDBRANCH  22  25
ENDBRANCH  16   6
ENDBRANCH  10  16
BRANCH  12  17
ATOM     17  C   UNL     1      -8.189  -8.789  16.955  0.00  0.00    +0.082 C 
BRANCH  17  21
ATOM      7  N   UNL     1      -9.720  -7.325  15.625  0.00  0.00    -0.342 N 
ATOM      8  N   UNL     1     -10.707  -8.770  16.994  0.00  0.00    -0.232 NA
ATOM     21  C   UNL     1      -9.556  -8.319  16.547  0.00  0.00    +0.109 A 
ATOM     23  C   UNL     1     -11.067  -7.120  15.465  0.00  0.00    +0.067 A 
ATOM     24  C   UNL     1     -11.661  -8.035  16.329  0.00  0.00    +0.089 A 
ATOM     26  C   UNL     1     -11.794  -6.241  14.662  0.00  0.00    +0.042 A 
ATOM     28  C   UNL     1     -13.063  -8.089  16.412  0.00  0.00    +0.030 A 
ATOM     29  C   UNL     1     -13.188  -6.308  14.756  0.00  0.00    +0.061 A 
ATOM     30  C   UNL     1     -13.813  -7.216  15.615  0.00  0.00    +0.017 A 
ATOM     36  H   UNL     1      -8.982  -6.824  15.146  0.00  0.00    +0.167 HD
BRANCH  29  32
ATOM      3  O   UNL     1     -15.237  -5.403  13.941  0.00  0.00    -0.245 OA
ATOM     32  C   UNL     1     -14.001  -5.415  13.943  0.00  0.00    +0.339 C 
BRANCH  32   2
ATOM      2  O   UNL     1     -13.224  -4.587  13.179  0.00  0.00    -0.464 OA
ATOM     34  C   UNL     1     -13.880  -3.473  12.565  0.00  0.00    +0.280 C 
ENDBRANCH  32   2
ENDBRANCH  29  32
ENDBRANCH  17  21
ENDBRANCH  12  17
TORSDOF 12
ENDMDL
MODEL 6
REMARK VINA RESULT:      -5.6     23.043     25.416
REMARK  Name = 71693206
REMARK  16 active torsions:
REMARK  status: ('A' for Active; 'I' for Inactive)
REMARK    1  A    between atoms: O_2  and  C_32
REMARK    2  A    between atoms: O_2  and  C_34
REMARK    3  A    between atoms: O_4  and  C_33
REMARK    4  A    between atoms: N_6  and  C_16
REMARK    5  A    between atoms: C_9  and  C_13
REMARK    6  A    between atoms: C_10  and  C_16
REMARK    7  A    between atoms: C_12  and  C_17
REMARK    8  A    between atoms: C_13  and  C_18
REMARK    9  A    between atoms: C_13  and  C_19
REMARK   10  A    between atoms: C_14  and  C_20
REMARK   11  A    between atoms: C_17  and  C_21
REMARK   12  A    between atoms: C_22  and  C_25
REMARK   13  A    between atoms: C_25  and  C_27
REMARK   14  A    between atoms: C_27  and  C_31
REMARK   15  A    between atoms: C_29  and  C_32
REMARK   16  A    between atoms: C_31  and  C_33
REMARK                            x       y       z     vdW  Elec       q    Type
REMARK                         _______ _______ _______ _____ _____    ______ ____
ROOT
ATOM      9  C   UNL     1      -3.484 -13.078  12.188  0.00  0.00    +0.000 C 
ATOM     10  C   UNL     1      -2.169 -12.364  12.589  0.00  0.00    +0.032 C 
ATOM     11  C   UNL     1      -3.826 -12.787  10.719  0.00  0.00    +0.012 C 
ATOM     12  C   UNL     1      -3.986 -11.280  10.446  0.00  0.00    +0.022 C 
ATOM     14  C   UNL     1      -2.853 -10.475  11.050  0.00  0.00    -0.073 C 
ATOM     15  C   UNL     1      -2.044 -10.980  11.997  0.00  0.00    -0.022 C 
ATOM     20  C   UNL     1      -2.644  -9.088  10.507  0.00  0.00    +0.039 C 
ENDROOT
BRANCH   9  13
ATOM     13  C   UNL     1      -3.400 -14.591  12.411  0.00  0.00    -0.013 C 
ATOM     18  C   UNL     1      -4.677 -15.104  13.070  0.00  0.00    +0.007 C 
ATOM     19  C   UNL     1      -3.146 -15.311  11.090  0.00  0.00    +0.007 C 
ENDBRANCH   9  13
BRANCH  10  16
ATOM     16  C   UNL     1      -2.028 -12.282  14.114  0.00  0.00    +0.112 C 
BRANCH  16   6
ATOM      1  O   UNL     1      -2.132 -10.592  16.431  0.00  0.00    -0.276 OA
ATOM      6  N   UNL     1      -3.200 -11.716  14.702  0.00  0.00    -0.315 N 
ATOM     22  C   UNL     1      -3.159 -10.901  15.835  0.00  0.00    +0.213 C 
ATOM     35  H   UNL     1      -4.092 -11.866  14.239  0.00  0.00    +0.149 HD
BRANCH  22  25
ATOM     25  C   UNL     1      -4.545 -10.458  16.271  0.00  0.00    +0.096 C 
BRANCH  25  27
ATOM     27  C   UNL     1      -4.743 -10.462  17.787  0.00  0.00    +0.020 C 
BRANCH  27  31
ATOM     31  C   UNL     1      -5.234 -11.814  18.306  0.00  0.00    +0.121 C 
BRANCH  31  33
ATOM      5  O   UNL     1      -3.400 -12.156  19.870  0.00  0.00    -0.251 OA
ATOM     33  C   UNL     1      -4.131 -12.589  18.991  0.00  0.00    +0.305 C 
BRANCH  33   4
ATOM      4  O   UNL     1      -4.041 -13.855  18.508  0.00  0.00    -0.481 OA
ATOM     37  H   UNL     1      -3.316 -14.359  18.937  0.00  0.00    +0.295 HD
ENDBRANCH  33   4
ENDBRANCH  31  33
ENDBRANCH  27  31
ENDBRANCH  25  27
ENDBRANCH  22  25
ENDBRANCH  16   6
ENDBRANCH  10  16
BRANCH  12  17
ATOM     17  C   UNL     1      -5.345 -10.770  10.939  0.00  0.00    +0.082 C 
BRANCH  17  21
ATOM      7  N   UNL     1      -6.108 -10.349   8.594  0.00  0.00    -0.342 N 
ATOM      8  N   UNL     1      -6.605  -8.768  10.075  0.00  0.00    -0.232 NA
ATOM     21  C   UNL     1      -6.028  -9.935   9.894  0.00  0.00    +0.109 A 
ATOM     23  C   UNL     1      -6.782  -9.384   7.888  0.00  0.00    +0.067 A 
ATOM     24  C   UNL     1      -7.081  -8.409   8.835  0.00  0.00    +0.089 A 
ATOM     26  C   UNL     1      -7.144  -9.285   6.544  0.00  0.00    +0.042 A 
ATOM     28  C   UNL     1      -7.783  -7.259   8.436  0.00  0.00    +0.030 A 
ATOM     29  C   UNL     1      -7.842  -8.134   6.164  0.00  0.00    +0.061 A 
ATOM     30  C   UNL     1      -8.157  -7.137   7.091  0.00  0.00    +0.017 A 
ATOM     36  H   UNL     1      -5.735 -11.210   8.215  0.00  0.00    +0.167 HD
BRANCH  29  32
ATOM      3  O   UNL     1      -7.494  -8.127   3.806  0.00  0.00    -0.245 OA
ATOM     32  C   UNL     1      -8.246  -7.973   4.775  0.00  0.00    +0.339 C 
BRANCH  32   2
ATOM      2  O   UNL     1      -9.567  -7.629   4.674  0.00  0.00    -0.464 OA
ATOM     34  C   UNL     1     -10.509  -8.704   4.593  0.00  0.00    +0.280 C 
ENDBRANCH  32   2
ENDBRANCH  29  32
ENDBRANCH  17  21
ENDBRANCH  12  17
TORSDOF 12
ENDMDL
MODEL 7
REMARK VINA RESULT:      -5.6     22.780     24.945
REMARK  Name = 71693206
REMARK  16 active torsions:
REMARK  status: ('A' for Active; 'I' for Inactive)
REMARK    1  A    between atoms: O_2  and  C_32
REMARK    2  A    between atoms: O_2  and  C_34
REMARK    3  A    between atoms: O_4  and  C_33
REMARK    4  A    between atoms: N_6  and  C_16
REMARK    5  A    between atoms: C_9  and  C_13
REMARK    6  A    between atoms: C_10  and  C_16
REMARK    7  A    between atoms: C_12  and  C_17
REMARK    8  A    between atoms: C_13  and  C_18
REMARK    9  A    between atoms: C_13  and  C_19
REMARK   10  A    between atoms: C_14  and  C_20
REMARK   11  A    between atoms: C_17  and  C_21
REMARK   12  A    between atoms: C_22  and  C_25
REMARK   13  A    between atoms: C_25  and  C_27
REMARK   14  A    between atoms: C_27  and  C_31
REMARK   15  A    between atoms: C_29  and  C_32
REMARK   16  A    between atoms: C_31  and  C_33
REMARK                            x       y       z     vdW  Elec       q    Type
REMARK                         _______ _______ _______ _____ _____    ______ ____
ROOT
ATOM      9  C   UNL     1      -3.678 -10.183  11.390  0.00  0.00    +0.000 C 
ATOM     10  C   UNL     1      -4.811  -9.788  12.369  0.00  0.00    +0.032 C 
ATOM     11  C   UNL     1      -3.733  -9.312  10.126  0.00  0.00    +0.012 C 
ATOM     12  C   UNL     1      -5.080  -9.437   9.390  0.00  0.00    +0.022 C 
ATOM     14  C   UNL     1      -6.254  -9.325  10.342  0.00  0.00    -0.073 C 
ATOM     15  C   UNL     1      -6.112  -9.471  11.671  0.00  0.00    -0.022 C 
ATOM     20  C   UNL     1      -7.589  -8.994   9.734  0.00  0.00    +0.039 C 
ENDROOT
BRANCH   9  13
ATOM     13  C   UNL     1      -2.297 -10.066  12.041  0.00  0.00    -0.013 C 
ATOM     18  C   UNL     1      -1.759 -11.448  12.402  0.00  0.00    +0.007 C 
ATOM     19  C   UNL     1      -1.331  -9.336  11.113  0.00  0.00    +0.007 C 
ENDBRANCH   9  13
BRANCH  10  16
ATOM     16  C   UNL     1      -5.046 -10.885  13.414  0.00  0.00    +0.112 C 
BRANCH  16   6
ATOM      1  O   UNL     1      -4.510 -12.570  15.675  0.00  0.00    -0.276 OA
ATOM      6  N   UNL     1      -4.599 -10.462  14.703  0.00  0.00    -0.315 N 
ATOM     22  C   UNL     1      -4.362 -11.353  15.751  0.00  0.00    +0.213 C 
ATOM     35  H   UNL     1      -4.388  -9.478  14.841  0.00  0.00    +0.149 HD
BRANCH  22  25
ATOM     25  C   UNL     1      -3.924 -10.642  17.019  0.00  0.00    +0.096 C 
BRANCH  25  27
ATOM     27  C   UNL     1      -4.628 -11.143  18.280  0.00  0.00    +0.020 C 
BRANCH  27  31
ATOM     31  C   UNL     1      -5.985 -10.470  18.495  0.00  0.00    +0.121 C 
BRANCH  31  33
ATOM      5  O   UNL     1      -5.945 -11.238  20.805  0.00  0.00    -0.251 OA
ATOM     33  C   UNL     1      -6.571 -10.804  19.848  0.00  0.00    +0.305 C 
BRANCH  33   4
ATOM      4  O   UNL     1      -7.907 -10.559  19.884  0.00  0.00    -0.481 OA
ATOM     37  H   UNL     1      -8.411 -11.205  19.344  0.00  0.00    +0.295 HD
ENDBRANCH  33   4
ENDBRANCH  31  33
ENDBRANCH  27  31
ENDBRANCH  25  27
ENDBRANCH  22  25
ENDBRANCH  16   6
ENDBRANCH  10  16
BRANCH  12  17
ATOM     17  C   UNL     1      -5.151 -10.738   8.584  0.00  0.00    +0.082 C 
BRANCH  17  21
ATOM      7  N   UNL     1      -6.076  -9.262   6.787  0.00  0.00    -0.342 N 
ATOM      8  N   UNL     1      -6.171 -11.447   6.393  0.00  0.00    -0.232 NA
ATOM     21  C   UNL     1      -5.801 -10.520   7.247  0.00  0.00    +0.109 A 
ATOM     23  C   UNL     1      -6.662  -9.387   5.553  0.00  0.00    +0.067 A 
ATOM     24  C   UNL     1      -6.710 -10.760   5.330  0.00  0.00    +0.089 A 
ATOM     26  C   UNL     1      -7.140  -8.445   4.641  0.00  0.00    +0.042 A 
ATOM     28  C   UNL     1      -7.264 -11.240   4.131  0.00  0.00    +0.030 A 
ATOM     29  C   UNL     1      -7.688  -8.940   3.454  0.00  0.00    +0.061 A 
ATOM     30  C   UNL     1      -7.750 -10.312   3.201  0.00  0.00    +0.017 A 
ATOM     36  H   UNL     1      -5.885  -8.393   7.270  0.00  0.00    +0.167 HD
BRANCH  29  32
ATOM      3  O   UNL     1      -7.759  -7.888   1.316  0.00  0.00    -0.245 OA
ATOM     32  C   UNL     1      -8.203  -8.005   2.464  0.00  0.00    +0.339 C 
BRANCH  32   2
ATOM      2  O   UNL     1      -9.244  -7.270   2.962  0.00  0.00    -0.464 OA
ATOM     34  C   UNL     1      -9.662  -6.139   2.192  0.00  0.00    +0.280 C 
ENDBRANCH  32   2
ENDBRANCH  29  32
ENDBRANCH  17  21
ENDBRANCH  12  17
TORSDOF 12
ENDMDL
MODEL 8
REMARK VINA RESULT:      -5.6     23.142     25.423
REMARK  Name = 71693206
REMARK  16 active torsions:
REMARK  status: ('A' for Active; 'I' for Inactive)
REMARK    1  A    between atoms: O_2  and  C_32
REMARK    2  A    between atoms: O_2  and  C_34
REMARK    3  A    between atoms: O_4  and  C_33
REMARK    4  A    between atoms: N_6  and  C_16
REMARK    5  A    between atoms: C_9  and  C_13
REMARK    6  A    between atoms: C_10  and  C_16
REMARK    7  A    between atoms: C_12  and  C_17
REMARK    8  A    between atoms: C_13  and  C_18
REMARK    9  A    between atoms: C_13  and  C_19
REMARK   10  A    between atoms: C_14  and  C_20
REMARK   11  A    between atoms: C_17  and  C_21
REMARK   12  A    between atoms: C_22  and  C_25
REMARK   13  A    between atoms: C_25  and  C_27
REMARK   14  A    between atoms: C_27  and  C_31
REMARK   15  A    between atoms: C_29  and  C_32
REMARK   16  A    between atoms: C_31  and  C_33
REMARK                            x       y       z     vdW  Elec       q    Type
REMARK                         _______ _______ _______ _____ _____    ______ ____
ROOT
ATOM      9  C   UNL     1      -3.085 -12.230  13.796  0.00  0.00    +0.000 C 
ATOM     10  C   UNL     1      -1.878 -11.388  14.277  0.00  0.00    +0.032 C 
ATOM     11  C   UNL     1      -2.966 -12.531  12.294  0.00  0.00    +0.012 C 
ATOM     12  C   UNL     1      -2.897 -11.248  11.446  0.00  0.00    +0.022 C 
ATOM     14  C   UNL     1      -1.912 -10.247  12.017  0.00  0.00    -0.073 C 
ATOM     15  C   UNL     1      -1.458 -10.334  13.279  0.00  0.00    -0.022 C 
ATOM     20  C   UNL     1      -1.426  -9.170  11.087  0.00  0.00    +0.039 C 
ENDROOT
BRANCH   9  13
ATOM     13  C   UNL     1      -3.213 -13.540  14.580  0.00  0.00    -0.013 C 
ATOM     18  C   UNL     1      -4.674 -13.972  14.661  0.00  0.00    +0.007 C 
ATOM     19  C   UNL     1      -2.361 -14.630  13.936  0.00  0.00    +0.007 C 
ENDBRANCH   9  13
BRANCH  10  16
ATOM     16  C   UNL     1      -2.169 -10.724  15.628  0.00  0.00    +0.112 C 
BRANCH  16   6
ATOM      1  O   UNL     1      -4.191 -11.612  17.461  0.00  0.00    -0.276 OA
ATOM      6  N   UNL     1      -3.521 -10.269  15.689  0.00  0.00    -0.315 N 
ATOM     22  C   UNL     1      -4.443 -10.757  16.617  0.00  0.00    +0.213 C 
ATOM     35  H   UNL     1      -3.804  -9.514  15.069  0.00  0.00    +0.149 HD
BRANCH  22  25
ATOM     25  C   UNL     1      -5.815 -10.128  16.447  0.00  0.00    +0.096 C 
BRANCH  25  27
ATOM     27  C   UNL     1      -6.964 -11.029  16.898  0.00  0.00    +0.020 C 
BRANCH  27  31
ATOM     31  C   UNL     1      -7.512 -10.632  18.270  0.00  0.00    +0.121 C 
BRANCH  31  33
ATOM      5  O   UNL     1      -6.405 -10.803  20.431  0.00  0.00    -0.251 OA
ATOM     33  C   UNL     1      -6.779 -11.329  19.392  0.00  0.00    +0.305 C 
BRANCH  33   4
ATOM      4  O   UNL     1      -6.578 -12.643  19.112  0.00  0.00    -0.481 OA
ATOM     37  H   UNL     1      -5.629 -12.888  19.169  0.00  0.00    +0.295 HD
ENDBRANCH  33   4
ENDBRANCH  31  33
ENDBRANCH  27  31
ENDBRANCH  25  27
ENDBRANCH  22  25
ENDBRANCH  16   6
ENDBRANCH  10  16
BRANCH  12  17
ATOM     17  C   UNL     1      -4.285 -10.619  11.283  0.00  0.00    +0.082 C 
BRANCH  17  21
ATOM      7  N   UNL     1      -4.232 -11.510   8.946  0.00  0.00    -0.342 N 
ATOM      8  N   UNL     1      -5.547  -9.750   9.283  0.00  0.00    -0.232 NA
ATOM     21  C   UNL     1      -4.711 -10.596   9.842  0.00  0.00    +0.109 A 
ATOM     23  C   UNL     1      -4.797 -11.235   7.726  0.00  0.00    +0.067 A 
ATOM     24  C   UNL     1      -5.614 -10.133   7.964  0.00  0.00    +0.089 A 
ATOM     26  C   UNL     1      -4.668 -11.838   6.475  0.00  0.00    +0.042 A 
ATOM     28  C   UNL     1      -6.353  -9.586   6.901  0.00  0.00    +0.030 A 
ATOM     29  C   UNL     1      -5.411 -11.281   5.429  0.00  0.00    +0.061 A 
ATOM     30  C   UNL     1      -6.239 -10.175   5.636  0.00  0.00    +0.017 A 
ATOM     36  H   UNL     1      -3.575 -12.255   9.142  0.00  0.00    +0.167 HD
BRANCH  29  32
ATOM      3  O   UNL     1      -4.261 -12.229   3.568  0.00  0.00    -0.245 OA
ATOM     32  C   UNL     1      -5.317 -11.866   4.099  0.00  0.00    +0.339 C 
BRANCH  32   2
ATOM      2  O   UNL     1      -6.547 -11.967   3.507  0.00  0.00    -0.464 OA
ATOM     34  C   UNL     1      -7.320 -13.130   3.819  0.00  0.00    +0.280 C 
ENDBRANCH  32   2
ENDBRANCH  29  32
ENDBRANCH  17  21
ENDBRANCH  12  17
TORSDOF 12
ENDMDL
MODEL 9
REMARK VINA RESULT:      -5.5      2.307      3.718
REMARK  Name = 71693206
REMARK  16 active torsions:
REMARK  status: ('A' for Active; 'I' for Inactive)
REMARK    1  A    between atoms: O_2  and  C_32
REMARK    2  A    between atoms: O_2  and  C_34
REMARK    3  A    between atoms: O_4  and  C_33
REMARK    4  A    between atoms: N_6  and  C_16
REMARK    5  A    between atoms: C_9  and  C_13
REMARK    6  A    between atoms: C_10  and  C_16
REMARK    7  A    between atoms: C_12  and  C_17
REMARK    8  A    between atoms: C_13  and  C_18
REMARK    9  A    between atoms: C_13  and  C_19
REMARK   10  A    between atoms: C_14  and  C_20
REMARK   11  A    between atoms: C_17  and  C_21
REMARK   12  A    between atoms: C_22  and  C_25
REMARK   13  A    between atoms: C_25  and  C_27
REMARK   14  A    between atoms: C_27  and  C_31
REMARK   15  A    between atoms: C_29  and  C_32
REMARK   16  A    between atoms: C_31  and  C_33
REMARK                            x       y       z     vdW  Elec       q    Type
REMARK                         _______ _______ _______ _____ _____    ______ ____
ROOT
ATOM      9  C   UNL     1       9.127   8.213   5.260  0.00  0.00    +0.000 C 
ATOM     10  C   UNL     1       8.766   8.788   6.652  0.00  0.00    +0.032 C 
ATOM     11  C   UNL     1       8.615   6.771   5.126  0.00  0.00    +0.012 C 
ATOM     12  C   UNL     1       9.200   5.842   6.205  0.00  0.00    +0.022 C 
ATOM     14  C   UNL     1       9.122   6.462   7.585  0.00  0.00    -0.073 C 
ATOM     15  C   UNL     1       8.914   7.778   7.766  0.00  0.00    -0.022 C 
ATOM     20  C   UNL     1       9.243   5.526   8.756  0.00  0.00    +0.039 C 
ENDROOT
BRANCH   9  13
ATOM     13  C   UNL     1       8.562   9.073   4.126  0.00  0.00    -0.013 C 
ATOM     18  C   UNL     1       8.633   8.319   2.801  0.00  0.00    +0.007 C 
ATOM     19  C   UNL     1       7.127   9.487   4.436  0.00  0.00    +0.007 C 
ENDBRANCH   9  13
BRANCH  10  16
ATOM     16  C   UNL     1       9.607  10.029   6.973  0.00  0.00    +0.112 C 
BRANCH  16   6
ATOM      1  O   UNL     1      11.241  10.823   9.195  0.00  0.00    -0.276 OA
ATOM      6  N   UNL     1       9.159  10.647   8.180  0.00  0.00    -0.315 N 
ATOM     22  C   UNL     1      10.027  11.001   9.215  0.00  0.00    +0.213 C 
ATOM     35  H   UNL     1       8.176  10.893   8.261  0.00  0.00    +0.149 HD
BRANCH  22  25
ATOM     25  C   UNL     1       9.291  11.614  10.395  0.00  0.00    +0.096 C 
BRANCH  25  27
ATOM     27  C   UNL     1      10.124  12.627  11.180  0.00  0.00    +0.020 C 
BRANCH  27  31
ATOM     31  C   UNL     1      10.647  12.054  12.498  0.00  0.00    +0.121 C 
BRANCH  31  33
ATOM      5  O   UNL     1      12.980  12.025  11.801  0.00  0.00    -0.251 OA
ATOM     33  C   UNL     1      12.136  12.266  12.653  0.00  0.00    +0.305 C 
BRANCH  33   4
ATOM      4  O   UNL     1      12.440  12.772  13.877  0.00  0.00    -0.481 OA
ATOM     37  H   UNL     1      13.283  12.408  14.223  0.00  0.00    +0.295 HD
ENDBRANCH  33   4
ENDBRANCH  31  33
ENDBRANCH  27  31
ENDBRANCH  25  27
ENDBRANCH  22  25
ENDBRANCH  16   6
ENDBRANCH  10  16
BRANCH  12  17
ATOM     17  C   UNL     1      10.639   5.438   5.866  0.00  0.00    +0.082 C 
BRANCH  17  21
ATOM      7  N   UNL     1      10.253   4.663   3.519  0.00  0.00    -0.342 N 
ATOM      8  N   UNL     1      11.712   6.322   3.765  0.00  0.00    -0.232 NA
ATOM     21  C   UNL     1      10.893   5.503   4.386  0.00  0.00    +0.109 A 
ATOM     23  C   UNL     1      10.688   4.961   2.252  0.00  0.00    +0.067 A 
ATOM     24  C   UNL     1      11.596   5.999   2.433  0.00  0.00    +0.089 A 
ATOM     26  C   UNL     1      10.373   4.426   1.002  0.00  0.00    +0.042 A 
ATOM     28  C   UNL     1      12.240   6.549   1.311  0.00  0.00    +0.030 A 
ATOM     29  C   UNL     1      11.022   4.986  -0.103  0.00  0.00    +0.061 A 
ATOM     30  C   UNL     1      11.939   6.029   0.046  0.00  0.00    +0.017 A 
ATOM     36  H   UNL     1       9.581   3.947   3.763  0.00  0.00    +0.167 HD
BRANCH  29  32
ATOM      3  O   UNL     1       9.603   4.396  -1.926  0.00  0.00    -0.245 OA
ATOM     32  C   UNL     1      10.735   4.470  -1.434  0.00  0.00    +0.339 C 
BRANCH  32   2
ATOM      2  O   UNL     1      11.877   4.075  -2.076  0.00  0.00    -0.464 OA
ATOM     34  C   UNL     1      12.337   2.746  -1.815  0.00  0.00    +0.280 C 
ENDBRANCH  32   2
ENDBRANCH  29  32
ENDBRANCH  17  21
ENDBRANCH  12  17
TORSDOF 12
ENDMDL
MODEL 10
REMARK VINA RESULT:      -5.5     26.306     29.932
REMARK  Name = 71693206
REMARK  16 active torsions:
REMARK  status: ('A' for Active; 'I' for Inactive)
REMARK    1  A    between atoms: O_2  and  C_32
REMARK    2  A    between atoms: O_2  and  C_34
REMARK    3  A    between atoms: O_4  and  C_33
REMARK    4  A    between atoms: N_6  and  C_16
REMARK    5  A    between atoms: C_9  and  C_13
REMARK    6  A    between atoms: C_10  and  C_16
REMARK    7  A    between atoms: C_12  and  C_17
REMARK    8  A    between atoms: C_13  and  C_18
REMARK    9  A    between atoms: C_13  and  C_19
REMARK   10  A    between atoms: C_14  and  C_20
REMARK   11  A    between atoms: C_17  and  C_21
REMARK   12  A    between atoms: C_22  and  C_25
REMARK   13  A    between atoms: C_25  and  C_27
REMARK   14  A    between atoms: C_27  and  C_31
REMARK   15  A    between atoms: C_29  and  C_32
REMARK   16  A    between atoms: C_31  and  C_33
REMARK                            x       y       z     vdW  Elec       q    Type
REMARK                         _______ _______ _______ _____ _____    ______ ____
ROOT
ATOM      9  C   UNL     1     -13.173  10.667  24.736  0.00  0.00    +0.000 C 
ATOM     10  C   UNL     1     -14.591  11.280  24.632  0.00  0.00    +0.032 C 
ATOM     11  C   UNL     1     -12.241  11.290  23.685  0.00  0.00    +0.012 C 
ATOM     12  C   UNL     1     -12.758  11.080  22.250  0.00  0.00    +0.022 C 
ATOM     14  C   UNL     1     -14.232  11.412  22.129  0.00  0.00    -0.073 C 
ATOM     15  C   UNL     1     -15.033  11.510  23.205  0.00  0.00    -0.022 C 
ATOM     20  C   UNL     1     -14.756  11.673  20.744  0.00  0.00    +0.039 C 
ENDROOT
BRANCH   9  13
ATOM     13  C   UNL     1     -12.575  10.852  26.134  0.00  0.00    -0.013 C 
ATOM     18  C   UNL     1     -11.092  10.494  26.131  0.00  0.00    +0.007 C 
ATOM     19  C   UNL     1     -12.784  12.284  26.617  0.00  0.00    +0.007 C 
ENDBRANCH   9  13
BRANCH  10  16
ATOM     16  C   UNL     1     -15.625  10.407  25.352  0.00  0.00    +0.112 C 
BRANCH  16   6
ATOM      1  O   UNL     1     -17.677   9.240  23.719  0.00  0.00    -0.276 OA
ATOM      6  N   UNL     1     -15.635   9.084  24.814  0.00  0.00    -0.315 N 
ATOM     22  C   UNL     1     -16.678   8.595  24.026  0.00  0.00    +0.213 C 
ATOM     35  H   UNL     1     -14.818   8.497  24.962  0.00  0.00    +0.149 HD
BRANCH  22  25
ATOM     25  C   UNL     1     -16.454   7.152  23.608  0.00  0.00    +0.096 C 
BRANCH  25  27
ATOM     27  C   UNL     1     -14.986   6.807  23.355  0.00  0.00    +0.020 C 
BRANCH  27  31
ATOM     31  C   UNL     1     -14.689   6.579  21.872  0.00  0.00    +0.121 C 
BRANCH  31  33
ATOM      5  O   UNL     1     -12.373   6.063  21.329  0.00  0.00    -0.251 OA
ATOM     33  C   UNL     1     -13.486   5.687  21.670  0.00  0.00    +0.305 C 
BRANCH  33   4
ATOM      4  O   UNL     1     -13.786   4.385  21.918  0.00  0.00    -0.481 OA
ATOM     37  H   UNL     1     -14.438   4.293  22.645  0.00  0.00    +0.295 HD
ENDBRANCH  33   4
ENDBRANCH  31  33
ENDBRANCH  27  31
ENDBRANCH  25  27
ENDBRANCH  22  25
ENDBRANCH  16   6
ENDBRANCH  10  16
BRANCH  12  17
ATOM     17  C   UNL     1     -12.475   9.655  21.763  0.00  0.00    +0.082 C 
BRANCH  17  21
ATOM      7  N   UNL     1     -12.296   8.669  19.470  0.00  0.00    -0.342 N 
ATOM      8  N   UNL     1     -11.140  10.535  19.816  0.00  0.00    -0.232 NA
ATOM     21  C   UNL     1     -11.951   9.652  20.355  0.00  0.00    +0.109 A 
ATOM     23  C   UNL     1     -11.667   8.936  18.281  0.00  0.00    +0.067 A 
ATOM     24  C   UNL     1     -10.953  10.105  18.523  0.00  0.00    +0.089 A 
ATOM     26  C   UNL     1     -11.662   8.274  17.052  0.00  0.00    +0.042 A 
ATOM     28  C   UNL     1     -10.181  10.663  17.489  0.00  0.00    +0.030 A 
ATOM     29  C   UNL     1     -10.889   8.843  16.035  0.00  0.00    +0.061 A 
ATOM     30  C   UNL     1     -10.161  10.016  16.247  0.00  0.00    +0.017 A 
ATOM     36  H   UNL     1     -12.904   7.881  19.657  0.00  0.00    +0.167 HD
BRANCH  29  32
ATOM      3  O   UNL     1     -10.038   7.314  14.416  0.00  0.00    -0.245 OA
ATOM     32  C   UNL     1     -10.844   8.198  14.731  0.00  0.00    +0.339 C 
BRANCH  32   2
ATOM      2  O   UNL     1     -11.806   8.693  13.893  0.00  0.00    -0.464 OA
ATOM     34  C   UNL     1     -12.918   7.838  13.611  0.00  0.00    +0.280 C 
ENDBRANCH  32   2
ENDBRANCH  29  32
ENDBRANCH  17  21
ENDBRANCH  12  17
TORSDOF 12
ENDMDL
