MODEL 1
REMARK VINA RESULT:      -7.3      0.000      0.000
REMARK  Name = 75537092
REMARK  6 active torsions:
REMARK  status: ('A' for Active; 'I' for Inactive)
REMARK    1  A    between atoms: O_3  and  C_24
REMARK    2  A    between atoms: O_3  and  C_27
REMARK    3  A    between atoms: N_5  and  C_14
REMARK    4  A    between atoms: N_6  and  C_15
REMARK    5  A    between atoms: C_14  and  C_17
REMARK    6  A    between atoms: C_15  and  C_16
REMARK                            x       y       z     vdW  Elec       q    Type
REMARK                         _______ _______ _______ _____ _____    ______ ____
ROOT
ATOM      2  O   UNL     1     -17.575   2.620  22.083  0.00  0.00    -0.252 OA
ATOM      4  N   UNL     1     -16.772   2.612  24.291  0.00  0.00    -0.278 N 
ATOM      5  N   UNL     1     -16.765   2.247  27.080  0.00  0.00    -0.293 NA
ATOM      6  N   UNL     1     -16.336   4.403  23.008  0.00  0.00    -0.279 N 
ATOM      8  C   UNL     1     -15.908   3.441  25.105  0.00  0.00    +0.109 C 
ATOM      9  C   UNL     1     -16.480   3.582  26.515  0.00  0.00    +0.109 C 
ATOM     10  C   UNL     1     -15.809   4.745  24.318  0.00  0.00    +0.133 C 
ATOM     11  C   UNL     1     -17.235   1.343  24.813  0.00  0.00    +0.125 C 
ATOM     12  C   UNL     1     -17.744   1.520  26.246  0.00  0.00    +0.104 C 
ATOM     13  C   UNL     1     -16.968   3.143  23.009  0.00  0.00    +0.305 C 
ENDROOT
BRANCH   5  14
ATOM     14  C   UNL     1     -17.257   2.370  28.452  0.00  0.00    +0.140 C 
BRANCH  14  17
ATOM      7  N   UNL     1     -15.794   0.578  29.190  0.00  0.00    -0.217 NA
ATOM     17  C   UNL     1     -16.285   1.810  29.449  0.00  0.00    +0.059 A 
ATOM     20  C   UNL     1     -15.942   2.565  30.560  0.00  0.00    +0.025 A 
ATOM     23  C   UNL     1     -15.036   2.018  31.463  0.00  0.00    +0.007 A 
ATOM     24  C   UNL     1     -14.917   0.079  30.090  0.00  0.00    +0.215 A 
ATOM     26  C   UNL     1     -14.510   0.752  31.231  0.00  0.00    +0.067 A 
BRANCH  24   3
ATOM      3  O   UNL     1     -14.411  -1.169  29.839  0.00  0.00    -0.480 OA
ATOM     27  C   UNL     1     -13.083  -1.232  29.335  0.00  0.00    +0.279 C 
ENDBRANCH  24   3
ENDBRANCH  14  17
ENDBRANCH   5  14
BRANCH   6  15
ATOM     15  C   UNL     1     -16.323   5.341  21.907  0.00  0.00    +0.144 C 
BRANCH  15  16
ATOM      1  F   UNL     1     -11.136   7.243  20.821  0.00  0.00    -0.205 F 
ATOM     16  C   UNL     1     -14.941   5.848  21.618  0.00  0.00    -0.030 A 
ATOM     18  C   UNL     1     -13.829   5.080  21.964  0.00  0.00    +0.008 A 
ATOM     19  C   UNL     1     -14.767   7.088  21.003  0.00  0.00    +0.008 A 
ATOM     21  C   UNL     1     -12.543   5.550  21.695  0.00  0.00    +0.038 A 
ATOM     22  C   UNL     1     -13.481   7.559  20.735  0.00  0.00    +0.038 A 
ATOM     25  C   UNL     1     -12.370   6.790  21.080  0.00  0.00    +0.123 A 
ENDBRANCH  15  16
ENDBRANCH   6  15
TORSDOF 5
ENDMDL
MODEL 2
REMARK VINA RESULT:      -7.1     31.249     33.935
REMARK  Name = 75537092
REMARK  6 active torsions:
REMARK  status: ('A' for Active; 'I' for Inactive)
REMARK    1  A    between atoms: O_3  and  C_24
REMARK    2  A    between atoms: O_3  and  C_27
REMARK    3  A    between atoms: N_5  and  C_14
REMARK    4  A    between atoms: N_6  and  C_15
REMARK    5  A    between atoms: C_14  and  C_17
REMARK    6  A    between atoms: C_15  and  C_16
REMARK                            x       y       z     vdW  Elec       q    Type
REMARK                         _______ _______ _______ _____ _____    ______ ____
ROOT
ATOM      2  O   UNL     1      15.679   9.616  20.621  0.00  0.00    -0.252 OA
ATOM      4  N   UNL     1      17.292   7.930  20.895  0.00  0.00    -0.278 N 
ATOM      5  N   UNL     1      19.829   6.726  21.062  0.00  0.00    -0.293 NA
ATOM      6  N   UNL     1      15.501   7.491  19.613  0.00  0.00    -0.279 N 
ATOM      8  C   UNL     1      17.430   6.532  20.544  0.00  0.00    +0.109 C 
ATOM      9  C   UNL     1      18.852   6.241  20.066  0.00  0.00    +0.109 C 
ATOM     10  C   UNL     1      16.342   6.312  19.496  0.00  0.00    +0.133 C 
ATOM     11  C   UNL     1      18.283   8.547  21.750  0.00  0.00    +0.125 C 
ATOM     12  C   UNL     1      19.691   8.182  21.270  0.00  0.00    +0.104 C 
ATOM     13  C   UNL     1      16.102   8.487  20.408  0.00  0.00    +0.305 C 
ENDROOT
BRANCH   5  14
ATOM     14  C   UNL     1      21.190   6.399  20.641  0.00  0.00    +0.140 C 
BRANCH  14  17
ATOM      7  N   UNL     1      22.183   4.185  20.763  0.00  0.00    -0.217 NA
ATOM     17  C   UNL     1      21.774   5.276  21.449  0.00  0.00    +0.059 A 
ATOM     20  C   UNL     1      21.867   5.407  22.825  0.00  0.00    +0.025 A 
ATOM     23  C   UNL     1      22.415   4.350  23.544  0.00  0.00    +0.007 A 
ATOM     24  C   UNL     1      22.710   3.178  21.494  0.00  0.00    +0.215 A 
ATOM     26  C   UNL     1      22.847   3.210  22.873  0.00  0.00    +0.067 A 
BRANCH  24   3
ATOM      3  O   UNL     1      23.129   2.067  20.811  0.00  0.00    -0.480 OA
ATOM     27  C   UNL     1      24.475   1.658  21.020  0.00  0.00    +0.279 C 
ENDBRANCH  24   3
ENDBRANCH  14  17
ENDBRANCH   5  14
BRANCH   6  15
ATOM     15  C   UNL     1      14.274   7.635  18.861  0.00  0.00    +0.144 C 
BRANCH  15  16
ATOM      1  F   UNL     1       9.728   7.361  22.172  0.00  0.00    -0.205 F 
ATOM     16  C   UNL     1      13.063   7.562  19.743  0.00  0.00    -0.030 A 
ATOM     18  C   UNL     1      12.911   6.500  20.634  0.00  0.00    +0.008 A 
ATOM     19  C   UNL     1      12.087   8.556  19.672  0.00  0.00    +0.008 A 
ATOM     21  C   UNL     1      11.785   6.432  21.455  0.00  0.00    +0.038 A 
ATOM     22  C   UNL     1      10.961   8.488  20.493  0.00  0.00    +0.038 A 
ATOM     25  C   UNL     1      10.810   7.426  21.384  0.00  0.00    +0.123 A 
ENDBRANCH  15  16
ENDBRANCH   6  15
TORSDOF 5
ENDMDL
MODEL 3
REMARK VINA RESULT:      -6.9      1.550      2.361
REMARK  Name = 75537092
REMARK  6 active torsions:
REMARK  status: ('A' for Active; 'I' for Inactive)
REMARK    1  A    between atoms: O_3  and  C_24
REMARK    2  A    between atoms: O_3  and  C_27
REMARK    3  A    between atoms: N_5  and  C_14
REMARK    4  A    between atoms: N_6  and  C_15
REMARK    5  A    between atoms: C_14  and  C_17
REMARK    6  A    between atoms: C_15  and  C_16
REMARK                            x       y       z     vdW  Elec       q    Type
REMARK                         _______ _______ _______ _____ _____    ______ ____
ROOT
ATOM      2  O   UNL     1     -17.127   2.047  22.561  0.00  0.00    -0.252 OA
ATOM      4  N   UNL     1     -16.472   2.404  24.789  0.00  0.00    -0.278 N 
ATOM      5  N   UNL     1     -16.581   2.344  27.599  0.00  0.00    -0.293 NA
ATOM      6  N   UNL     1     -16.245   4.096  23.329  0.00  0.00    -0.279 N 
ATOM      8  C   UNL     1     -15.801   3.445  25.540  0.00  0.00    +0.109 C 
ATOM      9  C   UNL     1     -16.475   3.639  26.897  0.00  0.00    +0.109 C 
ATOM     10  C   UNL     1     -15.860   4.656  24.613  0.00  0.00    +0.133 C 
ATOM     11  C   UNL     1     -16.760   1.139  25.432  0.00  0.00    +0.125 C 
ATOM     12  C   UNL     1     -17.379   1.382  26.811  0.00  0.00    +0.104 C 
ATOM     13  C   UNL     1     -16.669   2.757  23.446  0.00  0.00    +0.305 C 
ENDROOT
BRANCH   5  14
ATOM     14  C   UNL     1     -17.170   2.529  28.924  0.00  0.00    +0.140 C 
BRANCH  14  17
ATOM      7  N   UNL     1     -16.222   3.057  31.097  0.00  0.00    -0.217 NA
ATOM     17  C   UNL     1     -16.187   2.239  30.021  0.00  0.00    +0.059 A 
ATOM     20  C   UNL     1     -15.314   1.172  29.886  0.00  0.00    +0.025 A 
ATOM     23  C   UNL     1     -14.418   0.928  30.922  0.00  0.00    +0.007 A 
ATOM     24  C   UNL     1     -15.337   2.790  32.084  0.00  0.00    +0.215 A 
ATOM     26  C   UNL     1     -14.424   1.748  32.045  0.00  0.00    +0.067 A 
BRANCH  24   3
ATOM      3  O   UNL     1     -15.363   3.611  33.180  0.00  0.00    -0.480 OA
ATOM     27  C   UNL     1     -15.985   4.879  33.016  0.00  0.00    +0.279 C 
ENDBRANCH  24   3
ENDBRANCH  14  17
ENDBRANCH   5  14
BRANCH   6  15
ATOM     15  C   UNL     1     -16.311   4.901  22.130  0.00  0.00    +0.144 C 
BRANCH  15  16
ATOM      1  F   UNL     1     -11.363   7.304  20.927  0.00  0.00    -0.205 F 
ATOM     16  C   UNL     1     -14.992   5.542  21.809  0.00  0.00    -0.030 A 
ATOM     18  C   UNL     1     -14.955   6.779  21.167  0.00  0.00    +0.008 A 
ATOM     19  C   UNL     1     -13.803   4.899  22.153  0.00  0.00    +0.008 A 
ATOM     21  C   UNL     1     -13.729   7.375  20.869  0.00  0.00    +0.038 A 
ATOM     22  C   UNL     1     -12.577   5.495  21.855  0.00  0.00    +0.038 A 
ATOM     25  C   UNL     1     -12.540   6.732  21.213  0.00  0.00    +0.123 A 
ENDBRANCH  15  16
ENDBRANCH   6  15
TORSDOF 5
ENDMDL
MODEL 4
REMARK VINA RESULT:      -6.7     31.730     34.770
REMARK  Name = 75537092
REMARK  6 active torsions:
REMARK  status: ('A' for Active; 'I' for Inactive)
REMARK    1  A    between atoms: O_3  and  C_24
REMARK    2  A    between atoms: O_3  and  C_27
REMARK    3  A    between atoms: N_5  and  C_14
REMARK    4  A    between atoms: N_6  and  C_15
REMARK    5  A    between atoms: C_14  and  C_17
REMARK    6  A    between atoms: C_15  and  C_16
REMARK                            x       y       z     vdW  Elec       q    Type
REMARK                         _______ _______ _______ _____ _____    ______ ____
ROOT
ATOM      2  O   UNL     1      20.029   8.662  23.419  0.00  0.00    -0.252 OA
ATOM      4  N   UNL     1      18.743   7.889  21.612  0.00  0.00    -0.278 N 
ATOM      5  N   UNL     1      16.463   7.164  20.133  0.00  0.00    -0.293 NA
ATOM      6  N   UNL     1      20.607   6.758  22.151  0.00  0.00    -0.279 N 
ATOM      8  C   UNL     1      18.866   6.878  20.582  0.00  0.00    +0.109 C 
ATOM      9  C   UNL     1      17.530   6.169  20.369  0.00  0.00    +0.109 C 
ATOM     10  C   UNL     1      19.996   5.983  21.086  0.00  0.00    +0.133 C 
ATOM     11  C   UNL     1      17.640   8.826  21.557  0.00  0.00    +0.125 C 
ATOM     12  C   UNL     1      16.332   8.080  21.285  0.00  0.00    +0.104 C 
ATOM     13  C   UNL     1      19.821   7.873  22.507  0.00  0.00    +0.305 C 
ENDROOT
BRANCH   5  14
ATOM     14  C   UNL     1      15.191   6.492  19.869  0.00  0.00    +0.140 C 
BRANCH  14  17
ATOM      7  N   UNL     1      12.962   7.449  19.743  0.00  0.00    -0.217 NA
ATOM     17  C   UNL     1      14.201   7.405  19.204  0.00  0.00    +0.059 A 
ATOM     20  C   UNL     1      14.594   8.143  18.099  0.00  0.00    +0.025 A 
ATOM     23  C   UNL     1      13.654   8.981  17.509  0.00  0.00    +0.007 A 
ATOM     24  C   UNL     1      12.075   8.274  19.142  0.00  0.00    +0.215 A 
ATOM     26  C   UNL     1      12.369   9.053  18.033  0.00  0.00    +0.067 A 
BRANCH  24   3
ATOM      3  O   UNL     1      10.816   8.330  19.678  0.00  0.00    -0.480 OA
ATOM     27  C   UNL     1      10.697   8.033  21.064  0.00  0.00    +0.279 C 
ENDBRANCH  24   3
ENDBRANCH  14  17
ENDBRANCH   5  14
BRANCH   6  15
ATOM     15  C   UNL     1      21.801   6.314  22.835  0.00  0.00    +0.144 C 
BRANCH  15  16
ATOM      1  F   UNL     1      24.441   2.217  20.015  0.00  0.00    -0.205 F 
ATOM     16  C   UNL     1      22.505   5.222  22.083  0.00  0.00    -0.030 A 
ATOM     18  C   UNL     1      23.343   5.538  21.014  0.00  0.00    +0.008 A 
ATOM     19  C   UNL     1      22.320   3.889  22.454  0.00  0.00    +0.008 A 
ATOM     21  C   UNL     1      23.997   4.523  20.315  0.00  0.00    +0.038 A 
ATOM     22  C   UNL     1      22.975   2.875  21.755  0.00  0.00    +0.038 A 
ATOM     25  C   UNL     1      23.813   3.191  20.686  0.00  0.00    +0.123 A 
ENDBRANCH  15  16
ENDBRANCH   6  15
TORSDOF 5
ENDMDL
MODEL 5
REMARK VINA RESULT:      -6.6     15.681     16.934
REMARK  Name = 75537092
REMARK  6 active torsions:
REMARK  status: ('A' for Active; 'I' for Inactive)
REMARK    1  A    between atoms: O_3  and  C_24
REMARK    2  A    between atoms: O_3  and  C_27
REMARK    3  A    between atoms: N_5  and  C_14
REMARK    4  A    between atoms: N_6  and  C_15
REMARK    5  A    between atoms: C_14  and  C_17
REMARK    6  A    between atoms: C_15  and  C_16
REMARK                            x       y       z     vdW  Elec       q    Type
REMARK                         _______ _______ _______ _____ _____    ______ ____
ROOT
ATOM      2  O   UNL     1     -12.816  -9.005  13.683  0.00  0.00    -0.252 OA
ATOM      4  N   UNL     1     -10.864  -8.895  14.986  0.00  0.00    -0.278 N 
ATOM      5  N   UNL     1      -8.973  -9.598  16.946  0.00  0.00    -0.293 NA
ATOM      6  N   UNL     1     -11.994  -6.992  14.600  0.00  0.00    -0.279 N 
ATOM      8  C   UNL     1     -10.039  -7.858  15.569  0.00  0.00    +0.109 C 
ATOM      9  C   UNL     1      -9.596  -8.258  16.975  0.00  0.00    +0.109 C 
ATOM     10  C   UNL     1     -10.921  -6.613  15.503  0.00  0.00    +0.133 C 
ATOM     11  C   UNL     1     -10.414 -10.270  15.036  0.00  0.00    +0.125 C 
ATOM     12  C   UNL     1      -9.925 -10.611  16.446  0.00  0.00    +0.104 C 
ATOM     13  C   UNL     1     -11.993  -8.377  14.336  0.00  0.00    +0.305 C 
ENDROOT
BRANCH   5  14
ATOM     14  C   UNL     1      -8.492  -9.965  18.277  0.00  0.00    +0.140 C 
BRANCH  14  17
ATOM      7  N   UNL     1      -6.364 -10.170  17.123  0.00  0.00    -0.217 NA
ATOM     17  C   UNL     1      -7.065 -10.431  18.250  0.00  0.00    +0.059 A 
ATOM     20  C   UNL     1      -6.544 -11.088  19.353  0.00  0.00    +0.025 A 
ATOM     23  C   UNL     1      -5.218 -11.504  19.297  0.00  0.00    +0.007 A 
ATOM     24  C   UNL     1      -5.080 -10.590  17.105  0.00  0.00    +0.215 A 
ATOM     26  C   UNL     1      -4.465 -11.255  18.155  0.00  0.00    +0.067 A 
BRANCH  24   3
ATOM      3  O   UNL     1      -4.358 -10.332  15.969  0.00  0.00    -0.480 OA
ATOM     27  C   UNL     1      -2.999 -10.753  15.965  0.00  0.00    +0.279 C 
ENDBRANCH  24   3
ENDBRANCH  14  17
ENDBRANCH   5  14
BRANCH   6  15
ATOM     15  C   UNL     1     -13.005  -6.051  14.173  0.00  0.00    +0.144 C 
BRANCH  15  16
ATOM      1  F   UNL     1     -11.538  -3.389   9.433  0.00  0.00    -0.205 F 
ATOM     16  C   UNL     1     -12.614  -5.342  12.910  0.00  0.00    -0.030 A 
ATOM     18  C   UNL     1     -12.402  -6.068  11.738  0.00  0.00    +0.008 A 
ATOM     19  C   UNL     1     -12.462  -3.955  12.907  0.00  0.00    +0.008 A 
ATOM     21  C   UNL     1     -12.038  -5.409  10.563  0.00  0.00    +0.038 A 
ATOM     22  C   UNL     1     -12.098  -3.296  11.732  0.00  0.00    +0.038 A 
ATOM     25  C   UNL     1     -11.886  -4.023  10.561  0.00  0.00    +0.123 A 
ENDBRANCH  15  16
ENDBRANCH   6  15
TORSDOF 5
ENDMDL
MODEL 6
REMARK VINA RESULT:      -6.6     32.726     36.714
REMARK  Name = 75537092
REMARK  6 active torsions:
REMARK  status: ('A' for Active; 'I' for Inactive)
REMARK    1  A    between atoms: O_3  and  C_24
REMARK    2  A    between atoms: O_3  and  C_27
REMARK    3  A    between atoms: N_5  and  C_14
REMARK    4  A    between atoms: N_6  and  C_15
REMARK    5  A    between atoms: C_14  and  C_17
REMARK    6  A    between atoms: C_15  and  C_16
REMARK                            x       y       z     vdW  Elec       q    Type
REMARK                         _______ _______ _______ _____ _____    ______ ____
ROOT
ATOM      2  O   UNL     1      16.312   9.973   3.024  0.00  0.00    -0.252 OA
ATOM      4  N   UNL     1      14.935   8.617   4.360  0.00  0.00    -0.278 N 
ATOM      5  N   UNL     1      12.613   7.710   5.662  0.00  0.00    -0.293 NA
ATOM      6  N   UNL     1      16.983   9.134   5.124  0.00  0.00    -0.279 N 
ATOM      8  C   UNL     1      15.069   7.856   5.585  0.00  0.00    +0.109 C 
ATOM      9  C   UNL     1      13.822   8.021   6.452  0.00  0.00    +0.109 C 
ATOM     10  C   UNL     1      16.358   8.390   6.204  0.00  0.00    +0.133 C 
ATOM     11  C   UNL     1      13.720   8.499   3.582  0.00  0.00    +0.125 C 
ATOM     12  C   UNL     1      12.498   8.611   4.497  0.00  0.00    +0.104 C 
ATOM     13  C   UNL     1      16.104   9.320   4.038  0.00  0.00    +0.305 C 
ENDROOT
BRANCH   5  14
ATOM     14  C   UNL     1      11.418   7.807   6.500  0.00  0.00    +0.140 C 
BRANCH  14  17
ATOM      7  N   UNL     1      10.730   6.060   8.041  0.00  0.00    -0.217 NA
ATOM     17  C   UNL     1      10.798   6.463   6.752  0.00  0.00    +0.059 A 
ATOM     20  C   UNL     1      10.333   5.718   5.680  0.00  0.00    +0.025 A 
ATOM     23  C   UNL     1       9.761   4.479   5.948  0.00  0.00    +0.007 A 
ATOM     24  C   UNL     1      10.168   4.850   8.262  0.00  0.00    +0.215 A 
ATOM     26  C   UNL     1       9.674   4.029   7.261  0.00  0.00    +0.067 A 
BRANCH  24   3
ATOM      3  O   UNL     1      10.092   4.430   9.564  0.00  0.00    -0.480 OA
ATOM     27  C   UNL     1       8.867   4.674  10.245  0.00  0.00    +0.279 C 
ENDBRANCH  24   3
ENDBRANCH  14  17
ENDBRANCH   5  14
BRANCH   6  15
ATOM     15  C   UNL     1      18.297   9.722   5.258  0.00  0.00    +0.144 C 
BRANCH  15  16
ATOM      1  F   UNL     1      22.389   5.961   4.358  0.00  0.00    -0.205 F 
ATOM     16  C   UNL     1      19.388   8.720   5.018  0.00  0.00    -0.030 A 
ATOM     18  C   UNL     1      20.152   8.251   6.086  0.00  0.00    +0.008 A 
ATOM     19  C   UNL     1      19.638   8.257   3.726  0.00  0.00    +0.008 A 
ATOM     21  C   UNL     1      21.166   7.319   5.864  0.00  0.00    +0.038 A 
ATOM     22  C   UNL     1      20.652   7.325   3.504  0.00  0.00    +0.038 A 
ATOM     25  C   UNL     1      21.416   6.856   4.572  0.00  0.00    +0.123 A 
ENDBRANCH  15  16
ENDBRANCH   6  15
TORSDOF 5
ENDMDL
MODEL 7
REMARK VINA RESULT:      -6.5     30.642     33.527
REMARK  Name = 75537092
REMARK  6 active torsions:
REMARK  status: ('A' for Active; 'I' for Inactive)
REMARK    1  A    between atoms: O_3  and  C_24
REMARK    2  A    between atoms: O_3  and  C_27
REMARK    3  A    between atoms: N_5  and  C_14
REMARK    4  A    between atoms: N_6  and  C_15
REMARK    5  A    between atoms: C_14  and  C_17
REMARK    6  A    between atoms: C_15  and  C_16
REMARK                            x       y       z     vdW  Elec       q    Type
REMARK                         _______ _______ _______ _____ _____    ______ ____
ROOT
ATOM      2  O   UNL     1      18.557   5.171  19.395  0.00  0.00    -0.252 OA
ATOM      4  N   UNL     1      17.212   6.790  20.440  0.00  0.00    -0.278 N 
ATOM      5  N   UNL     1      15.137   8.659  20.777  0.00  0.00    -0.293 NA
ATOM      6  N   UNL     1      19.442   6.965  20.647  0.00  0.00    -0.279 N 
ATOM      8  C   UNL     1      17.406   7.898  21.352  0.00  0.00    +0.109 C 
ATOM      9  C   UNL     1      16.542   9.087  20.936  0.00  0.00    +0.109 C 
ATOM     10  C   UNL     1      18.912   8.148  21.302  0.00  0.00    +0.133 C 
ATOM     11  C   UNL     1      15.866   6.381  20.098  0.00  0.00    +0.125 C 
ATOM     12  C   UNL     1      15.020   7.608  19.745  0.00  0.00    +0.104 C 
ATOM     13  C   UNL     1      18.420   6.178  20.078  0.00  0.00    +0.305 C 
ENDROOT
BRANCH   5  14
ATOM     14  C   UNL     1      14.292   9.802  20.437  0.00  0.00    +0.140 C 
BRANCH  14  17
ATOM      7  N   UNL     1      13.224  10.709  22.421  0.00  0.00    -0.217 NA
ATOM     17  C   UNL     1      13.097   9.906  21.340  0.00  0.00    +0.059 A 
ATOM     20  C   UNL     1      11.948   9.196  21.032  0.00  0.00    +0.025 A 
ATOM     23  C   UNL     1      10.859   9.317  21.888  0.00  0.00    +0.007 A 
ATOM     24  C   UNL     1      12.145  10.801  23.230  0.00  0.00    +0.215 A 
ATOM     26  C   UNL     1      10.951  10.132  23.010  0.00  0.00    +0.067 A 
BRANCH  24   3
ATOM      3  O   UNL     1      12.259  11.611  24.329  0.00  0.00    -0.480 OA
ATOM     27  C   UNL     1      11.094  11.773  25.129  0.00  0.00    +0.279 C 
ENDBRANCH  24   3
ENDBRANCH  14  17
ENDBRANCH   5  14
BRANCH   6  15
ATOM     15  C   UNL     1      20.862   6.745  20.494  0.00  0.00    +0.144 C 
BRANCH  15  16
ATOM      1  F   UNL     1      22.743   2.665  23.889  0.00  0.00    -0.205 F 
ATOM     16  C   UNL     1      21.363   5.658  21.399  0.00  0.00    -0.030 A 
ATOM     18  C   UNL     1      21.441   4.344  20.936  0.00  0.00    +0.008 A 
ATOM     19  C   UNL     1      21.752   5.960  22.704  0.00  0.00    +0.008 A 
ATOM     21  C   UNL     1      21.907   3.333  21.776  0.00  0.00    +0.038 A 
ATOM     22  C   UNL     1      22.217   4.949  23.545  0.00  0.00    +0.038 A 
ATOM     25  C   UNL     1      22.295   3.636  23.082  0.00  0.00    +0.123 A 
ENDBRANCH  15  16
ENDBRANCH   6  15
TORSDOF 5
ENDMDL
MODEL 8
REMARK VINA RESULT:      -6.4     17.431     19.269
REMARK  Name = 75537092
REMARK  6 active torsions:
REMARK  status: ('A' for Active; 'I' for Inactive)
REMARK    1  A    between atoms: O_3  and  C_24
REMARK    2  A    between atoms: O_3  and  C_27
REMARK    3  A    between atoms: N_5  and  C_14
REMARK    4  A    between atoms: N_6  and  C_15
REMARK    5  A    between atoms: C_14  and  C_17
REMARK    6  A    between atoms: C_15  and  C_16
REMARK                            x       y       z     vdW  Elec       q    Type
REMARK                         _______ _______ _______ _____ _____    ______ ____
ROOT
ATOM      2  O   UNL     1     -10.574 -11.788  16.603  0.00  0.00    -0.252 OA
ATOM      4  N   UNL     1      -8.325 -11.224  16.224  0.00  0.00    -0.278 N 
ATOM      5  N   UNL     1      -5.532 -11.523  16.079  0.00  0.00    -0.293 NA
ATOM      6  N   UNL     1      -9.625  -9.745  17.305  0.00  0.00    -0.279 N 
ATOM      8  C   UNL     1      -7.484 -10.057  16.394  0.00  0.00    +0.109 C 
ATOM      9  C   UNL     1      -6.113 -10.464  16.930  0.00  0.00    +0.109 C 
ATOM     10  C   UNL     1      -8.297  -9.158  17.323  0.00  0.00    +0.133 C 
ATOM     11  C   UNL     1      -7.799 -12.381  15.531  0.00  0.00    +0.125 C 
ATOM     12  C   UNL     1      -6.402 -12.717  16.058  0.00  0.00    +0.104 C 
ATOM     13  C   UNL     1      -9.629 -11.015  16.695  0.00  0.00    +0.305 C 
ENDROOT
BRANCH   5  14
ATOM     14  C   UNL     1      -4.194 -11.877  16.549  0.00  0.00    +0.140 C 
BRANCH  14  17
ATOM      7  N   UNL     1      -3.365 -11.007  14.438  0.00  0.00    -0.217 NA
ATOM     17  C   UNL     1      -3.120 -11.191  15.755  0.00  0.00    +0.059 A 
ATOM     20  C   UNL     1      -1.958 -10.785  16.393  0.00  0.00    +0.025 A 
ATOM     23  C   UNL     1      -0.985 -10.149  15.629  0.00  0.00    +0.007 A 
ATOM     24  C   UNL     1      -2.396 -10.386  13.729  0.00  0.00    +0.215 A 
ATOM     26  C   UNL     1      -1.200  -9.943  14.271  0.00  0.00    +0.067 A 
BRANCH  24   3
ATOM      3  O   UNL     1      -2.632 -10.193  12.393  0.00  0.00    -0.480 OA
ATOM     27  C   UNL     1      -3.977 -10.337  11.953  0.00  0.00    +0.279 C 
ENDBRANCH  24   3
ENDBRANCH  14  17
ENDBRANCH   5  14
BRANCH   6  15
ATOM     15  C   UNL     1     -10.745  -9.128  17.980  0.00  0.00    +0.144 C 
BRANCH  15  16
ATOM      1  F   UNL     1     -13.415  -5.426  14.682  0.00  0.00    -0.205 F 
ATOM     16  C   UNL     1     -11.457  -8.142  17.101  0.00  0.00    -0.030 A 
ATOM     18  C   UNL     1     -12.741  -8.421  16.635  0.00  0.00    +0.008 A 
ATOM     19  C   UNL     1     -10.833  -6.945  16.749  0.00  0.00    +0.008 A 
ATOM     21  C   UNL     1     -13.403  -7.505  15.818  0.00  0.00    +0.038 A 
ATOM     22  C   UNL     1     -11.495  -6.028  15.932  0.00  0.00    +0.038 A 
ATOM     25  C   UNL     1     -12.780  -6.307  15.466  0.00  0.00    +0.123 A 
ENDBRANCH  15  16
ENDBRANCH   6  15
TORSDOF 5
ENDMDL
MODEL 9
REMARK VINA RESULT:      -6.3     19.197     21.389
REMARK  Name = 75537092
REMARK  6 active torsions:
REMARK  status: ('A' for Active; 'I' for Inactive)
REMARK    1  A    between atoms: O_3  and  C_24
REMARK    2  A    between atoms: O_3  and  C_27
REMARK    3  A    between atoms: N_5  and  C_14
REMARK    4  A    between atoms: N_6  and  C_15
REMARK    5  A    between atoms: C_14  and  C_17
REMARK    6  A    between atoms: C_15  and  C_16
REMARK                            x       y       z     vdW  Elec       q    Type
REMARK                         _______ _______ _______ _____ _____    ______ ____
ROOT
ATOM      2  O   UNL     1      -7.752 -11.383   7.838  0.00  0.00    -0.252 OA
ATOM      4  N   UNL     1      -8.803  -9.533   8.836  0.00  0.00    -0.278 N 
ATOM      5  N   UNL     1     -10.745  -7.552   9.299  0.00  0.00    -0.293 NA
ATOM      6  N   UNL     1      -6.598  -9.411   8.426  0.00  0.00    -0.279 N 
ATOM      8  C   UNL     1      -8.395  -8.273   9.420  0.00  0.00    +0.109 C 
ATOM      9  C   UNL     1      -9.353  -7.158   9.003  0.00  0.00    +0.109 C 
ATOM     10  C   UNL     1      -6.957  -8.099   8.936  0.00  0.00    +0.133 C 
ATOM     11  C   UNL     1     -10.187  -9.947   8.940  0.00  0.00    +0.125 C 
ATOM     12  C   UNL     1     -11.111  -8.784   8.571  0.00  0.00    +0.104 C 
ATOM     13  C   UNL     1      -7.722 -10.254   8.311  0.00  0.00    +0.305 C 
ENDROOT
BRANCH   5  14
ATOM     14  C   UNL     1     -11.665  -6.467   8.959  0.00  0.00    +0.140 C 
BRANCH  14  17
ATOM      7  N   UNL     1     -12.319  -6.133  11.274  0.00  0.00    -0.217 NA
ATOM     17  C   UNL     1     -11.910  -5.552  10.124  0.00  0.00    +0.059 A 
ATOM     20  C   UNL     1     -11.707  -4.190   9.971  0.00  0.00    +0.025 A 
ATOM     23  C   UNL     1     -11.940  -3.371  11.071  0.00  0.00    +0.007 A 
ATOM     24  C   UNL     1     -12.536  -5.305  12.321  0.00  0.00    +0.215 A 
ATOM     26  C   UNL     1     -12.363  -3.931  12.271  0.00  0.00    +0.067 A 
BRANCH  24   3
ATOM      3  O   UNL     1     -12.950  -5.881  13.493  0.00  0.00    -0.480 OA
ATOM     27  C   UNL     1     -12.173  -6.967  13.982  0.00  0.00    +0.279 C 
ENDBRANCH  24   3
ENDBRANCH  14  17
ENDBRANCH   5  14
BRANCH   6  15
ATOM     15  C   UNL     1      -5.263  -9.715   7.963  0.00  0.00    +0.144 C 
BRANCH  15  16
ATOM      1  F   UNL     1      -1.866 -11.241  12.187  0.00  0.00    -0.205 F 
ATOM     16  C   UNL     1      -4.357 -10.122   9.089  0.00  0.00    -0.030 A 
ATOM     18  C   UNL     1      -3.525  -9.178   9.691  0.00  0.00    +0.008 A 
ATOM     19  C   UNL     1      -4.347 -11.444   9.533  0.00  0.00    +0.008 A 
ATOM     21  C   UNL     1      -2.683  -9.556  10.738  0.00  0.00    +0.038 A 
ATOM     22  C   UNL     1      -3.506 -11.821  10.580  0.00  0.00    +0.038 A 
ATOM     25  C   UNL     1      -2.674 -10.878  11.182  0.00  0.00    +0.123 A 
ENDBRANCH  15  16
ENDBRANCH   6  15
TORSDOF 5
ENDMDL
MODEL 10
REMARK VINA RESULT:      -6.2     30.920     34.124
REMARK  Name = 75537092
REMARK  6 active torsions:
REMARK  status: ('A' for Active; 'I' for Inactive)
REMARK    1  A    between atoms: O_3  and  C_24
REMARK    2  A    between atoms: O_3  and  C_27
REMARK    3  A    between atoms: N_5  and  C_14
REMARK    4  A    between atoms: N_6  and  C_15
REMARK    5  A    between atoms: C_14  and  C_17
REMARK    6  A    between atoms: C_15  and  C_16
REMARK                            x       y       z     vdW  Elec       q    Type
REMARK                         _______ _______ _______ _____ _____    ______ ____
ROOT
ATOM      2  O   UNL     1      18.474   5.170  19.613  0.00  0.00    -0.252 OA
ATOM      4  N   UNL     1      17.180   6.827  20.661  0.00  0.00    -0.278 N 
ATOM      5  N   UNL     1      15.117   8.704  21.032  0.00  0.00    -0.293 NA
ATOM      6  N   UNL     1      19.416   7.017  20.739  0.00  0.00    -0.279 N 
ATOM      8  C   UNL     1      17.418   7.974  21.514  0.00  0.00    +0.109 C 
ATOM      9  C   UNL     1      16.527   9.142  21.096  0.00  0.00    +0.109 C 
ATOM     10  C   UNL     1      18.917   8.226  21.371  0.00  0.00    +0.133 C 
ATOM     11  C   UNL     1      15.819   6.402  20.411  0.00  0.00    +0.125 C 
ATOM     12  C   UNL     1      14.949   7.610  20.053  0.00  0.00    +0.104 C 
ATOM     13  C   UNL     1      18.369   6.204  20.260  0.00  0.00    +0.305 C 
ENDROOT
BRANCH   5  14
ATOM     14  C   UNL     1      14.249   9.830  20.691  0.00  0.00    +0.140 C 
BRANCH  14  17
ATOM      7  N   UNL     1      12.736   9.269  18.876  0.00  0.00    -0.217 NA
ATOM     17  C   UNL     1      13.904   9.851  19.230  0.00  0.00    +0.059 A 
ATOM     20  C   UNL     1      14.774  10.453  18.336  0.00  0.00    +0.025 A 
ATOM     23  C   UNL     1      14.423  10.458  16.990  0.00  0.00    +0.007 A 
ATOM     24  C   UNL     1      12.429   9.293  17.559  0.00  0.00    +0.215 A 
ATOM     26  C   UNL     1      13.230   9.869  16.586  0.00  0.00    +0.067 A 
BRANCH  24   3
ATOM      3  O   UNL     1      11.247   8.707  17.187  0.00  0.00    -0.480 OA
ATOM     27  C   UNL     1      10.786   8.979  15.869  0.00  0.00    +0.279 C 
ENDBRANCH  24   3
ENDBRANCH  14  17
ENDBRANCH   5  14
BRANCH   6  15
ATOM     15  C   UNL     1      20.828   6.794  20.517  0.00  0.00    +0.144 C 
BRANCH  15  16
ATOM      1  F   UNL     1      22.822   2.591  23.690  0.00  0.00    -0.205 F 
ATOM     16  C   UNL     1      21.359   5.674  21.363  0.00  0.00    -0.030 A 
ATOM     18  C   UNL     1      21.512   4.400  20.817  0.00  0.00    +0.008 A 
ATOM     19  C   UNL     1      21.701   5.907  22.695  0.00  0.00    +0.008 A 
ATOM     21  C   UNL     1      22.006   3.358  21.603  0.00  0.00    +0.038 A 
ATOM     22  C   UNL     1      22.195   4.865  23.481  0.00  0.00    +0.038 A 
ATOM     25  C   UNL     1      22.347   3.591  22.935  0.00  0.00    +0.123 A 
ENDBRANCH  15  16
ENDBRANCH   6  15
TORSDOF 5
ENDMDL
