REMARK  Name = 75536260
REMARK  8 active torsions:
REMARK  status: ('A' for Active; 'I' for Inactive)
REMARK    1  A    between atoms: O_3  and  C_9
REMARK    2  A    between atoms: N_5  and  C_13
REMARK    3  A    between atoms: N_5  and  C_16
REMARK    4  A    between atoms: C_8  and  C_13
REMARK    5  A    between atoms: C_10  and  C_14
REMARK    6  A    between atoms: C_14  and  C_15
REMARK    7  A    between atoms: C_16  and  C_19
REMARK    8  A    between atoms: C_18  and  C_20
REMARK                            x       y       z     vdW  Elec       q    Type
REMARK                         _______ _______ _______ _____ _____    ______ ____
ROOT
ATOM      2  O   UNL     1       3.085  -0.491   0.863  0.00  0.00    -0.369 OA
ATOM      8  C   UNL     1       3.764   0.771   0.830  0.00  0.00    +0.161 C 
ATOM      9  C   UNL     1       5.270   0.588   0.600  0.00  0.00    +0.145 C 
ATOM     10  C   UNL     1       3.280  -1.317  -0.287  0.00  0.00    +0.125 C 
ATOM     11  C   UNL     1       5.571  -0.331  -0.581  0.00  0.00    +0.036 C 
ATOM     12  C   UNL     1       4.764  -1.623  -0.486  0.00  0.00    +0.034 C 
ENDROOT
BRANCH   9   3
ATOM      3  O   UNL     1       5.847  -0.001   1.769  0.00  0.00    -0.389 OA
ATOM     30  H   UNL     1       6.806  -0.065   1.623  0.00  0.00    +0.210 HD
ENDBRANCH   9   3
BRANCH   8  13
ATOM     13  C   UNL     1       3.118   1.718  -0.179  0.00  0.00    +0.115 C 
BRANCH  13   5
ATOM      5  N   UNL     1       1.698   1.877   0.095  0.00  0.00    -0.308 NA
ATOM     31  H   UNL     1       1.243   0.965   0.048  0.00  0.00    +0.122 HD
BRANCH   5  16
ATOM     16  C   UNL     1       1.080   2.788  -0.860  0.00  0.00    +0.136 C 
BRANCH  16  19
ATOM      7  N   UNL     1      -0.750   4.137   0.007  0.00  0.00    -0.259 NA
ATOM     19  C   UNL     1      -0.388   2.977  -0.585  0.00  0.00    +0.055 A 
ATOM     21  C   UNL     1      -1.279   1.978  -0.943  0.00  0.00    +0.024 A 
ATOM     24  C   UNL     1      -2.628   2.183  -0.677  0.00  0.00    +0.003 A 
ATOM     25  C   UNL     1      -2.070   4.301   0.250  0.00  0.00    +0.111 A 
ATOM     26  C   UNL     1      -3.039   3.365  -0.069  0.00  0.00    +0.020 A 
ENDBRANCH  16  19
ENDBRANCH   5  16
ENDBRANCH  13   5
ENDBRANCH   8  13
BRANCH  10  14
ATOM     14  C   UNL     1       2.486  -2.600  -0.070  0.00  0.00    +0.090 C 
BRANCH  14  15
ATOM      4  O   UNL     1      -0.837  -2.322  -1.439  0.00  0.00    -0.354 OA
ATOM      6  N   UNL     1       0.522  -2.591  -1.554  0.00  0.00    -0.083 NA
ATOM     15  C   UNL     1       1.017  -2.397  -0.328  0.00  0.00    +0.087 A 
ATOM     17  C   UNL     1       0.028  -2.008   0.592  0.00  0.00    +0.076 A 
ATOM     18  C   UNL     1      -1.118  -1.976  -0.157  0.00  0.00    +0.167 A 
BRANCH  18  20
ATOM      1  F   UNL     1      -6.449  -0.791   0.907  0.00  0.00    -0.205 F 
ATOM     20  C   UNL     1      -2.492  -1.669   0.117  0.00  0.00    +0.020 A 
ATOM     22  C   UNL     1      -2.882  -1.305   1.406  0.00  0.00    +0.014 A 
ATOM     23  C   UNL     1      -3.439  -1.736  -0.905  0.00  0.00    +0.014 A 
ATOM     27  C   UNL     1      -4.218  -1.008   1.673  0.00  0.00    +0.039 A 
ATOM     28  C   UNL     1      -4.776  -1.440  -0.638  0.00  0.00    +0.039 A 
ATOM     29  C   UNL     1      -5.165  -1.075   0.651  0.00  0.00    +0.123 A 
ENDBRANCH  18  20
ENDBRANCH  14  15
ENDBRANCH  10  14
TORSDOF 8
