MODEL 1
REMARK VINA RESULT:      -7.2      0.000      0.000
REMARK  Name = 11882876
REMARK  5 active torsions:
REMARK  status: ('A' for Active; 'I' for Inactive)
REMARK    1  A    between atoms: O_6  and  C_27
REMARK    2  A    between atoms: O_6  and  C_34
REMARK    3  A    between atoms: N_8  and  C_11
REMARK    4  A    between atoms: C_19  and  C_24
REMARK    5  A    between atoms: C_22  and  C_25
REMARK                            x       y       z     vdW  Elec       q    Type
REMARK                         _______ _______ _______ _____ _____    ______ ____
ROOT
ATOM      3  O   UNL     1      21.445   8.281  21.769  0.00  0.00    -0.273 OA
ATOM      4  O   UNL     1      17.716   5.822  19.076  0.00  0.00    -0.270 OA
ATOM      7  N   UNL     1      19.289   6.043  20.770  0.00  0.00    -0.286 N 
ATOM      9  N   UNL     1      19.337   8.969  21.211  0.00  0.00    -0.283 N 
ATOM     10  C   UNL     1      19.663   6.676  22.029  0.00  0.00    +0.164 C 
ATOM     11  C   UNL     1      21.663   5.072  22.164  0.00  0.00    +0.077 C 
ATOM     12  C   UNL     1      20.574   5.829  22.925  0.00  0.00    +0.054 C 
ATOM     13  C   UNL     1      21.027   4.273  21.032  0.00  0.00    +0.041 C 
ATOM     14  C   UNL     1      20.274   5.198  20.089  0.00  0.00    +0.111 C 
ATOM     15  C   UNL     1      20.247   8.023  21.644  0.00  0.00    +0.238 C 
ATOM     16  C   UNL     1      18.125   6.396  20.087  0.00  0.00    +0.249 C 
ATOM     17  C   UNL     1      17.357   7.582  20.552  0.00  0.00    +0.059 A 
ATOM     18  C   UNL     1      17.958   8.789  20.955  0.00  0.00    +0.046 A 
ATOM     20  C   UNL     1      15.964   7.528  20.371  0.00  0.00    +0.023 A 
ATOM     21  C   UNL     1      17.155   9.931  21.105  0.00  0.00    +0.024 A 
ATOM     22  C   UNL     1      15.176   8.660  20.572  0.00  0.00    -0.014 A 
ATOM     23  C   UNL     1      15.772   9.864  20.925  0.00  0.00    +0.010 A 
ATOM     36  H   UNL     1      19.681   9.926  21.168  0.00  0.00    +0.155 HD
ENDROOT
BRANCH  22  25
ATOM      1 CL   UNL     1      10.525   8.079  22.714  0.00  0.00    -0.084 Cl
ATOM     25  C   UNL     1      13.743   8.587  20.388  0.00  0.00    +0.025 A 
ATOM     27  C   UNL     1      13.175   8.710  19.119  0.00  0.00    +0.128 A 
ATOM     28  C   UNL     1      12.921   8.392  21.499  0.00  0.00    +0.032 A 
ATOM     31  C   UNL     1      11.792   8.639  18.961  0.00  0.00    +0.047 A 
ATOM     32  C   UNL     1      11.537   8.320  21.342  0.00  0.00    +0.042 A 
ATOM     33  C   UNL     1      10.973   8.443  20.073  0.00  0.00    +0.023 A 
BRANCH  27   6
ATOM      6  O   UNL     1      13.953   8.902  18.015  0.00  0.00    -0.495 OA
ATOM     34  C   UNL     1      14.060   7.813  17.102  0.00  0.00    +0.277 C 
ENDBRANCH  27   6
ENDBRANCH  22  25
BRANCH  11   8
ATOM      5  O   UNL     1      24.369   4.328  21.878  0.00  0.00    -0.270 OA
ATOM      8  N   UNL     1      22.399   4.204  23.054  0.00  0.00    -0.308 N 
ATOM     19  C   UNL     1      23.739   3.885  22.840  0.00  0.00    +0.251 C 
ATOM     35  H   UNL     1      21.916   3.876  23.882  0.00  0.00    +0.149 HD
BRANCH  19  24
ATOM      2  S   UNL     1      25.981   3.293  24.244  0.00  0.00    -0.092 S 
ATOM     24  C   UNL     1      24.359   3.017  23.851  0.00  0.00    +0.074 A 
ATOM     26  C   UNL     1      23.781   1.997  24.524  0.00  0.00    +0.021 A 
ATOM     29  C   UNL     1      24.712   1.396  25.420  0.00  0.00    +0.008 A 
ATOM     30  C   UNL     1      25.946   2.004  25.369  0.00  0.00    +0.046 A 
ENDBRANCH  19  24
ENDBRANCH  11   8
TORSDOF 4
ENDMDL
MODEL 2
REMARK VINA RESULT:      -7.1     15.007     19.625
REMARK  Name = 11882876
REMARK  5 active torsions:
REMARK  status: ('A' for Active; 'I' for Inactive)
REMARK    1  A    between atoms: O_6  and  C_27
REMARK    2  A    between atoms: O_6  and  C_34
REMARK    3  A    between atoms: N_8  and  C_11
REMARK    4  A    between atoms: C_19  and  C_24
REMARK    5  A    between atoms: C_22  and  C_25
REMARK                            x       y       z     vdW  Elec       q    Type
REMARK                         _______ _______ _______ _____ _____    ______ ____
ROOT
ATOM      3  O   UNL     1       8.592   7.321   8.050  0.00  0.00    -0.273 OA
ATOM      4  O   UNL     1       9.804   8.698   3.167  0.00  0.00    -0.270 OA
ATOM      7  N   UNL     1      10.006   8.752   5.479  0.00  0.00    -0.286 N 
ATOM      9  N   UNL     1       9.161   6.025   6.254  0.00  0.00    -0.283 N 
ATOM     10  C   UNL     1      10.441   8.074   6.695  0.00  0.00    +0.164 C 
ATOM     11  C   UNL     1       9.987  10.245   7.989  0.00  0.00    +0.077 C 
ATOM     12  C   UNL     1      10.874   9.010   7.830  0.00  0.00    +0.054 C 
ATOM     13  C   UNL     1       9.861  10.953   6.645  0.00  0.00    +0.041 C 
ATOM     14  C   UNL     1       9.271  10.015   5.605  0.00  0.00    +0.111 C 
ATOM     15  C   UNL     1       9.303   7.138   7.061  0.00  0.00    +0.238 C 
ATOM     16  C   UNL     1      10.063   8.133   4.232  0.00  0.00    +0.249 C 
ATOM     17  C   UNL     1      10.386   6.682   4.170  0.00  0.00    +0.059 A 
ATOM     18  C   UNL     1       9.855   5.729   5.058  0.00  0.00    +0.046 A 
ATOM     20  C   UNL     1      11.092   6.253   3.033  0.00  0.00    +0.023 A 
ATOM     21  C   UNL     1       9.990   4.365   4.751  0.00  0.00    +0.024 A 
ATOM     22  C   UNL     1      11.259   4.894   2.770  0.00  0.00    -0.014 A 
ATOM     23  C   UNL     1      10.696   3.950   3.621  0.00  0.00    +0.010 A 
ATOM     36  H   UNL     1       8.559   5.289   6.618  0.00  0.00    +0.155 HD
ENDROOT
BRANCH  22  25
ATOM      1 CL   UNL     1      15.792   3.578   0.703  0.00  0.00    -0.084 Cl
ATOM     25  C   UNL     1      11.994   4.467   1.599  0.00  0.00    +0.025 A 
ATOM     27  C   UNL     1      11.346   4.266   0.379  0.00  0.00    +0.128 A 
ATOM     28  C   UNL     1      13.369   4.253   1.698  0.00  0.00    +0.032 A 
ATOM     31  C   UNL     1      12.071   3.853  -0.738  0.00  0.00    +0.047 A 
ATOM     32  C   UNL     1      14.095   3.841   0.580  0.00  0.00    +0.042 A 
ATOM     33  C   UNL     1      13.446   3.641  -0.637  0.00  0.00    +0.023 A 
BRANCH  27   6
ATOM      6  O   UNL     1      10.003   4.466   0.253  0.00  0.00    -0.495 OA
ATOM     34  C   UNL     1       9.580   5.451  -0.686  0.00  0.00    +0.277 C 
ENDBRANCH  27   6
ENDBRANCH  22  25
BRANCH  11   8
ATOM      5  O   UNL     1       8.668  11.078  10.339  0.00  0.00    -0.270 OA
ATOM      8  N   UNL     1      10.527  11.136   8.990  0.00  0.00    -0.308 N 
ATOM     19  C   UNL     1       9.806  11.500  10.127  0.00  0.00    +0.251 C 
ATOM     35  H   UNL     1      11.483  11.447   8.863  0.00  0.00    +0.149 HD
BRANCH  19  24
ATOM      2  S   UNL     1      11.183  13.811  10.459  0.00  0.00    -0.092 S 
ATOM     24  C   UNL     1      10.503  12.387  11.069  0.00  0.00    +0.074 A 
ATOM     26  C   UNL     1      10.674  12.203  12.397  0.00  0.00    +0.021 A 
ATOM     29  C   UNL     1      11.405  13.287  12.963  0.00  0.00    +0.008 A 
ATOM     30  C   UNL     1      11.744  14.231  12.021  0.00  0.00    +0.046 A 
ENDBRANCH  19  24
ENDBRANCH  11   8
TORSDOF 4
ENDMDL
MODEL 3
REMARK VINA RESULT:      -7.0     30.612     33.922
REMARK  Name = 11882876
REMARK  5 active torsions:
REMARK  status: ('A' for Active; 'I' for Inactive)
REMARK    1  A    between atoms: O_6  and  C_27
REMARK    2  A    between atoms: O_6  and  C_34
REMARK    3  A    between atoms: N_8  and  C_11
REMARK    4  A    between atoms: C_19  and  C_24
REMARK    5  A    between atoms: C_22  and  C_25
REMARK                            x       y       z     vdW  Elec       q    Type
REMARK                         _______ _______ _______ _____ _____    ______ ____
ROOT
ATOM      3  O   UNL     1     -15.597   6.712  19.334  0.00  0.00    -0.273 OA
ATOM      4  O   UNL     1     -12.782   4.328  23.022  0.00  0.00    -0.270 OA
ATOM      7  N   UNL     1     -13.529   6.154  21.797  0.00  0.00    -0.286 N 
ATOM      9  N   UNL     1     -16.262   5.323  21.025  0.00  0.00    -0.283 N 
ATOM     10  C   UNL     1     -14.616   7.082  21.507  0.00  0.00    +0.164 C 
ATOM     11  C   UNL     1     -12.974   8.458  20.092  0.00  0.00    +0.077 C 
ATOM     12  C   UNL     1     -14.164   8.474  21.051  0.00  0.00    +0.054 C 
ATOM     13  C   UNL     1     -11.846   7.632  20.699  0.00  0.00    +0.041 C 
ATOM     14  C   UNL     1     -12.317   6.213  20.975  0.00  0.00    +0.111 C 
ATOM     15  C   UNL     1     -15.505   6.360  20.511  0.00  0.00    +0.238 C 
ATOM     16  C   UNL     1     -13.695   5.077  22.667  0.00  0.00    +0.249 C 
ATOM     17  C   UNL     1     -15.065   4.754  23.151  0.00  0.00    +0.059 A 
ATOM     18  C   UNL     1     -16.204   4.773  22.325  0.00  0.00    +0.046 A 
ATOM     20  C   UNL     1     -15.153   4.211  24.444  0.00  0.00    +0.023 A 
ATOM     21  C   UNL     1     -17.391   4.187  22.794  0.00  0.00    +0.024 A 
ATOM     22  C   UNL     1     -16.353   3.678  24.910  0.00  0.00    -0.014 A 
ATOM     23  C   UNL     1     -17.468   3.653  24.081  0.00  0.00    +0.010 A 
ATOM     36  H   UNL     1     -17.015   4.988  20.428  0.00  0.00    +0.155 HD
ENDROOT
BRANCH  22  25
ATOM      1 CL   UNL     1     -16.565   4.552  29.984  0.00  0.00    -0.084 Cl
ATOM     25  C   UNL     1     -16.431   3.128  26.247  0.00  0.00    +0.025 A 
ATOM     27  C   UNL     1     -16.481   1.748  26.452  0.00  0.00    +0.128 A 
ATOM     28  C   UNL     1     -16.457   3.994  27.340  0.00  0.00    +0.032 A 
ATOM     31  C   UNL     1     -16.557   1.236  27.747  0.00  0.00    +0.047 A 
ATOM     32  C   UNL     1     -16.533   3.483  28.636  0.00  0.00    +0.042 A 
ATOM     33  C   UNL     1     -16.583   2.104  28.839  0.00  0.00    +0.023 A 
BRANCH  27   6
ATOM      6  O   UNL     1     -16.458   0.877  25.403  0.00  0.00    -0.495 OA
ATOM     34  C   UNL     1     -17.683   0.225  25.076  0.00  0.00    +0.277 C 
ENDBRANCH  27   6
ENDBRANCH  22  25
BRANCH  11   8
ATOM      5  O   UNL     1     -11.583   9.279  17.780  0.00  0.00    -0.270 OA
ATOM      8  N   UNL     1     -12.529   9.802  19.807  0.00  0.00    -0.308 N 
ATOM     19  C   UNL     1     -11.845  10.126  18.636  0.00  0.00    +0.251 C 
ATOM     35  H   UNL     1     -12.786  10.524  20.471  0.00  0.00    +0.149 HD
BRANCH  19  24
ATOM      2  S   UNL     1     -10.096  11.911  17.585  0.00  0.00    -0.092 S 
ATOM     24  C   UNL     1     -11.488  11.542  18.474  0.00  0.00    +0.074 A 
ATOM     26  C   UNL     1     -12.149  12.617  18.959  0.00  0.00    +0.021 A 
ATOM     29  C   UNL     1     -11.487  13.823  18.588  0.00  0.00    +0.008 A 
ATOM     30  C   UNL     1     -10.357  13.583  17.839  0.00  0.00    +0.046 A 
ENDBRANCH  19  24
ENDBRANCH  11   8
TORSDOF 4
ENDMDL
MODEL 4
REMARK VINA RESULT:      -6.9     29.328     33.013
REMARK  Name = 11882876
REMARK  5 active torsions:
REMARK  status: ('A' for Active; 'I' for Inactive)
REMARK    1  A    between atoms: O_6  and  C_27
REMARK    2  A    between atoms: O_6  and  C_34
REMARK    3  A    between atoms: N_8  and  C_11
REMARK    4  A    between atoms: C_19  and  C_24
REMARK    5  A    between atoms: C_22  and  C_25
REMARK                            x       y       z     vdW  Elec       q    Type
REMARK                         _______ _______ _______ _____ _____    ______ ____
ROOT
ATOM      3  O   UNL     1      -5.501 -14.172  16.596  0.00  0.00    -0.273 OA
ATOM      4  O   UNL     1      -7.222 -10.768  20.154  0.00  0.00    -0.270 OA
ATOM      7  N   UNL     1      -6.538 -11.433  18.037  0.00  0.00    -0.286 N 
ATOM      9  N   UNL     1      -7.311 -14.289  17.989  0.00  0.00    -0.283 N 
ATOM     10  C   UNL     1      -6.841 -12.179  16.821  0.00  0.00    +0.164 C 
ATOM     11  C   UNL     1      -4.759 -11.136  15.741  0.00  0.00    +0.077 C 
ATOM     12  C   UNL     1      -6.197 -11.618  15.549  0.00  0.00    +0.054 C 
ATOM     13  C   UNL     1      -4.703 -10.167  16.917  0.00  0.00    +0.041 C 
ATOM     14  C   UNL     1      -5.204 -10.842  18.183  0.00  0.00    +0.111 C 
ATOM     15  C   UNL     1      -6.463 -13.617  17.128  0.00  0.00    +0.238 C 
ATOM     16  C   UNL     1      -7.383 -11.459  19.146  0.00  0.00    +0.249 C 
ATOM     17  C   UNL     1      -8.512 -12.428  19.159  0.00  0.00    +0.059 A 
ATOM     18  C   UNL     1      -8.400 -13.759  18.718  0.00  0.00    +0.046 A 
ATOM     20  C   UNL     1      -9.671 -12.018  19.842  0.00  0.00    +0.023 A 
ATOM     21  C   UNL     1      -9.426 -14.666  19.029  0.00  0.00    +0.024 A 
ATOM     22  C   UNL     1     -10.701 -12.921  20.099  0.00  0.00    -0.014 A 
ATOM     23  C   UNL     1     -10.573 -14.248  19.705  0.00  0.00    +0.010 A 
ATOM     36  H   UNL     1      -7.197 -15.299  18.021  0.00  0.00    +0.155 HD
ENDROOT
BRANCH  22  25
ATOM      1 CL   UNL     1     -14.718  -9.698  20.281  0.00  0.00    -0.084 Cl
ATOM     25  C   UNL     1     -11.890 -12.483  20.797  0.00  0.00    +0.025 A 
ATOM     27  C   UNL     1     -12.294 -13.100  21.983  0.00  0.00    +0.128 A 
ATOM     28  C   UNL     1     -12.642 -11.431  20.271  0.00  0.00    +0.032 A 
ATOM     31  C   UNL     1     -13.444 -12.666  22.641  0.00  0.00    +0.047 A 
ATOM     32  C   UNL     1     -13.792 -10.996  20.930  0.00  0.00    +0.042 A 
ATOM     33  C   UNL     1     -14.192 -11.613  22.114  0.00  0.00    +0.023 A 
BRANCH  27   6
ATOM      6  O   UNL     1     -11.580 -14.131  22.519  0.00  0.00    -0.495 OA
ATOM     34  C   UNL     1     -11.860 -14.476  23.874  0.00  0.00    +0.277 C 
ENDBRANCH  27   6
ENDBRANCH  22  25
BRANCH  11   8
ATOM      5  O   UNL     1      -3.151 -12.372  13.780  0.00  0.00    -0.270 OA
ATOM      8  N   UNL     1      -4.265 -10.510  14.536  0.00  0.00    -0.308 N 
ATOM     19  C   UNL     1      -3.472 -11.194  13.615  0.00  0.00    +0.251 C 
ATOM     35  H   UNL     1      -4.565  -9.559  14.353  0.00  0.00    +0.149 HD
BRANCH  19  24
ATOM      2  S   UNL     1      -4.294  -9.910  11.374  0.00  0.00    -0.092 S 
ATOM     24  C   UNL     1      -3.074 -10.432  12.424  0.00  0.00    +0.074 A 
ATOM     26  C   UNL     1      -1.822 -10.086  12.049  0.00  0.00    +0.021 A 
ATOM     29  C   UNL     1      -1.849  -9.348  10.830  0.00  0.00    +0.008 A 
ATOM     30  C   UNL     1      -3.129  -9.181  10.355  0.00  0.00    +0.046 A 
ENDBRANCH  19  24
ENDBRANCH  11   8
TORSDOF 4
ENDMDL
MODEL 5
REMARK VINA RESULT:      -6.9     27.587     32.547
REMARK  Name = 11882876
REMARK  5 active torsions:
REMARK  status: ('A' for Active; 'I' for Inactive)
REMARK    1  A    between atoms: O_6  and  C_27
REMARK    2  A    between atoms: O_6  and  C_34
REMARK    3  A    between atoms: N_8  and  C_11
REMARK    4  A    between atoms: C_19  and  C_24
REMARK    5  A    between atoms: C_22  and  C_25
REMARK                            x       y       z     vdW  Elec       q    Type
REMARK                         _______ _______ _______ _____ _____    ______ ____
ROOT
ATOM      3  O   UNL     1     -10.481  11.004  35.571  0.00  0.00    -0.273 OA
ATOM      4  O   UNL     1     -13.316   9.776  31.368  0.00  0.00    -0.270 OA
ATOM      7  N   UNL     1     -11.356  10.253  32.517  0.00  0.00    -0.286 N 
ATOM      9  N   UNL     1     -11.975   9.303  35.250  0.00  0.00    -0.283 N 
ATOM     10  C   UNL     1     -10.352   9.811  33.478  0.00  0.00    +0.164 C 
ATOM     11  C   UNL     1      -8.943  11.864  32.850  0.00  0.00    +0.077 C 
ATOM     12  C   UNL     1      -8.950  10.389  33.250  0.00  0.00    +0.054 C 
ATOM     13  C   UNL     1      -9.876  12.070  31.662  0.00  0.00    +0.041 C 
ATOM     14  C   UNL     1     -11.287  11.627  32.013  0.00  0.00    +0.111 C 
ATOM     15  C   UNL     1     -10.938  10.122  34.843  0.00  0.00    +0.238 C 
ATOM     16  C   UNL     1     -12.494   9.496  32.242  0.00  0.00    +0.249 C 
ATOM     17  C   UNL     1     -12.787   8.313  33.096  0.00  0.00    +0.059 A 
ATOM     18  C   UNL     1     -12.639   8.309  34.496  0.00  0.00    +0.046 A 
ATOM     20  C   UNL     1     -13.435   7.238  32.464  0.00  0.00    +0.023 A 
ATOM     21  C   UNL     1     -13.202   7.255  35.234  0.00  0.00    +0.024 A 
ATOM     22  C   UNL     1     -13.945   6.177  33.210  0.00  0.00    -0.014 A 
ATOM     23  C   UNL     1     -13.840   6.192  34.596  0.00  0.00    +0.010 A 
ATOM     36  H   UNL     1     -12.219   9.356  36.236  0.00  0.00    +0.155 HD
ENDROOT
BRANCH  22  25
ATOM      1 CL   UNL     1     -13.495   1.725  30.654  0.00  0.00    -0.084 Cl
ATOM     25  C   UNL     1     -14.603   5.074  32.544  0.00  0.00    +0.025 A 
ATOM     27  C   UNL     1     -15.996   5.018  32.456  0.00  0.00    +0.128 A 
ATOM     28  C   UNL     1     -13.831   4.054  31.987  0.00  0.00    +0.032 A 
ATOM     31  C   UNL     1     -16.613   3.947  31.811  0.00  0.00    +0.047 A 
ATOM     32  C   UNL     1     -14.448   2.982  31.342  0.00  0.00    +0.042 A 
ATOM     33  C   UNL     1     -15.839   2.929  31.254  0.00  0.00    +0.023 A 
BRANCH  27   6
ATOM      6  O   UNL     1     -16.776   5.999  32.992  0.00  0.00    -0.495 OA
ATOM     34  C   UNL     1     -17.579   5.646  34.116  0.00  0.00    +0.277 C 
ENDBRANCH  27   6
ENDBRANCH  22  25
BRANCH  11   8
ATOM      5  O   UNL     1      -7.029  12.788  34.705  0.00  0.00    -0.270 OA
ATOM      8  N   UNL     1      -7.604  12.302  32.534  0.00  0.00    -0.308 N 
ATOM     19  C   UNL     1      -6.717  12.746  33.513  0.00  0.00    +0.251 C 
ATOM     35  H   UNL     1      -7.308  12.221  31.568  0.00  0.00    +0.149 HD
BRANCH  19  24
ATOM      2  S   UNL     1      -4.147  13.283  34.188  0.00  0.00    -0.092 S 
ATOM     24  C   UNL     1      -5.379  13.127  33.039  0.00  0.00    +0.074 A 
ATOM     26  C   UNL     1      -4.998  13.377  31.766  0.00  0.00    +0.021 A 
ATOM     29  C   UNL     1      -3.616  13.717  31.714  0.00  0.00    +0.008 A 
ATOM     30  C   UNL     1      -3.032  13.704  32.960  0.00  0.00    +0.046 A 
ENDBRANCH  19  24
ENDBRANCH  11   8
TORSDOF 4
ENDMDL
MODEL 6
REMARK VINA RESULT:      -6.8     15.223     19.769
REMARK  Name = 11882876
REMARK  5 active torsions:
REMARK  status: ('A' for Active; 'I' for Inactive)
REMARK    1  A    between atoms: O_6  and  C_27
REMARK    2  A    between atoms: O_6  and  C_34
REMARK    3  A    between atoms: N_8  and  C_11
REMARK    4  A    between atoms: C_19  and  C_24
REMARK    5  A    between atoms: C_22  and  C_25
REMARK                            x       y       z     vdW  Elec       q    Type
REMARK                         _______ _______ _______ _____ _____    ______ ____
ROOT
ATOM      3  O   UNL     1       9.136   6.686   8.241  0.00  0.00    -0.273 OA
ATOM      4  O   UNL     1       8.894   8.480   3.350  0.00  0.00    -0.270 OA
ATOM      7  N   UNL     1       9.635   8.465   5.550  0.00  0.00    -0.286 N 
ATOM      9  N   UNL     1       9.462   5.597   6.258  0.00  0.00    -0.283 N 
ATOM     10  C   UNL     1      10.455   7.822   6.570  0.00  0.00    +0.164 C 
ATOM     11  C   UNL     1       9.976   9.814   8.117  0.00  0.00    +0.077 C 
ATOM     12  C   UNL     1      10.988   8.768   7.652  0.00  0.00    +0.054 C 
ATOM     13  C   UNL     1       9.415  10.548   6.904  0.00  0.00    +0.041 C 
ATOM     14  C   UNL     1       8.755   9.567   5.949  0.00  0.00    +0.111 C 
ATOM     15  C   UNL     1       9.609   6.680   7.104  0.00  0.00    +0.238 C 
ATOM     16  C   UNL     1       9.491   7.923   4.273  0.00  0.00    +0.249 C 
ATOM     17  C   UNL     1      10.024   6.558   4.013  0.00  0.00    +0.059 A 
ATOM     18  C   UNL     1       9.886   5.486   4.914  0.00  0.00    +0.046 A 
ATOM     20  C   UNL     1      10.496   6.316   2.712  0.00  0.00    +0.023 A 
ATOM     21  C   UNL     1      10.166   4.184   4.467  0.00  0.00    +0.024 A 
ATOM     22  C   UNL     1      10.815   5.023   2.301  0.00  0.00    -0.014 A 
ATOM     23  C   UNL     1      10.637   3.955   3.173  0.00  0.00    +0.010 A 
ATOM     36  H   UNL     1       9.095   4.749   6.685  0.00  0.00    +0.155 HD
ENDROOT
BRANCH  22  25
ATOM      1 CL   UNL     1       9.749   4.539  -2.717  0.00  0.00    -0.084 Cl
ATOM     25  C   UNL     1      11.307   4.789   0.961  0.00  0.00    +0.025 A 
ATOM     27  C   UNL     1      12.667   4.579   0.722  0.00  0.00    +0.128 A 
ATOM     28  C   UNL     1      10.406   4.777  -0.105  0.00  0.00    +0.032 A 
ATOM     31  C   UNL     1      13.123   4.356  -0.576  0.00  0.00    +0.047 A 
ATOM     32  C   UNL     1      10.862   4.554  -1.404  0.00  0.00    +0.042 A 
ATOM     33  C   UNL     1      12.220   4.344  -1.639  0.00  0.00    +0.023 A 
BRANCH  27   6
ATOM      6  O   UNL     1      13.571   4.586   1.743  0.00  0.00    -0.495 OA
ATOM     34  C   UNL     1      14.588   3.588   1.714  0.00  0.00    +0.277 C 
ENDBRANCH  27   6
ENDBRANCH  22  25
BRANCH  11   8
ATOM      5  O   UNL     1       8.674  11.103  10.262  0.00  0.00    -0.270 OA
ATOM      8  N   UNL     1      10.586  10.741   9.041  0.00  0.00    -0.308 N 
ATOM     19  C   UNL     1       9.870  11.337  10.078  0.00  0.00    +0.251 C 
ATOM     35  H   UNL     1      11.582  10.903   8.943  0.00  0.00    +0.149 HD
BRANCH  19  24
ATOM      2  S   UNL     1       9.780  13.342  11.901  0.00  0.00    -0.092 S 
ATOM     24  C   UNL     1      10.638  12.232  10.954  0.00  0.00    +0.074 A 
ATOM     26  C   UNL     1      11.981  12.283  11.104  0.00  0.00    +0.021 A 
ATOM     29  C   UNL     1      12.343  13.287  12.048  0.00  0.00    +0.008 A 
ATOM     30  C   UNL     1      11.243  13.938  12.558  0.00  0.00    +0.046 A 
ENDBRANCH  19  24
ENDBRANCH  11   8
TORSDOF 4
ENDMDL
MODEL 7
REMARK VINA RESULT:      -6.8     14.976     19.043
REMARK  Name = 11882876
REMARK  5 active torsions:
REMARK  status: ('A' for Active; 'I' for Inactive)
REMARK    1  A    between atoms: O_6  and  C_27
REMARK    2  A    between atoms: O_6  and  C_34
REMARK    3  A    between atoms: N_8  and  C_11
REMARK    4  A    between atoms: C_19  and  C_24
REMARK    5  A    between atoms: C_22  and  C_25
REMARK                            x       y       z     vdW  Elec       q    Type
REMARK                         _______ _______ _______ _____ _____    ______ ____
ROOT
ATOM      3  O   UNL     1       8.353   8.926   3.147  0.00  0.00    -0.273 OA
ATOM      4  O   UNL     1       8.682   7.455   8.141  0.00  0.00    -0.270 OA
ATOM      7  N   UNL     1       9.323   7.482   5.909  0.00  0.00    -0.286 N 
ATOM      9  N   UNL     1       8.502  10.190   5.046  0.00  0.00    -0.283 N 
ATOM     10  C   UNL     1       9.946   8.216   4.815  0.00  0.00    +0.164 C 
ATOM     11  C   UNL     1       9.859   6.068   3.411  0.00  0.00    +0.077 C 
ATOM     12  C   UNL     1      10.634   7.337   3.764  0.00  0.00    +0.054 C 
ATOM     13  C   UNL     1       9.515   5.314   4.691  0.00  0.00    +0.041 C 
ATOM     14  C   UNL     1       8.691   6.191   5.618  0.00  0.00    +0.111 C 
ATOM     15  C   UNL     1       8.853   9.110   4.258  0.00  0.00    +0.238 C 
ATOM     16  C   UNL     1       9.110   8.064   7.158  0.00  0.00    +0.249 C 
ATOM     17  C   UNL     1       9.340   9.526   7.312  0.00  0.00    +0.059 A 
ATOM     18  C   UNL     1       8.940  10.480   6.359  0.00  0.00    +0.046 A 
ATOM     20  C   UNL     1       9.794   9.952   8.572  0.00  0.00    +0.023 A 
ATOM     21  C   UNL     1       8.944  11.839   6.716  0.00  0.00    +0.024 A 
ATOM     22  C   UNL     1       9.837  11.308   8.891  0.00  0.00    -0.014 A 
ATOM     23  C   UNL     1       9.400  12.250   7.969  0.00  0.00    +0.010 A 
ATOM     36  H   UNL     1       7.945  10.909   4.589  0.00  0.00    +0.155 HD
ENDROOT
BRANCH  22  25
ATOM      1 CL   UNL     1       8.711  12.506  13.775  0.00  0.00    -0.084 Cl
ATOM     25  C   UNL     1      10.313  11.732  10.190  0.00  0.00    +0.025 A 
ATOM     27  C   UNL     1      11.670  11.975  10.412  0.00  0.00    +0.128 A 
ATOM     28  C   UNL     1       9.399  11.896  11.232  0.00  0.00    +0.032 A 
ATOM     31  C   UNL     1      12.111  12.382  11.671  0.00  0.00    +0.047 A 
ATOM     32  C   UNL     1       9.840  12.303  12.491  0.00  0.00    +0.042 A 
ATOM     33  C   UNL     1      11.195  12.546  12.711  0.00  0.00    +0.023 A 
BRANCH  27   6
ATOM      6  O   UNL     1      12.587  11.821   9.414  0.00  0.00    -0.495 OA
ATOM     34  C   UNL     1      13.220  13.003   8.930  0.00  0.00    +0.277 C 
ENDBRANCH  27   6
ENDBRANCH  22  25
BRANCH  11   8
ATOM      5  O   UNL     1       9.832   6.219   0.594  0.00  0.00    -0.270 OA
ATOM      8  N   UNL     1      10.624   5.235   2.513  0.00  0.00    -0.308 N 
ATOM     19  C   UNL     1      10.553   5.374   1.128  0.00  0.00    +0.251 C 
ATOM     35  H   UNL     1      11.267   4.572   2.933  0.00  0.00    +0.149 HD
BRANCH  19  24
ATOM      2  S   UNL     1      11.044   4.238  -1.284  0.00  0.00    -0.092 S 
ATOM     24  C   UNL     1      11.416   4.474   0.350  0.00  0.00    +0.074 A 
ATOM     26  C   UNL     1      12.499   3.793   0.786  0.00  0.00    +0.021 A 
ATOM     29  C   UNL     1      13.069   3.027  -0.271  0.00  0.00    +0.008 A 
ATOM     30  C   UNL     1      12.376   3.177  -1.451  0.00  0.00    +0.046 A 
ENDBRANCH  19  24
ENDBRANCH  11   8
TORSDOF 4
ENDMDL
MODEL 8
REMARK VINA RESULT:      -6.7     16.516     20.452
REMARK  Name = 11882876
REMARK  5 active torsions:
REMARK  status: ('A' for Active; 'I' for Inactive)
REMARK    1  A    between atoms: O_6  and  C_27
REMARK    2  A    between atoms: O_6  and  C_34
REMARK    3  A    between atoms: N_8  and  C_11
REMARK    4  A    between atoms: C_19  and  C_24
REMARK    5  A    between atoms: C_22  and  C_25
REMARK                            x       y       z     vdW  Elec       q    Type
REMARK                         _______ _______ _______ _____ _____    ______ ____
ROOT
ATOM      3  O   UNL     1      13.102   8.286   6.640  0.00  0.00    -0.273 OA
ATOM      4  O   UNL     1       9.900   4.700   4.616  0.00  0.00    -0.270 OA
ATOM      7  N   UNL     1      10.424   6.741   5.591  0.00  0.00    -0.286 N 
ATOM      9  N   UNL     1      13.179   7.217   4.620  0.00  0.00    -0.283 N 
ATOM     10  C   UNL     1      11.022   8.063   5.437  0.00  0.00    +0.164 C 
ATOM     11  C   UNL     1      10.080   8.683   7.744  0.00  0.00    +0.077 C 
ATOM     12  C   UNL     1      10.407   9.150   6.325  0.00  0.00    +0.054 C 
ATOM     13  C   UNL     1       9.235   7.416   7.677  0.00  0.00    +0.041 C 
ATOM     14  C   UNL     1       9.976   6.324   6.922  0.00  0.00    +0.111 C 
ATOM     15  C   UNL     1      12.511   7.856   5.648  0.00  0.00    +0.238 C 
ATOM     16  C   UNL     1      10.475   5.789   4.573  0.00  0.00    +0.249 C 
ATOM     17  C   UNL     1      11.332   6.058   3.387  0.00  0.00    +0.059 A 
ATOM     18  C   UNL     1      12.621   6.616   3.469  0.00  0.00    +0.046 A 
ATOM     20  C   UNL     1      10.882   5.527   2.166  0.00  0.00    +0.023 A 
ATOM     21  C   UNL     1      13.454   6.570   2.339  0.00  0.00    +0.024 A 
ATOM     22  C   UNL     1      11.705   5.534   1.041  0.00  0.00    -0.014 A 
ATOM     23  C   UNL     1      12.996   6.043   1.131  0.00  0.00    +0.010 A 
ATOM     36  H   UNL     1      14.194   7.276   4.649  0.00  0.00    +0.155 HD
ENDROOT
BRANCH  22  25
ATOM      1 CL   UNL     1      11.940   1.747  -2.446  0.00  0.00    -0.084 Cl
ATOM     25  C   UNL     1      11.226   4.990  -0.211  0.00  0.00    +0.025 A 
ATOM     27  C   UNL     1      10.253   5.657  -0.958  0.00  0.00    +0.128 A 
ATOM     28  C   UNL     1      11.747   3.780  -0.673  0.00  0.00    +0.032 A 
ATOM     31  C   UNL     1       9.803   5.117  -2.162  0.00  0.00    +0.047 A 
ATOM     32  C   UNL     1      11.297   3.239  -1.877  0.00  0.00    +0.042 A 
ATOM     33  C   UNL     1      10.325   3.908  -2.621  0.00  0.00    +0.023 A 
BRANCH  27   6
ATOM      6  O   UNL     1       9.725   6.840  -0.531  0.00  0.00    -0.495 OA
ATOM     34  C   UNL     1      10.061   8.006  -1.279  0.00  0.00    +0.277 C 
ENDBRANCH  27   6
ENDBRANCH  22  25
BRANCH  11   8
ATOM      5  O   UNL     1      11.307  10.820   9.117  0.00  0.00    -0.270 OA
ATOM      8  N   UNL     1       9.394   9.720   8.478  0.00  0.00    -0.308 N 
ATOM     19  C   UNL     1      10.077  10.744   9.132  0.00  0.00    +0.251 C 
ATOM     35  H   UNL     1       8.380   9.709   8.455  0.00  0.00    +0.149 HD
BRANCH  19  24
ATOM      2  S   UNL     1       8.516  12.944   8.860  0.00  0.00    -0.092 S 
ATOM     24  C   UNL     1       9.237  11.743   9.808  0.00  0.00    +0.074 A 
ATOM     26  C   UNL     1       8.962  11.826  11.129  0.00  0.00    +0.021 A 
ATOM     29  C   UNL     1       8.109  12.937  11.395  0.00  0.00    +0.008 A 
ATOM     30  C   UNL     1       7.790  13.630  10.249  0.00  0.00    +0.046 A 
ENDBRANCH  19  24
ENDBRANCH  11   8
TORSDOF 4
ENDMDL
MODEL 9
REMARK VINA RESULT:      -6.7     15.566     16.426
REMARK  Name = 11882876
REMARK  5 active torsions:
REMARK  status: ('A' for Active; 'I' for Inactive)
REMARK    1  A    between atoms: O_6  and  C_27
REMARK    2  A    between atoms: O_6  and  C_34
REMARK    3  A    between atoms: N_8  and  C_11
REMARK    4  A    between atoms: C_19  and  C_24
REMARK    5  A    between atoms: C_22  and  C_25
REMARK                            x       y       z     vdW  Elec       q    Type
REMARK                         _______ _______ _______ _____ _____    ______ ____
ROOT
ATOM      3  O   UNL     1      17.522  11.310   5.744  0.00  0.00    -0.273 OA
ATOM      4  O   UNL     1      15.316   7.113   3.572  0.00  0.00    -0.270 OA
ATOM      7  N   UNL     1      16.961   8.253   4.749  0.00  0.00    -0.286 N 
ATOM      9  N   UNL     1      15.428  10.438   6.025  0.00  0.00    -0.283 N 
ATOM     10  C   UNL     1      17.356   8.915   5.987  0.00  0.00    +0.164 C 
ATOM     11  C   UNL     1      19.750   9.055   5.071  0.00  0.00    +0.077 C 
ATOM     12  C   UNL     1      18.856   8.855   6.295  0.00  0.00    +0.054 C 
ATOM     13  C   UNL     1      19.326   8.087   3.972  0.00  0.00    +0.041 C 
ATOM     14  C   UNL     1      17.869   8.314   3.600  0.00  0.00    +0.111 C 
ATOM     15  C   UNL     1      16.798  10.324   5.882  0.00  0.00    +0.238 C 
ATOM     16  C   UNL     1      15.668   7.768   4.555  0.00  0.00    +0.249 C 
ATOM     17  C   UNL     1      14.619   8.115   5.551  0.00  0.00    +0.059 A 
ATOM     18  C   UNL     1      14.479   9.395   6.118  0.00  0.00    +0.046 A 
ATOM     20  C   UNL     1      13.615   7.152   5.753  0.00  0.00    +0.023 A 
ATOM     21  C   UNL     1      13.302   9.699   6.823  0.00  0.00    +0.024 A 
ATOM     22  C   UNL     1      12.477   7.457   6.497  0.00  0.00    -0.014 A 
ATOM     23  C   UNL     1      12.314   8.734   7.020  0.00  0.00    +0.010 A 
ATOM     36  H   UNL     1      15.077  11.380   6.182  0.00  0.00    +0.155 HD
ENDROOT
BRANCH  22  25
ATOM      1 CL   UNL     1       9.711   4.664   9.829  0.00  0.00    -0.084 Cl
ATOM     25  C   UNL     1      11.455   6.454   6.703  0.00  0.00    +0.025 A 
ATOM     27  C   UNL     1      10.809   5.856   5.620  0.00  0.00    +0.128 A 
ATOM     28  C   UNL     1      11.114   6.084   8.005  0.00  0.00    +0.032 A 
ATOM     31  C   UNL     1       9.825   4.891   5.837  0.00  0.00    +0.047 A 
ATOM     32  C   UNL     1      10.131   5.119   8.223  0.00  0.00    +0.042 A 
ATOM     33  C   UNL     1       9.487   4.523   7.139  0.00  0.00    +0.023 A 
BRANCH  27   6
ATOM      6  O   UNL     1      11.120   6.197   4.337  0.00  0.00    -0.495 OA
ATOM     34  C   UNL     1      11.136   5.147   3.373  0.00  0.00    +0.277 C 
ENDBRANCH  27   6
ENDBRANCH  22  25
BRANCH  11   8
ATOM      5  O   UNL     1      21.951  10.277   3.798  0.00  0.00    -0.270 OA
ATOM      8  N   UNL     1      21.139   8.862   5.416  0.00  0.00    -0.308 N 
ATOM     19  C   UNL     1      22.171   9.506   4.734  0.00  0.00    +0.251 C 
ATOM     35  H   UNL     1      21.339   8.277   6.220  0.00  0.00    +0.149 HD
BRANCH  19  24
ATOM      2  S   UNL     1      24.275  10.411   6.183  0.00  0.00    -0.092 S 
ATOM     24  C   UNL     1      23.529   9.234   5.224  0.00  0.00    +0.074 A 
ATOM     26  C   UNL     1      24.279   8.132   4.998  0.00  0.00    +0.021 A 
ATOM     29  C   UNL     1      25.544   8.244   5.644  0.00  0.00    +0.008 A 
ATOM     30  C   UNL     1      25.674   9.434   6.324  0.00  0.00    +0.046 A 
ENDBRANCH  19  24
ENDBRANCH  11   8
TORSDOF 4
ENDMDL
MODEL 10
REMARK VINA RESULT:      -6.7     29.542     33.271
REMARK  Name = 11882876
REMARK  5 active torsions:
REMARK  status: ('A' for Active; 'I' for Inactive)
REMARK    1  A    between atoms: O_6  and  C_27
REMARK    2  A    between atoms: O_6  and  C_34
REMARK    3  A    between atoms: N_8  and  C_11
REMARK    4  A    between atoms: C_19  and  C_24
REMARK    5  A    between atoms: C_22  and  C_25
REMARK                            x       y       z     vdW  Elec       q    Type
REMARK                         _______ _______ _______ _____ _____    ______ ____
ROOT
ATOM      3  O   UNL     1      -7.741 -11.275  20.096  0.00  0.00    -0.273 OA
ATOM      4  O   UNL     1      -7.843 -13.045  15.191  0.00  0.00    -0.270 OA
ATOM      7  N   UNL     1      -8.635 -11.834  17.007  0.00  0.00    -0.286 N 
ATOM      9  N   UNL     1      -6.145 -11.174  18.463  0.00  0.00    -0.283 N 
ATOM     10  C   UNL     1      -8.478 -10.675  17.878  0.00  0.00    +0.164 C 
ATOM     11  C   UNL     1     -10.760 -11.230  18.917  0.00  0.00    +0.077 C 
ATOM     12  C   UNL     1      -9.786 -10.139  18.472  0.00  0.00    +0.054 C 
ATOM     13  C   UNL     1     -10.980 -12.210  17.769  0.00  0.00    +0.041 C 
ATOM     14  C   UNL     1      -9.660 -12.828  17.339  0.00  0.00    +0.111 C 
ATOM     15  C   UNL     1      -7.448 -11.089  18.914  0.00  0.00    +0.238 C 
ATOM     16  C   UNL     1      -7.703 -12.139  16.015  0.00  0.00    +0.249 C 
ATOM     17  C   UNL     1      -6.423 -11.382  15.981  0.00  0.00    +0.059 A 
ATOM     18  C   UNL     1      -5.681 -11.057  17.132  0.00  0.00    +0.046 A 
ATOM     20  C   UNL     1      -5.857 -11.179  14.711  0.00  0.00    +0.023 A 
ATOM     21  C   UNL     1      -4.363 -10.596  16.982  0.00  0.00    +0.024 A 
ATOM     22  C   UNL     1      -4.565 -10.674  14.581  0.00  0.00    -0.014 A 
ATOM     23  C   UNL     1      -3.813 -10.396  15.716  0.00  0.00    +0.010 A 
ATOM     36  H   UNL     1      -5.429 -11.227  19.185  0.00  0.00    +0.155 HD
ENDROOT
BRANCH  22  25
ATOM      1 CL   UNL     1      -5.198  -8.888   9.789  0.00  0.00    -0.084 Cl
ATOM     25  C   UNL     1      -3.998 -10.464  13.266  0.00  0.00    +0.025 A 
ATOM     27  C   UNL     1      -2.692 -10.863  12.976  0.00  0.00    +0.128 A 
ATOM     28  C   UNL     1      -4.772  -9.853  12.279  0.00  0.00    +0.032 A 
ATOM     31  C   UNL     1      -2.161 -10.652  11.704  0.00  0.00    +0.047 A 
ATOM     32  C   UNL     1      -4.242  -9.642  11.006  0.00  0.00    +0.042 A 
ATOM     33  C   UNL     1      -2.938 -10.041  10.719  0.00  0.00    +0.023 A 
BRANCH  27   6
ATOM      6  O   UNL     1      -1.911 -11.461  13.921  0.00  0.00    -0.495 OA
ATOM     34  C   UNL     1      -1.527 -12.813  13.682  0.00  0.00    +0.277 C 
ENDBRANCH  27   6
ENDBRANCH  22  25
BRANCH  11   8
ATOM      5  O   UNL     1     -12.362 -12.166  21.042  0.00  0.00    -0.270 OA
ATOM      8  N   UNL     1     -12.012 -10.654  19.348  0.00  0.00    -0.308 N 
ATOM     19  C   UNL     1     -12.745 -11.179  20.411  0.00  0.00    +0.251 C 
ATOM     35  H   UNL     1     -12.316  -9.807  18.879  0.00  0.00    +0.149 HD
BRANCH  19  24
ATOM      2  S   UNL     1     -15.190 -11.314  21.573  0.00  0.00    -0.092 S 
ATOM     24  C   UNL     1     -13.982 -10.462  20.751  0.00  0.00    +0.074 A 
ATOM     26  C   UNL     1     -14.284  -9.172  20.482  0.00  0.00    +0.021 A 
ATOM     29  C   UNL     1     -15.582  -8.848  20.973  0.00  0.00    +0.008 A 
ATOM     30  C   UNL     1     -16.185  -9.921  21.588  0.00  0.00    +0.046 A 
ENDBRANCH  19  24
ENDBRANCH  11   8
TORSDOF 4
ENDMDL
