MODEL 1
REMARK VINA RESULT:      -7.5      0.000      0.000
REMARK  Name = 75536066
REMARK  6 active torsions:
REMARK  status: ('A' for Active; 'I' for Inactive)
REMARK    1  A    between atoms: O_1  and  C_9
REMARK    2  A    between atoms: O_2  and  C_11
REMARK    3  A    between atoms: N_4  and  C_8
REMARK    4  A    between atoms: C_7  and  C_12
REMARK    5  A    between atoms: C_15  and  C_17
REMARK    6  A    between atoms: C_23  and  C_24
REMARK                            x       y       z     vdW  Elec       q    Type
REMARK                         _______ _______ _______ _____ _____    ______ ____
ROOT
ATOM      7  C   UNL     1      12.641   8.705  22.071  0.00  0.00    +0.046 C 
ATOM      8  C   UNL     1      13.027   7.843  20.848  0.00  0.00    +0.112 C 
ATOM      9  C   UNL     1      12.067   6.658  20.930  0.00  0.00    +0.164 C 
ATOM     10  C   UNL     1      11.178   8.320  22.414  0.00  0.00    +0.044 C 
ATOM     11  C   UNL     1      10.754   7.306  21.355  0.00  0.00    +0.145 C 
ENDROOT
BRANCH   7  12
ATOM      5  N   UNL     1      14.318  12.108  22.009  0.00  0.00    -0.263 NA
ATOM     12  C   UNL     1      12.859  10.187  21.844  0.00  0.00    -0.024 A 
ATOM     13  C   UNL     1      11.864  10.981  21.288  0.00  0.00    +0.007 A 
ATOM     14  C   UNL     1      14.058  10.792  22.184  0.00  0.00    +0.114 A 
ATOM     16  C   UNL     1      12.092  12.338  21.093  0.00  0.00    +0.020 A 
ATOM     18  C   UNL     1      13.326  12.848  21.467  0.00  0.00    +0.111 A 
ENDBRANCH   7  12
BRANCH   8   4
ATOM      3  O   UNL     1      14.695   7.167  18.610  0.00  0.00    -0.270 OA
ATOM      4  N   UNL     1      14.405   7.423  20.896  0.00  0.00    -0.305 N 
ATOM     15  C   UNL     1      15.134   7.116  19.756  0.00  0.00    +0.244 C 
ATOM     25  H   UNL     1      14.826   7.336  21.815  0.00  0.00    +0.149 HD
BRANCH  15  17
ATOM     17  C   UNL     1      16.535   6.673  19.977  0.00  0.00    +0.037 A 
ATOM     19  C   UNL     1      17.238   7.116  21.098  0.00  0.00    +0.014 A 
ATOM     20  C   UNL     1      17.146   5.814  19.064  0.00  0.00    +0.014 A 
ATOM     21  C   UNL     1      18.552   6.699  21.305  0.00  0.00    +0.019 A 
ATOM     22  C   UNL     1      18.461   5.397  19.273  0.00  0.00    +0.019 A 
ATOM     23  C   UNL     1      19.164   5.839  20.393  0.00  0.00    +0.052 A 
BRANCH  23  24
ATOM      6  N   UNL     1      21.605   5.066  20.777  0.00  0.00    -0.191 NA
ATOM     24  C   UNL     1      20.511   5.412  20.605  0.00  0.00    +0.099 C 
ENDBRANCH  23  24
ENDBRANCH  15  17
ENDBRANCH   8   4
BRANCH   9   1
ATOM      1  O   UNL     1      11.930   5.991  19.689  0.00  0.00    -0.387 OA
ATOM     26  H   UNL     1      12.679   6.260  19.129  0.00  0.00    +0.210 HD
ENDBRANCH   9   1
BRANCH  11   2
ATOM      2  O   UNL     1      10.156   8.005  20.267  0.00  0.00    -0.389 OA
ATOM     27  H   UNL     1       9.638   8.738  20.641  0.00  0.00    +0.210 HD
ENDBRANCH  11   2
TORSDOF 6
ENDMDL
MODEL 2
REMARK VINA RESULT:      -7.3      2.322      3.035
REMARK  Name = 75536066
REMARK  6 active torsions:
REMARK  status: ('A' for Active; 'I' for Inactive)
REMARK    1  A    between atoms: O_1  and  C_9
REMARK    2  A    between atoms: O_2  and  C_11
REMARK    3  A    between atoms: N_4  and  C_8
REMARK    4  A    between atoms: C_7  and  C_12
REMARK    5  A    between atoms: C_15  and  C_17
REMARK    6  A    between atoms: C_23  and  C_24
REMARK                            x       y       z     vdW  Elec       q    Type
REMARK                         _______ _______ _______ _____ _____    ______ ____
ROOT
ATOM      7  C   UNL     1      12.928   9.118  19.928  0.00  0.00    +0.046 C 
ATOM      8  C   UNL     1      13.096   7.632  20.320  0.00  0.00    +0.112 C 
ATOM      9  C   UNL     1      12.304   7.515  21.620  0.00  0.00    +0.164 C 
ATOM     10  C   UNL     1      11.633   9.596  20.634  0.00  0.00    +0.044 C 
ATOM     11  C   UNL     1      11.071   8.371  21.353  0.00  0.00    +0.145 C 
ENDROOT
BRANCH   7  12
ATOM      5  N   UNL     1      12.004   8.828  16.260  0.00  0.00    -0.263 NA
ATOM     12  C   UNL     1      12.940   9.340  18.430  0.00  0.00    -0.024 A 
ATOM     13  C   UNL     1      13.846  10.214  17.841  0.00  0.00    +0.007 A 
ATOM     14  C   UNL     1      12.047   8.677  17.603  0.00  0.00    +0.114 A 
ATOM     16  C   UNL     1      13.834  10.395  16.463  0.00  0.00    +0.020 A 
ATOM     18  C   UNL     1      12.901   9.685  15.724  0.00  0.00    +0.111 A 
ENDBRANCH   7  12
BRANCH   8   4
ATOM      3  O   UNL     1      14.946   6.845  18.269  0.00  0.00    -0.270 OA
ATOM      4  N   UNL     1      14.481   7.275  20.500  0.00  0.00    -0.305 N 
ATOM     15  C   UNL     1      15.301   6.906  19.443  0.00  0.00    +0.244 C 
ATOM     25  H   UNL     1      14.837   7.281  21.450  0.00  0.00    +0.149 HD
BRANCH  15  17
ATOM     17  C   UNL     1      16.698   6.541  19.798  0.00  0.00    +0.037 A 
ATOM     19  C   UNL     1      17.401   5.628  19.013  0.00  0.00    +0.014 A 
ATOM     20  C   UNL     1      17.305   7.114  20.916  0.00  0.00    +0.014 A 
ATOM     21  C   UNL     1      18.712   5.287  19.347  0.00  0.00    +0.019 A 
ATOM     22  C   UNL     1      18.616   6.773  21.249  0.00  0.00    +0.019 A 
ATOM     23  C   UNL     1      19.319   5.860  20.464  0.00  0.00    +0.052 A 
BRANCH  23  24
ATOM      6  N   UNL     1      21.752   5.225  21.083  0.00  0.00    -0.191 NA
ATOM     24  C   UNL     1      20.662   5.510  20.805  0.00  0.00    +0.099 C 
ENDBRANCH  23  24
ENDBRANCH  15  17
ENDBRANCH   8   4
BRANCH   9   1
ATOM      1  O   UNL     1      11.944   6.177  21.911  0.00  0.00    -0.387 OA
ATOM     26  H   UNL     1      10.974   6.118  21.857  0.00  0.00    +0.210 HD
ENDBRANCH   9   1
BRANCH  11   2
ATOM      2  O   UNL     1      10.168   7.703  20.478  0.00  0.00    -0.389 OA
ATOM     27  H   UNL     1       9.426   7.378  21.017  0.00  0.00    +0.210 HD
ENDBRANCH  11   2
TORSDOF 6
ENDMDL
MODEL 3
REMARK VINA RESULT:      -6.1     31.247     32.498
REMARK  Name = 75536066
REMARK  6 active torsions:
REMARK  status: ('A' for Active; 'I' for Inactive)
REMARK    1  A    between atoms: O_1  and  C_9
REMARK    2  A    between atoms: O_2  and  C_11
REMARK    3  A    between atoms: N_4  and  C_8
REMARK    4  A    between atoms: C_7  and  C_12
REMARK    5  A    between atoms: C_15  and  C_17
REMARK    6  A    between atoms: C_23  and  C_24
REMARK                            x       y       z     vdW  Elec       q    Type
REMARK                         _______ _______ _______ _____ _____    ______ ____
ROOT
ATOM      7  C   UNL     1     -15.335   3.473  29.085  0.00  0.00    +0.046 C 
ATOM      8  C   UNL     1     -16.286   4.294  29.986  0.00  0.00    +0.112 C 
ATOM      9  C   UNL     1     -16.971   5.245  29.007  0.00  0.00    +0.164 C 
ATOM     10  C   UNL     1     -15.930   3.559  27.656  0.00  0.00    +0.044 C 
ATOM     11  C   UNL     1     -17.220   4.366  27.787  0.00  0.00    +0.145 C 
ENDROOT
BRANCH   7  12
ATOM      5  N   UNL     1     -15.998  -0.163  29.939  0.00  0.00    -0.263 NA
ATOM     12  C   UNL     1     -15.117   2.061  29.587  0.00  0.00    -0.024 A 
ATOM     13  C   UNL     1     -13.901   1.675  30.137  0.00  0.00    +0.007 A 
ATOM     14  C   UNL     1     -16.125   1.113  29.510  0.00  0.00    +0.114 A 
ATOM     16  C   UNL     1     -13.732   0.372  30.590  0.00  0.00    +0.020 A 
ATOM     18  C   UNL     1     -14.801  -0.501  30.469  0.00  0.00    +0.111 A 
ENDBRANCH   7  12
BRANCH   8   4
ATOM      3  O   UNL     1     -15.799   3.393  32.669  0.00  0.00    -0.270 OA
ATOM      4  N   UNL     1     -15.573   5.005  31.018  0.00  0.00    -0.305 N 
ATOM     15  C   UNL     1     -15.386   4.487  32.291  0.00  0.00    +0.244 C 
ATOM     25  H   UNL     1     -15.224   5.928  30.781  0.00  0.00    +0.149 HD
BRANCH  15  17
ATOM     17  C   UNL     1     -14.652   5.356  33.248  0.00  0.00    +0.037 A 
ATOM     19  C   UNL     1     -14.475   4.945  34.569  0.00  0.00    +0.014 A 
ATOM     20  C   UNL     1     -14.140   6.582  32.823  0.00  0.00    +0.014 A 
ATOM     21  C   UNL     1     -13.785   5.760  35.465  0.00  0.00    +0.019 A 
ATOM     22  C   UNL     1     -13.449   7.397  33.721  0.00  0.00    +0.019 A 
ATOM     23  C   UNL     1     -13.272   6.986  35.041  0.00  0.00    +0.052 A 
BRANCH  23  24
ATOM      6  N   UNL     1     -11.991   8.500  36.707  0.00  0.00    -0.191 NA
ATOM     24  C   UNL     1     -12.565   7.821  35.960  0.00  0.00    +0.099 C 
ENDBRANCH  23  24
ENDBRANCH  15  17
ENDBRANCH   8   4
BRANCH   9   1
ATOM      1  O   UNL     1     -18.185   5.762  29.522  0.00  0.00    -0.387 OA
ATOM     26  H   UNL     1     -18.308   6.649  29.142  0.00  0.00    +0.210 HD
ENDBRANCH   9   1
BRANCH  11   2
ATOM      2  O   UNL     1     -18.299   3.466  28.019  0.00  0.00    -0.389 OA
ATOM     27  H   UNL     1     -18.160   2.691  27.450  0.00  0.00    +0.210 HD
ENDBRANCH  11   2
TORSDOF 6
ENDMDL
MODEL 4
REMARK VINA RESULT:      -6.1      2.656      3.822
REMARK  Name = 75536066
REMARK  6 active torsions:
REMARK  status: ('A' for Active; 'I' for Inactive)
REMARK    1  A    between atoms: O_1  and  C_9
REMARK    2  A    between atoms: O_2  and  C_11
REMARK    3  A    between atoms: N_4  and  C_8
REMARK    4  A    between atoms: C_7  and  C_12
REMARK    5  A    between atoms: C_15  and  C_17
REMARK    6  A    between atoms: C_23  and  C_24
REMARK                            x       y       z     vdW  Elec       q    Type
REMARK                         _______ _______ _______ _____ _____    ______ ____
ROOT
ATOM      7  C   UNL     1      13.775  10.754  19.883  0.00  0.00    +0.046 C 
ATOM      8  C   UNL     1      14.218   9.971  21.141  0.00  0.00    +0.112 C 
ATOM      9  C   UNL     1      14.247  11.038  22.233  0.00  0.00    +0.164 C 
ATOM     10  C   UNL     1      13.028  12.007  20.409  0.00  0.00    +0.044 C 
ATOM     11  C   UNL     1      13.011  11.878  21.930  0.00  0.00    +0.145 C 
ENDROOT
BRANCH   7  12
ATOM      5  N   UNL     1      11.294   8.210  18.555  0.00  0.00    -0.263 NA
ATOM     12  C   UNL     1      12.974   9.911  18.913  0.00  0.00    -0.024 A 
ATOM     13  C   UNL     1      13.151  10.035  17.540  0.00  0.00    +0.007 A 
ATOM     14  C   UNL     1      12.040   8.993  19.366  0.00  0.00    +0.114 A 
ATOM     16  C   UNL     1      12.403   9.247  16.674  0.00  0.00    +0.020 A 
ATOM     18  C   UNL     1      11.495   8.358  17.227  0.00  0.00    +0.111 A 
ENDBRANCH   7  12
BRANCH   8   4
ATOM      3  O   UNL     1      15.009   7.374  22.078  0.00  0.00    -0.270 OA
ATOM      4  N   UNL     1      15.505   9.346  20.963  0.00  0.00    -0.305 N 
ATOM     15  C   UNL     1      15.796   8.082  21.454  0.00  0.00    +0.244 C 
ATOM     25  H   UNL     1      16.212   9.886  20.476  0.00  0.00    +0.149 HD
BRANCH  15  17
ATOM     17  C   UNL     1      17.178   7.590  21.210  0.00  0.00    +0.037 A 
ATOM     19  C   UNL     1      17.384   6.442  20.445  0.00  0.00    +0.014 A 
ATOM     20  C   UNL     1      18.266   8.279  21.745  0.00  0.00    +0.014 A 
ATOM     21  C   UNL     1      18.681   5.983  20.216  0.00  0.00    +0.019 A 
ATOM     22  C   UNL     1      19.563   7.818  21.515  0.00  0.00    +0.019 A 
ATOM     23  C   UNL     1      19.770   6.671  20.750  0.00  0.00    +0.052 A 
BRANCH  23  24
ATOM      6  N   UNL     1      22.178   5.817  20.325  0.00  0.00    -0.191 NA
ATOM     24  C   UNL     1      21.099   6.199  20.516  0.00  0.00    +0.099 C 
ENDBRANCH  23  24
ENDBRANCH  15  17
ENDBRANCH   8   4
BRANCH   9   1
ATOM      1  O   UNL     1      14.180  10.479  23.532  0.00  0.00    -0.387 OA
ATOM     26  H   UNL     1      13.903  11.186  24.140  0.00  0.00    +0.210 HD
ENDBRANCH   9   1
BRANCH  11   2
ATOM      2  O   UNL     1      11.824  11.194  22.317  0.00  0.00    -0.389 OA
ATOM     27  H   UNL     1      11.688  10.466  21.687  0.00  0.00    +0.210 HD
ENDBRANCH  11   2
TORSDOF 6
ENDMDL
MODEL 5
REMARK VINA RESULT:      -6.0     26.141     29.665
REMARK  Name = 75536066
REMARK  6 active torsions:
REMARK  status: ('A' for Active; 'I' for Inactive)
REMARK    1  A    between atoms: O_1  and  C_9
REMARK    2  A    between atoms: O_2  and  C_11
REMARK    3  A    between atoms: N_4  and  C_8
REMARK    4  A    between atoms: C_7  and  C_12
REMARK    5  A    between atoms: C_15  and  C_17
REMARK    6  A    between atoms: C_23  and  C_24
REMARK                            x       y       z     vdW  Elec       q    Type
REMARK                         _______ _______ _______ _____ _____    ______ ____
ROOT
ATOM      7  C   UNL     1     -16.446   5.420  22.357  0.00  0.00    +0.046 C 
ATOM      8  C   UNL     1     -14.918   5.195  22.289  0.00  0.00    +0.112 C 
ATOM      9  C   UNL     1     -14.508   5.086  23.756  0.00  0.00    +0.164 C 
ATOM     10  C   UNL     1     -16.895   4.850  23.728  0.00  0.00    +0.044 C 
ATOM     11  C   UNL     1     -15.638   4.269  24.371  0.00  0.00    +0.145 C 
ENDROOT
BRANCH   7  12
ATOM      5  N   UNL     1     -18.819   3.276  20.317  0.00  0.00    -0.263 NA
ATOM     12  C   UNL     1     -17.184   4.840  21.169  0.00  0.00    -0.024 A 
ATOM     13  C   UNL     1     -16.937   5.296  19.879  0.00  0.00    +0.007 A 
ATOM     14  C   UNL     1     -18.127   3.838  21.333  0.00  0.00    +0.114 A 
ATOM     16  C   UNL     1     -17.628   4.743  18.808  0.00  0.00    +0.020 A 
ATOM     18  C   UNL     1     -18.551   3.745  19.078  0.00  0.00    +0.111 A 
ENDBRANCH   7  12
BRANCH   8   4
ATOM      3  O   UNL     1     -12.124   5.334  21.638  0.00  0.00    -0.270 OA
ATOM      4  N   UNL     1     -14.242   6.279  21.620  0.00  0.00    -0.305 N 
ATOM     15  C   UNL     1     -12.882   6.256  21.347  0.00  0.00    +0.244 C 
ATOM     25  H   UNL     1     -14.804   7.085  21.371  0.00  0.00    +0.149 HD
BRANCH  15  17
ATOM     17  C   UNL     1     -12.332   7.463  20.675  0.00  0.00    +0.037 A 
ATOM     19  C   UNL     1     -11.527   7.325  19.544  0.00  0.00    +0.014 A 
ATOM     20  C   UNL     1     -12.623   8.732  21.176  0.00  0.00    +0.014 A 
ATOM     21  C   UNL     1     -11.012   8.458  18.914  0.00  0.00    +0.019 A 
ATOM     22  C   UNL     1     -12.107   9.864  20.544  0.00  0.00    +0.019 A 
ATOM     23  C   UNL     1     -11.303   9.727  19.414  0.00  0.00    +0.052 A 
BRANCH  23  24
ATOM      6  N   UNL     1     -10.346  11.830  18.244  0.00  0.00    -0.191 NA
ATOM     24  C   UNL     1     -10.775  10.888  18.768  0.00  0.00    +0.099 C 
ENDBRANCH  23  24
ENDBRANCH  15  17
ENDBRANCH   8   4
BRANCH   9   1
ATOM      1  O   UNL     1     -13.260   4.437  23.918  0.00  0.00    -0.387 OA
ATOM     26  H   UNL     1     -12.796   4.482  23.064  0.00  0.00    +0.210 HD
ENDBRANCH   9   1
BRANCH  11   2
ATOM      2  O   UNL     1     -15.531   2.896  24.006  0.00  0.00    -0.389 OA
ATOM     27  H   UNL     1     -16.285   2.429  24.404  0.00  0.00    +0.210 HD
ENDBRANCH  11   2
TORSDOF 6
ENDMDL
MODEL 6
REMARK VINA RESULT:      -5.8     17.852     19.818
REMARK  Name = 75536066
REMARK  6 active torsions:
REMARK  status: ('A' for Active; 'I' for Inactive)
REMARK    1  A    between atoms: O_1  and  C_9
REMARK    2  A    between atoms: O_2  and  C_11
REMARK    3  A    between atoms: N_4  and  C_8
REMARK    4  A    between atoms: C_7  and  C_12
REMARK    5  A    between atoms: C_15  and  C_17
REMARK    6  A    between atoms: C_23  and  C_24
REMARK                            x       y       z     vdW  Elec       q    Type
REMARK                         _______ _______ _______ _____ _____    ______ ____
ROOT
ATOM      7  C   UNL     1      12.574   4.086   0.521  0.00  0.00    +0.046 C 
ATOM      8  C   UNL     1      13.099   5.152   1.511  0.00  0.00    +0.112 C 
ATOM      9  C   UNL     1      14.591   4.842   1.609  0.00  0.00    +0.164 C 
ATOM     10  C   UNL     1      13.804   3.645  -0.315  0.00  0.00    +0.044 C 
ATOM     11  C   UNL     1      14.970   4.502   0.172  0.00  0.00    +0.145 C 
ENDROOT
BRANCH   7  12
ATOM      5  N   UNL     1       9.885   4.207  -2.153  0.00  0.00    -0.263 NA
ATOM     12  C   UNL     1      11.400   4.572  -0.304  0.00  0.00    -0.024 A 
ATOM     13  C   UNL     1      10.765   5.773  -0.011  0.00  0.00    +0.007 A 
ATOM     14  C   UNL     1      10.926   3.832  -1.375  0.00  0.00    +0.114 A 
ATOM     16  C   UNL     1       9.692   6.193  -0.788  0.00  0.00    +0.020 A 
ATOM     18  C   UNL     1       9.294   5.381  -1.837  0.00  0.00    +0.111 A 
ENDBRANCH   7  12
BRANCH   8   4
ATOM      3  O   UNL     1      11.935   7.321   2.990  0.00  0.00    -0.270 OA
ATOM      4  N   UNL     1      12.445   5.067   2.793  0.00  0.00    -0.305 N 
ATOM     15  C   UNL     1      11.910   6.176   3.433  0.00  0.00    +0.244 C 
ATOM     25  H   UNL     1      12.410   4.152   3.229  0.00  0.00    +0.149 HD
BRANCH  15  17
ATOM     17  C   UNL     1      11.293   5.925   4.762  0.00  0.00    +0.037 A 
ATOM     19  C   UNL     1      11.730   6.638   5.879  0.00  0.00    +0.014 A 
ATOM     20  C   UNL     1      10.277   4.979   4.891  0.00  0.00    +0.014 A 
ATOM     21  C   UNL     1      11.149   6.403   7.125  0.00  0.00    +0.019 A 
ATOM     22  C   UNL     1       9.697   4.745   6.138  0.00  0.00    +0.019 A 
ATOM     23  C   UNL     1      10.132   5.457   7.255  0.00  0.00    +0.052 A 
BRANCH  23  24
ATOM      6  N   UNL     1       9.056   5.020   9.569  0.00  0.00    -0.191 NA
ATOM     24  C   UNL     1       9.538   5.216   8.532  0.00  0.00    +0.099 C 
ENDBRANCH  23  24
ENDBRANCH  15  17
ENDBRANCH   8   4
BRANCH   9   1
ATOM      1  O   UNL     1      15.338   5.945   2.088  0.00  0.00    -0.387 OA
ATOM     26  H   UNL     1      15.559   5.766   3.018  0.00  0.00    +0.210 HD
ENDBRANCH   9   1
BRANCH  11   2
ATOM      2  O   UNL     1      15.037   5.678  -0.628  0.00  0.00    -0.389 OA
ATOM     27  H   UNL     1      14.134   6.028  -0.709  0.00  0.00    +0.210 HD
ENDBRANCH  11   2
TORSDOF 6
ENDMDL
MODEL 7
REMARK VINA RESULT:      -5.7      2.029      2.267
REMARK  Name = 75536066
REMARK  6 active torsions:
REMARK  status: ('A' for Active; 'I' for Inactive)
REMARK    1  A    between atoms: O_1  and  C_9
REMARK    2  A    between atoms: O_2  and  C_11
REMARK    3  A    between atoms: N_4  and  C_8
REMARK    4  A    between atoms: C_7  and  C_12
REMARK    5  A    between atoms: C_15  and  C_17
REMARK    6  A    between atoms: C_23  and  C_24
REMARK                            x       y       z     vdW  Elec       q    Type
REMARK                         _______ _______ _______ _____ _____    ______ ____
ROOT
ATOM      7  C   UNL     1      13.749   9.411  20.304  0.00  0.00    +0.046 C 
ATOM      8  C   UNL     1      13.874   8.132  19.443  0.00  0.00    +0.112 C 
ATOM      9  C   UNL     1      12.782   7.221  19.998  0.00  0.00    +0.164 C 
ATOM     10  C   UNL     1      12.297   9.410  20.850  0.00  0.00    +0.044 C 
ATOM     11  C   UNL     1      11.623   8.180  20.246  0.00  0.00    +0.145 C 
ENDROOT
BRANCH   7  12
ATOM      5  N   UNL     1      13.447  12.579  18.239  0.00  0.00    -0.263 NA
ATOM     12  C   UNL     1      14.132  10.669  19.554  0.00  0.00    -0.024 A 
ATOM     13  C   UNL     1      15.457  11.082  19.476  0.00  0.00    +0.007 A 
ATOM     14  C   UNL     1      13.173  11.446  18.924  0.00  0.00    +0.114 A 
ATOM     16  C   UNL     1      15.779  12.241  18.779  0.00  0.00    +0.020 A 
ATOM     18  C   UNL     1      14.746  12.947  18.184  0.00  0.00    +0.111 A 
ENDBRANCH   7  12
BRANCH   8   4
ATOM      3  O   UNL     1      15.494   7.968  21.808  0.00  0.00    -0.270 OA
ATOM      4  N   UNL     1      15.181   7.535  19.552  0.00  0.00    -0.305 N 
ATOM     15  C   UNL     1      15.891   7.502  20.743  0.00  0.00    +0.244 C 
ATOM     25  H   UNL     1      15.582   7.151  18.702  0.00  0.00    +0.149 HD
BRANCH  15  17
ATOM     17  C   UNL     1      17.237   6.873  20.683  0.00  0.00    +0.037 A 
ATOM     19  C   UNL     1      18.227   7.257  21.588  0.00  0.00    +0.014 A 
ATOM     20  C   UNL     1      17.508   5.900  19.722  0.00  0.00    +0.014 A 
ATOM     21  C   UNL     1      19.489   6.665  21.531  0.00  0.00    +0.019 A 
ATOM     22  C   UNL     1      18.771   5.308  19.667  0.00  0.00    +0.019 A 
ATOM     23  C   UNL     1      19.761   5.691  20.571  0.00  0.00    +0.052 A 
BRANCH  23  24
ATOM      6  N   UNL     1      22.104   4.594  20.466  0.00  0.00    -0.191 NA
ATOM     24  C   UNL     1      21.054   5.086  20.513  0.00  0.00    +0.099 C 
ENDBRANCH  23  24
ENDBRANCH  15  17
ENDBRANCH   8   4
BRANCH   9   1
ATOM      1  O   UNL     1      12.417   6.203  19.084  0.00  0.00    -0.387 OA
ATOM     26  H   UNL     1      13.175   5.598  19.004  0.00  0.00    +0.210 HD
ENDBRANCH   9   1
BRANCH  11   2
ATOM      2  O   UNL     1      11.002   8.555  19.021  0.00  0.00    -0.389 OA
ATOM     27  H   UNL     1      11.506   8.142  18.299  0.00  0.00    +0.210 HD
ENDBRANCH  11   2
TORSDOF 6
ENDMDL
MODEL 8
REMARK VINA RESULT:      -5.7     25.349     27.597
REMARK  Name = 75536066
REMARK  6 active torsions:
REMARK  status: ('A' for Active; 'I' for Inactive)
REMARK    1  A    between atoms: O_1  and  C_9
REMARK    2  A    between atoms: O_2  and  C_11
REMARK    3  A    between atoms: N_4  and  C_8
REMARK    4  A    between atoms: C_7  and  C_12
REMARK    5  A    between atoms: C_15  and  C_17
REMARK    6  A    between atoms: C_23  and  C_24
REMARK                            x       y       z     vdW  Elec       q    Type
REMARK                         _______ _______ _______ _____ _____    ______ ____
ROOT
ATOM      7  C   UNL     1     -12.544  10.641  15.822  0.00  0.00    +0.046 C 
ATOM      8  C   UNL     1     -12.146   9.147  15.869  0.00  0.00    +0.112 C 
ATOM      9  C   UNL     1     -12.805   8.565  14.621  0.00  0.00    +0.164 C 
ATOM     10  C   UNL     1     -12.865  10.945  14.336  0.00  0.00    +0.044 C 
ATOM     11  C   UNL     1     -12.588   9.651  13.574  0.00  0.00    +0.145 C 
ENDROOT
BRANCH   7  12
ATOM      5  N   UNL     1     -10.954  13.298  18.014  0.00  0.00    -0.263 NA
ATOM     12  C   UNL     1     -11.499  11.551  16.434  0.00  0.00    -0.024 A 
ATOM     13  C   UNL     1     -10.175  11.504  16.017  0.00  0.00    +0.007 A 
ATOM     14  C   UNL     1     -11.835  12.457  17.427  0.00  0.00    +0.114 A 
ATOM     16  C   UNL     1      -9.239  12.354  16.596  0.00  0.00    +0.020 A 
ATOM     18  C   UNL     1      -9.675  13.224  17.582  0.00  0.00    +0.111 A 
ENDBRANCH   7  12
BRANCH   8   4
ATOM      3  O   UNL     1     -10.628   8.700  18.265  0.00  0.00    -0.270 OA
ATOM      4  N   UNL     1     -12.607   8.503  17.073  0.00  0.00    -0.305 N 
ATOM     15  C   UNL     1     -11.797   8.331  18.186  0.00  0.00    +0.244 C 
ATOM     25  H   UNL     1     -13.559   8.151  17.068  0.00  0.00    +0.149 HD
BRANCH  15  17
ATOM     17  C   UNL     1     -12.415   7.623  19.338  0.00  0.00    +0.037 A 
ATOM     19  C   UNL     1     -11.612   6.914  20.232  0.00  0.00    +0.014 A 
ATOM     20  C   UNL     1     -13.796   7.671  19.526  0.00  0.00    +0.014 A 
ATOM     21  C   UNL     1     -12.193   6.251  21.313  0.00  0.00    +0.019 A 
ATOM     22  C   UNL     1     -14.375   7.008  20.608  0.00  0.00    +0.019 A 
ATOM     23  C   UNL     1     -13.574   6.299  21.502  0.00  0.00    +0.052 A 
BRANCH  23  24
ATOM      6  N   UNL     1     -14.650   5.066  23.509  0.00  0.00    -0.191 NA
ATOM     24  C   UNL     1     -14.168   5.619  22.609  0.00  0.00    +0.099 C 
ENDBRANCH  23  24
ENDBRANCH  15  17
ENDBRANCH   8   4
BRANCH   9   1
ATOM      1  O   UNL     1     -12.211   7.343  14.221  0.00  0.00    -0.387 OA
ATOM     26  H   UNL     1     -11.922   6.882  15.028  0.00  0.00    +0.210 HD
ENDBRANCH   9   1
BRANCH  11   2
ATOM      2  O   UNL     1     -11.235   9.665  13.128  0.00  0.00    -0.389 OA
ATOM     27  H   UNL     1     -11.191   9.133  12.316  0.00  0.00    +0.210 HD
ENDBRANCH  11   2
TORSDOF 6
ENDMDL
MODEL 9
REMARK VINA RESULT:      -5.7     27.570     28.819
REMARK  Name = 75536066
REMARK  6 active torsions:
REMARK  status: ('A' for Active; 'I' for Inactive)
REMARK    1  A    between atoms: O_1  and  C_9
REMARK    2  A    between atoms: O_2  and  C_11
REMARK    3  A    between atoms: N_4  and  C_8
REMARK    4  A    between atoms: C_7  and  C_12
REMARK    5  A    between atoms: C_15  and  C_17
REMARK    6  A    between atoms: C_23  and  C_24
REMARK                            x       y       z     vdW  Elec       q    Type
REMARK                         _______ _______ _______ _____ _____    ______ ____
ROOT
ATOM      7  C   UNL     1      -4.296 -11.752  12.439  0.00  0.00    +0.046 C 
ATOM      8  C   UNL     1      -3.736 -11.443  13.847  0.00  0.00    +0.112 C 
ATOM      9  C   UNL     1      -2.789 -12.610  14.118  0.00  0.00    +0.164 C 
ATOM     10  C   UNL     1      -3.251 -12.680  11.765  0.00  0.00    +0.044 C 
ATOM     11  C   UNL     1      -2.110 -12.825  12.770  0.00  0.00    +0.145 C 
ENDROOT
BRANCH   7  12
ATOM      5  N   UNL     1      -6.227  -8.786  11.074  0.00  0.00    -0.263 NA
ATOM     12  C   UNL     1      -4.626 -10.505  11.646  0.00  0.00    -0.024 A 
ATOM     13  C   UNL     1      -3.694  -9.932  10.789  0.00  0.00    +0.007 A 
ATOM     14  C   UNL     1      -5.867  -9.899  11.753  0.00  0.00    +0.114 A 
ATOM     16  C   UNL     1      -4.027  -8.788  10.073  0.00  0.00    +0.020 A 
ATOM     18  C   UNL     1      -5.295  -8.259  10.250  0.00  0.00    +0.111 A 
ENDBRANCH   7  12
BRANCH   8   4
ATOM      3  O   UNL     1      -3.529 -10.285  16.467  0.00  0.00    -0.270 OA
ATOM      4  N   UNL     1      -4.782 -11.358  14.836  0.00  0.00    -0.305 N 
ATOM     15  C   UNL     1      -4.587 -10.777  16.081  0.00  0.00    +0.244 C 
ATOM     25  H   UNL     1      -5.677 -11.767  14.593  0.00  0.00    +0.149 HD
BRANCH  15  17
ATOM     17  C   UNL     1      -5.757 -10.792  16.998  0.00  0.00    +0.037 A 
ATOM     19  C   UNL     1      -5.564 -10.701  18.376  0.00  0.00    +0.014 A 
ATOM     20  C   UNL     1      -7.047 -10.895  16.478  0.00  0.00    +0.014 A 
ATOM     21  C   UNL     1      -6.663 -10.714  19.235  0.00  0.00    +0.019 A 
ATOM     22  C   UNL     1      -8.146 -10.908  17.338  0.00  0.00    +0.019 A 
ATOM     23  C   UNL     1      -7.954 -10.816  18.716  0.00  0.00    +0.052 A 
BRANCH  23  24
ATOM      6  N   UNL     1      -9.993 -10.842  20.312  0.00  0.00    -0.191 NA
ATOM     24  C   UNL     1      -9.079 -10.830  19.596  0.00  0.00    +0.099 C 
ENDBRANCH  23  24
ENDBRANCH  15  17
ENDBRANCH   8   4
BRANCH   9   1
ATOM      1  O   UNL     1      -1.841 -12.308  15.125  0.00  0.00    -0.387 OA
ATOM     26  H   UNL     1      -1.024 -12.792  14.911  0.00  0.00    +0.210 HD
ENDBRANCH   9   1
BRANCH  11   2
ATOM      2  O   UNL     1      -1.147 -11.807  12.517  0.00  0.00    -0.389 OA
ATOM     27  H   UNL     1      -1.096 -11.687  11.553  0.00  0.00    +0.210 HD
ENDBRANCH  11   2
TORSDOF 6
ENDMDL
MODEL 10
REMARK VINA RESULT:      -5.6     25.293     28.493
REMARK  Name = 75536066
REMARK  6 active torsions:
REMARK  status: ('A' for Active; 'I' for Inactive)
REMARK    1  A    between atoms: O_1  and  C_9
REMARK    2  A    between atoms: O_2  and  C_11
REMARK    3  A    between atoms: N_4  and  C_8
REMARK    4  A    between atoms: C_7  and  C_12
REMARK    5  A    between atoms: C_15  and  C_17
REMARK    6  A    between atoms: C_23  and  C_24
REMARK                            x       y       z     vdW  Elec       q    Type
REMARK                         _______ _______ _______ _____ _____    ______ ____
ROOT
ATOM      7  C   UNL     1     -15.188   6.933  20.702  0.00  0.00    +0.046 C 
ATOM      8  C   UNL     1     -13.706   6.593  20.423  0.00  0.00    +0.112 C 
ATOM      9  C   UNL     1     -13.150   6.261  21.806  0.00  0.00    +0.164 C 
ATOM     10  C   UNL     1     -15.537   6.230  22.040  0.00  0.00    +0.044 C 
ATOM     11  C   UNL     1     -14.280   5.468  22.452  0.00  0.00    +0.145 C 
ENDROOT
BRANCH   7  12
ATOM      5  N   UNL     1     -17.124   7.204  17.451  0.00  0.00    -0.263 NA
ATOM     12  C   UNL     1     -16.105   6.575  19.551  0.00  0.00    -0.024 A 
ATOM     13  C   UNL     1     -16.758   5.349  19.510  0.00  0.00    +0.007 A 
ATOM     14  C   UNL     1     -16.319   7.460  18.506  0.00  0.00    +0.114 A 
ATOM     16  C   UNL     1     -17.595   5.050  18.441  0.00  0.00    +0.020 A 
ATOM     18  C   UNL     1     -17.742   6.003  17.446  0.00  0.00    +0.111 A 
ENDBRANCH   7  12
BRANCH   8   4
ATOM      3  O   UNL     1     -11.262   6.450  18.922  0.00  0.00    -0.270 OA
ATOM      4  N   UNL     1     -13.005   7.694  19.811  0.00  0.00    -0.305 N 
ATOM     15  C   UNL     1     -11.825   7.527  19.101  0.00  0.00    +0.244 C 
ATOM     25  H   UNL     1     -13.403   8.619  19.939  0.00  0.00    +0.149 HD
BRANCH  15  17
ATOM     17  C   UNL     1     -11.212   8.766  18.554  0.00  0.00    +0.037 A 
ATOM     19  C   UNL     1     -10.577   8.740  17.313  0.00  0.00    +0.014 A 
ATOM     20  C   UNL     1     -11.274   9.954  19.283  0.00  0.00    +0.014 A 
ATOM     21  C   UNL     1     -10.003   9.903  16.800  0.00  0.00    +0.019 A 
ATOM     22  C   UNL     1     -10.700  11.117  18.769  0.00  0.00    +0.019 A 
ATOM     23  C   UNL     1     -10.065  11.092  17.527  0.00  0.00    +0.052 A 
BRANCH  23  24
ATOM      6  N   UNL     1      -8.998  13.251  16.576  0.00  0.00    -0.191 NA
ATOM     24  C   UNL     1      -9.477  12.283  17.002  0.00  0.00    +0.099 C 
ENDBRANCH  23  24
ENDBRANCH  15  17
ENDBRANCH   8   4
BRANCH   9   1
ATOM      1  O   UNL     1     -11.962   5.496  21.737  0.00  0.00    -0.387 OA
ATOM     26  H   UNL     1     -11.462   5.659  22.555  0.00  0.00    +0.210 HD
ENDBRANCH   9   1
BRANCH  11   2
ATOM      2  O   UNL     1     -14.349   4.150  21.915  0.00  0.00    -0.389 OA
ATOM     27  H   UNL     1     -13.543   3.681  22.191  0.00  0.00    +0.210 HD
ENDBRANCH  11   2
TORSDOF 6
ENDMDL
