MODEL 1
REMARK VINA RESULT:      -6.6      0.000      0.000
REMARK  Name = 45361649
REMARK  10 active torsions:
REMARK  status: ('A' for Active; 'I' for Inactive)
REMARK    1  A    between atoms: O_1  and  C_10
REMARK    2  A    between atoms: N_4  and  C_14
REMARK    3  A    between atoms: N_5  and  C_22
REMARK    4  A    between atoms: N_6  and  C_26
REMARK    5  A    between atoms: C_7  and  C_17
REMARK    6  A    between atoms: C_9  and  C_19
REMARK    7  A    between atoms: C_12  and  C_18
REMARK    8  A    between atoms: C_18  and  C_20
REMARK    9  A    between atoms: C_18  and  C_21
REMARK   10  A    between atoms: C_26  and  C_27
REMARK                            x       y       z     vdW  Elec       q    Type
REMARK                         _______ _______ _______ _____ _____    ______ ____
ROOT
ATOM      7  C   UNL     1     -14.435   8.528  20.051  0.00  0.00    -0.027 C 
ATOM      8  C   UNL     1     -13.473   7.307  20.236  0.00  0.00    +0.028 C 
ATOM      9  C   UNL     1     -13.595   6.715  21.686  0.00  0.00    +0.012 C 
ATOM     10  C   UNL     1     -12.028   7.652  19.773  0.00  0.00    +0.122 C 
ATOM     11  C   UNL     1     -14.375   9.014  18.583  0.00  0.00    +0.007 C 
ATOM     12  C   UNL     1     -11.986   8.236  18.342  0.00  0.00    +0.029 C 
ATOM     13  C   UNL     1     -15.885   8.075  20.338  0.00  0.00    +0.009 C 
ATOM     14  C   UNL     1     -15.070   6.334  21.991  0.00  0.00    +0.078 C 
ATOM     15  C   UNL     1     -12.967   9.391  18.139  0.00  0.00    +0.007 C 
ATOM     16  C   UNL     1     -16.059   7.468  21.723  0.00  0.00    +0.023 C 
ATOM     17  C   UNL     1     -14.076   9.713  20.983  0.00  0.00    +0.011 C 
ATOM     19  C   UNL     1     -12.695   5.492  21.929  0.00  0.00    +0.010 C 
ENDROOT
BRANCH  14   4
ATOM      3  O   UNL     1     -15.858   3.707  22.888  0.00  0.00    -0.253 OA
ATOM      4  N   UNL     1     -15.238   5.893  23.360  0.00  0.00    -0.296 N 
ATOM      6  N   UNL     1     -15.709   4.449  25.081  0.00  0.00    -0.300 N 
ATOM     25  C   UNL     1     -15.624   4.602  23.699  0.00  0.00    +0.300 C 
ATOM     28  H   UNL     1     -15.147   6.580  24.103  0.00  0.00    +0.151 HD
ATOM     31  H   UNL     1     -15.482   5.241  25.675  0.00  0.00    +0.150 HD
BRANCH   6  26
ATOM     26  C   UNL     1     -16.088   3.205  25.710  0.00  0.00    +0.102 C 
ATOM     27  C   UNL     1     -16.086   3.324  27.219  0.00  0.00    +0.024 C 
ENDBRANCH   6  26
ENDBRANCH  14   4
BRANCH  10   1
ATOM      1  O   UNL     1     -11.237   6.463  19.753  0.00  0.00    -0.391 OA
ATOM     29  H   UNL     1     -11.390   6.013  18.904  0.00  0.00    +0.210 HD
ENDBRANCH  10   1
BRANCH  12  18
ATOM     18  C   UNL     1     -10.574   8.690  17.954  0.00  0.00    +0.077 C 
ATOM     21  C   UNL     1     -10.126   9.838  18.853  0.00  0.00    +0.017 C 
BRANCH  18  20
ATOM      2  O   UNL     1     -10.173  10.231  16.123  0.00  0.00    -0.276 OA
ATOM      5  N   UNL     1     -10.915   8.090  15.634  0.00  0.00    -0.312 N 
ATOM     20  C   UNL     1     -10.521   9.110  16.489  0.00  0.00    +0.216 C 
ATOM     30  H   UNL     1     -11.193   7.190  16.014  0.00  0.00    +0.149 HD
BRANCH   5  22
ATOM     22  C   UNL     1     -10.953   8.251  14.208  0.00  0.00    +0.073 C 
ATOM     23  C   UNL     1     -11.654   7.253  13.333  0.00  0.00    +0.024 C 
ATOM     24  C   UNL     1     -10.158   7.356  13.304  0.00  0.00    +0.024 C 
ENDBRANCH   5  22
ENDBRANCH  18  20
ENDBRANCH  12  18
TORSDOF 6
ENDMDL
MODEL 2
REMARK VINA RESULT:      -6.3     19.021     22.197
REMARK  Name = 45361649
REMARK  10 active torsions:
REMARK  status: ('A' for Active; 'I' for Inactive)
REMARK    1  A    between atoms: O_1  and  C_10
REMARK    2  A    between atoms: N_4  and  C_14
REMARK    3  A    between atoms: N_5  and  C_22
REMARK    4  A    between atoms: N_6  and  C_26
REMARK    5  A    between atoms: C_7  and  C_17
REMARK    6  A    between atoms: C_9  and  C_19
REMARK    7  A    between atoms: C_12  and  C_18
REMARK    8  A    between atoms: C_18  and  C_20
REMARK    9  A    between atoms: C_18  and  C_21
REMARK   10  A    between atoms: C_26  and  C_27
REMARK                            x       y       z     vdW  Elec       q    Type
REMARK                         _______ _______ _______ _____ _____    ______ ____
ROOT
ATOM      7  C   UNL     1      -3.374 -10.803  11.049  0.00  0.00    -0.027 C 
ATOM      8  C   UNL     1      -4.694 -10.349  11.758  0.00  0.00    +0.028 C 
ATOM      9  C   UNL     1      -5.392  -9.196  10.950  0.00  0.00    +0.012 C 
ATOM     10  C   UNL     1      -4.453 -10.058  13.267  0.00  0.00    +0.122 C 
ATOM     11  C   UNL     1      -2.773 -12.012  11.806  0.00  0.00    +0.007 C 
ATOM     12  C   UNL     1      -3.756 -11.231  13.995  0.00  0.00    +0.029 C 
ATOM     13  C   UNL     1      -3.706 -11.264   9.612  0.00  0.00    +0.009 C 
ATOM     14  C   UNL     1      -5.653  -9.644   9.485  0.00  0.00    +0.078 C 
ATOM     15  C   UNL     1      -2.499 -11.717  13.275  0.00  0.00    +0.007 C 
ATOM     16  C   UNL     1      -4.409 -10.195   8.788  0.00  0.00    +0.023 C 
ATOM     17  C   UNL     1      -2.313  -9.675  10.992  0.00  0.00    +0.011 C 
ATOM     19  C   UNL     1      -6.714  -8.719  11.577  0.00  0.00    +0.010 C 
ENDROOT
BRANCH  14   4
ATOM      3  O   UNL     1      -7.901  -9.775   7.681  0.00  0.00    -0.253 OA
ATOM      4  N   UNL     1      -6.190  -8.567   8.682  0.00  0.00    -0.296 N 
ATOM      6  N   UNL     1      -7.587  -7.530   7.184  0.00  0.00    -0.300 N 
ATOM     25  C   UNL     1      -7.281  -8.722   7.836  0.00  0.00    +0.300 C 
ATOM     28  H   UNL     1      -5.699  -7.678   8.676  0.00  0.00    +0.151 HD
ATOM     31  H   UNL     1      -7.027  -6.706   7.385  0.00  0.00    +0.150 HD
BRANCH   6  26
ATOM     26  C   UNL     1      -8.678  -7.407   6.245  0.00  0.00    +0.102 C 
ATOM     27  C   UNL     1      -9.933  -6.893   6.918  0.00  0.00    +0.024 C 
ENDBRANCH   6  26
ENDBRANCH  14   4
BRANCH  10   1
ATOM      1  O   UNL     1      -5.708  -9.859  13.920  0.00  0.00    -0.391 OA
ATOM     29  H   UNL     1      -5.531  -9.600  14.841  0.00  0.00    +0.210 HD
ENDBRANCH  10   1
BRANCH  12  18
ATOM     18  C   UNL     1      -3.411 -10.875  15.446  0.00  0.00    +0.077 C 
ATOM     21  C   UNL     1      -1.948 -11.198  15.731  0.00  0.00    +0.017 C 
BRANCH  18  20
ATOM      2  O   UNL     1      -4.358 -12.846  16.498  0.00  0.00    -0.276 OA
ATOM      5  N   UNL     1      -5.089 -10.756  17.187  0.00  0.00    -0.312 N 
ATOM     20  C   UNL     1      -4.320 -11.620  16.419  0.00  0.00    +0.216 C 
ATOM     30  H   UNL     1      -5.002  -9.752  17.059  0.00  0.00    +0.149 HD
BRANCH   5  22
ATOM     22  C   UNL     1      -6.024 -11.225  18.170  0.00  0.00    +0.073 C 
ATOM     23  C   UNL     1      -6.467 -10.344  19.302  0.00  0.00    +0.024 C 
ATOM     24  C   UNL     1      -5.589 -11.531  19.572  0.00  0.00    +0.024 C 
ENDBRANCH   5  22
ENDBRANCH  18  20
ENDBRANCH  12  18
TORSDOF 6
ENDMDL
MODEL 3
REMARK VINA RESULT:      -6.3      2.203      2.435
REMARK  Name = 45361649
REMARK  10 active torsions:
REMARK  status: ('A' for Active; 'I' for Inactive)
REMARK    1  A    between atoms: O_1  and  C_10
REMARK    2  A    between atoms: N_4  and  C_14
REMARK    3  A    between atoms: N_5  and  C_22
REMARK    4  A    between atoms: N_6  and  C_26
REMARK    5  A    between atoms: C_7  and  C_17
REMARK    6  A    between atoms: C_9  and  C_19
REMARK    7  A    between atoms: C_12  and  C_18
REMARK    8  A    between atoms: C_18  and  C_20
REMARK    9  A    between atoms: C_18  and  C_21
REMARK   10  A    between atoms: C_26  and  C_27
REMARK                            x       y       z     vdW  Elec       q    Type
REMARK                         _______ _______ _______ _____ _____    ______ ____
ROOT
ATOM      7  C   UNL     1     -15.180   7.406  20.229  0.00  0.00    -0.027 C 
ATOM      8  C   UNL     1     -14.033   6.526  20.827  0.00  0.00    +0.028 C 
ATOM      9  C   UNL     1     -14.476   5.882  22.190  0.00  0.00    +0.012 C 
ATOM     10  C   UNL     1     -12.685   7.302  20.860  0.00  0.00    +0.122 C 
ATOM     11  C   UNL     1     -14.755   7.932  18.837  0.00  0.00    +0.007 C 
ATOM     12  C   UNL     1     -12.317   7.913  19.488  0.00  0.00    +0.029 C 
ATOM     13  C   UNL     1     -16.440   6.531  20.038  0.00  0.00    +0.009 C 
ATOM     14  C   UNL     1     -15.785   5.067  22.001  0.00  0.00    +0.078 C 
ATOM     15  C   UNL     1     -13.456   8.726  18.872  0.00  0.00    +0.007 C 
ATOM     16  C   UNL     1     -16.902   5.859  21.323  0.00  0.00    +0.023 C 
ATOM     17  C   UNL     1     -15.531   8.617  21.130  0.00  0.00    +0.011 C 
ATOM     19  C   UNL     1     -13.403   4.979  22.821  0.00  0.00    +0.010 C 
ENDROOT
BRANCH  14   4
ATOM      3  O   UNL     1     -16.675   2.379  22.556  0.00  0.00    -0.253 OA
ATOM      4  N   UNL     1     -16.285   4.556  23.260  0.00  0.00    -0.296 N 
ATOM      6  N   UNL     1     -17.129   3.017  24.740  0.00  0.00    -0.300 N 
ATOM     25  C   UNL     1     -16.695   3.240  23.436  0.00  0.00    +0.300 C 
ATOM     28  H   UNL     1     -16.417   5.208  24.027  0.00  0.00    +0.151 HD
ATOM     31  H   UNL     1     -17.096   3.786  25.404  0.00  0.00    +0.150 HD
BRANCH   6  26
ATOM     26  C   UNL     1     -17.609   1.735  25.199  0.00  0.00    +0.102 C 
ATOM     27  C   UNL     1     -16.757   1.195  26.327  0.00  0.00    +0.024 C 
ENDBRANCH   6  26
ENDBRANCH  14   4
BRANCH  10   1
ATOM      1  O   UNL     1     -11.627   6.406  21.205  0.00  0.00    -0.391 OA
ATOM     29  H   UNL     1     -11.809   6.051  22.092  0.00  0.00    +0.210 HD
ENDBRANCH  10   1
BRANCH  12  18
ATOM     18  C   UNL     1     -11.056   8.781  19.573  0.00  0.00    +0.077 C 
ATOM     21  C   UNL     1     -11.365  10.087  20.297  0.00  0.00    +0.017 C 
BRANCH  18  20
ATOM      2  O   UNL     1     -10.355   8.195  17.324  0.00  0.00    -0.276 OA
ATOM      5  N   UNL     1     -10.170  10.402  18.009  0.00  0.00    -0.312 N 
ATOM     20  C   UNL     1     -10.497   9.065  18.181  0.00  0.00    +0.216 C 
ATOM     30  H   UNL     1     -10.313  11.061  18.768  0.00  0.00    +0.149 HD
BRANCH   5  22
ATOM     22  C   UNL     1      -9.621  10.909  16.783  0.00  0.00    +0.073 C 
ATOM     23  C   UNL     1      -9.292  12.365  16.624  0.00  0.00    +0.024 C 
ATOM     24  C   UNL     1     -10.437  11.766  15.862  0.00  0.00    +0.024 C 
ENDBRANCH   5  22
ENDBRANCH  18  20
ENDBRANCH  12  18
TORSDOF 6
ENDMDL
MODEL 4
REMARK VINA RESULT:      -6.2     18.375     19.970
REMARK  Name = 45361649
REMARK  10 active torsions:
REMARK  status: ('A' for Active; 'I' for Inactive)
REMARK    1  A    between atoms: O_1  and  C_10
REMARK    2  A    between atoms: N_4  and  C_14
REMARK    3  A    between atoms: N_5  and  C_22
REMARK    4  A    between atoms: N_6  and  C_26
REMARK    5  A    between atoms: C_7  and  C_17
REMARK    6  A    between atoms: C_9  and  C_19
REMARK    7  A    between atoms: C_12  and  C_18
REMARK    8  A    between atoms: C_18  and  C_20
REMARK    9  A    between atoms: C_18  and  C_21
REMARK   10  A    between atoms: C_26  and  C_27
REMARK                            x       y       z     vdW  Elec       q    Type
REMARK                         _______ _______ _______ _____ _____    ______ ____
ROOT
ATOM      7  C   UNL     1      -4.683 -11.087  16.945  0.00  0.00    -0.027 C 
ATOM      8  C   UNL     1      -5.542 -10.562  15.747  0.00  0.00    +0.028 C 
ATOM      9  C   UNL     1      -7.072 -10.807  16.008  0.00  0.00    +0.012 C 
ATOM     10  C   UNL     1      -5.002 -11.096  14.389  0.00  0.00    +0.122 C 
ATOM     11  C   UNL     1      -3.196 -10.730  16.708  0.00  0.00    +0.007 C 
ATOM     12  C   UNL     1      -3.491 -10.828  14.204  0.00  0.00    +0.029 C 
ATOM     13  C   UNL     1      -5.137 -10.376  18.241  0.00  0.00    +0.009 C 
ATOM     14  C   UNL     1      -7.501 -10.152  17.351  0.00  0.00    +0.078 C 
ATOM     15  C   UNL     1      -2.653 -11.285  15.398  0.00  0.00    +0.007 C 
ATOM     16  C   UNL     1      -6.620 -10.556  18.532  0.00  0.00    +0.023 C 
ATOM     17  C   UNL     1      -4.802 -12.620  17.135  0.00  0.00    +0.011 C 
ATOM     19  C   UNL     1      -7.980 -10.288  14.879  0.00  0.00    +0.010 C 
ENDROOT
BRANCH  14   4
ATOM      3  O   UNL     1      -9.681  -8.279  17.612  0.00  0.00    -0.253 OA
ATOM      4  N   UNL     1      -8.878 -10.456  17.680  0.00  0.00    -0.296 N 
ATOM      6  N   UNL     1     -11.096 -10.049  18.112  0.00  0.00    -0.300 N 
ATOM     25  C   UNL     1      -9.865  -9.484  17.785  0.00  0.00    +0.300 C 
ATOM     28  H   UNL     1      -9.116 -11.413  17.922  0.00  0.00    +0.151 HD
ATOM     31  H   UNL     1     -11.156 -11.057  18.223  0.00  0.00    +0.150 HD
BRANCH   6  26
ATOM     26  C   UNL     1     -12.297  -9.266  18.284  0.00  0.00    +0.102 C 
ATOM     27  C   UNL     1     -13.052  -9.116  16.980  0.00  0.00    +0.024 C 
ENDBRANCH   6  26
ENDBRANCH  14   4
BRANCH  10   1
ATOM      1  O   UNL     1      -5.670 -10.431  13.315  0.00  0.00    -0.391 OA
ATOM     29  H   UNL     1      -6.483 -10.924  13.113  0.00  0.00    +0.210 HD
ENDBRANCH  10   1
BRANCH  12  18
ATOM     18  C   UNL     1      -2.951 -11.474  12.922  0.00  0.00    +0.077 C 
ATOM     21  C   UNL     1      -1.704 -12.295  13.233  0.00  0.00    +0.017 C 
BRANCH  18  20
ATOM      2  O   UNL     1      -1.529  -9.915  11.725  0.00  0.00    -0.276 OA
ATOM      5  N   UNL     1      -3.756 -10.088  11.109  0.00  0.00    -0.312 N 
ATOM     20  C   UNL     1      -2.642 -10.415  11.868  0.00  0.00    +0.216 C 
ATOM     30  H   UNL     1      -4.645 -10.544  11.291  0.00  0.00    +0.149 HD
BRANCH   5  22
ATOM     22  C   UNL     1      -3.713  -9.110  10.058  0.00  0.00    +0.073 C 
ATOM     23  C   UNL     1      -4.894  -8.232   9.766  0.00  0.00    +0.024 C 
ATOM     24  C   UNL     1      -4.492  -9.298   8.790  0.00  0.00    +0.024 C 
ENDBRANCH   5  22
ENDBRANCH  18  20
ENDBRANCH  12  18
TORSDOF 6
ENDMDL
MODEL 5
REMARK VINA RESULT:      -6.2      2.593      9.493
REMARK  Name = 45361649
REMARK  10 active torsions:
REMARK  status: ('A' for Active; 'I' for Inactive)
REMARK    1  A    between atoms: O_1  and  C_10
REMARK    2  A    between atoms: N_4  and  C_14
REMARK    3  A    between atoms: N_5  and  C_22
REMARK    4  A    between atoms: N_6  and  C_26
REMARK    5  A    between atoms: C_7  and  C_17
REMARK    6  A    between atoms: C_9  and  C_19
REMARK    7  A    between atoms: C_12  and  C_18
REMARK    8  A    between atoms: C_18  and  C_20
REMARK    9  A    between atoms: C_18  and  C_21
REMARK   10  A    between atoms: C_26  and  C_27
REMARK                            x       y       z     vdW  Elec       q    Type
REMARK                         _______ _______ _______ _____ _____    ______ ____
ROOT
ATOM      7  C   UNL     1     -15.928   7.188  22.438  0.00  0.00    -0.027 C 
ATOM      8  C   UNL     1     -14.548   6.465  22.588  0.00  0.00    +0.028 C 
ATOM      9  C   UNL     1     -13.628   6.755  21.348  0.00  0.00    +0.012 C 
ATOM     10  C   UNL     1     -14.734   4.962  22.945  0.00  0.00    +0.122 C 
ATOM     11  C   UNL     1     -16.764   6.974  23.722  0.00  0.00    +0.007 C 
ATOM     12  C   UNL     1     -15.656   4.751  24.168  0.00  0.00    +0.029 C 
ATOM     13  C   UNL     1     -15.688   8.706  22.278  0.00  0.00    +0.009 C 
ATOM     14  C   UNL     1     -13.454   8.287  21.152  0.00  0.00    +0.078 C 
ATOM     15  C   UNL     1     -16.982   5.504  24.053  0.00  0.00    +0.007 C 
ATOM     16  C   UNL     1     -14.779   9.048  21.106  0.00  0.00    +0.023 C 
ATOM     17  C   UNL     1     -16.741   6.669  21.224  0.00  0.00    +0.011 C 
ATOM     19  C   UNL     1     -12.241   6.097  21.443  0.00  0.00    +0.010 C 
ENDROOT
BRANCH  14   4
ATOM      3  O   UNL     1     -11.553  10.426  20.785  0.00  0.00    -0.253 OA
ATOM      4  N   UNL     1     -12.707   8.594  19.951  0.00  0.00    -0.296 N 
ATOM      6  N   UNL     1     -11.230   9.718  18.599  0.00  0.00    -0.300 N 
ATOM     25  C   UNL     1     -11.808   9.650  19.865  0.00  0.00    +0.300 C 
ATOM     28  H   UNL     1     -12.907   8.062  19.109  0.00  0.00    +0.151 HD
ATOM     31  H   UNL     1     -11.493   9.024  17.905  0.00  0.00    +0.150 HD
BRANCH   6  26
ATOM     26  C   UNL     1     -10.259  10.722  18.234  0.00  0.00    +0.102 C 
ATOM     27  C   UNL     1      -9.996  10.723  16.743  0.00  0.00    +0.024 C 
ENDBRANCH   6  26
ENDBRANCH  14   4
BRANCH  10   1
ATOM      1  O   UNL     1     -13.468   4.392  23.284  0.00  0.00    -0.391 OA
ATOM     29  H   UNL     1     -13.318   3.626  22.706  0.00  0.00    +0.210 HD
ENDBRANCH  10   1
BRANCH  12  18
ATOM     18  C   UNL     1     -15.931   3.265  24.424  0.00  0.00    +0.077 C 
ATOM     21  C   UNL     1     -16.847   2.707  23.341  0.00  0.00    +0.017 C 
BRANCH  18  20
ATOM      2  O   UNL     1     -17.654   2.545  25.973  0.00  0.00    -0.276 OA
ATOM      5  N   UNL     1     -15.727   3.513  26.823  0.00  0.00    -0.312 N 
ATOM     20  C   UNL     1     -16.550   3.056  25.803  0.00  0.00    +0.216 C 
ATOM     30  H   UNL     1     -14.827   3.928  26.601  0.00  0.00    +0.149 HD
BRANCH   5  22
ATOM     22  C   UNL     1     -16.097   3.429  28.208  0.00  0.00    +0.073 C 
ATOM     23  C   UNL     1     -15.062   3.492  29.293  0.00  0.00    +0.024 C 
ATOM     24  C   UNL     1     -15.789   2.208  29.021  0.00  0.00    +0.024 C 
ENDBRANCH   5  22
ENDBRANCH  18  20
ENDBRANCH  12  18
TORSDOF 6
ENDMDL
MODEL 6
REMARK VINA RESULT:      -6.1     18.645     20.716
REMARK  Name = 45361649
REMARK  10 active torsions:
REMARK  status: ('A' for Active; 'I' for Inactive)
REMARK    1  A    between atoms: O_1  and  C_10
REMARK    2  A    between atoms: N_4  and  C_14
REMARK    3  A    between atoms: N_5  and  C_22
REMARK    4  A    between atoms: N_6  and  C_26
REMARK    5  A    between atoms: C_7  and  C_17
REMARK    6  A    between atoms: C_9  and  C_19
REMARK    7  A    between atoms: C_12  and  C_18
REMARK    8  A    between atoms: C_18  and  C_20
REMARK    9  A    between atoms: C_18  and  C_21
REMARK   10  A    between atoms: C_26  and  C_27
REMARK                            x       y       z     vdW  Elec       q    Type
REMARK                         _______ _______ _______ _____ _____    ______ ____
ROOT
ATOM      7  C   UNL     1      -3.429 -10.306  11.218  0.00  0.00    -0.027 C 
ATOM      8  C   UNL     1      -4.750  -9.920  11.965  0.00  0.00    +0.028 C 
ATOM      9  C   UNL     1      -4.940 -10.800  13.253  0.00  0.00    +0.012 C 
ATOM     10  C   UNL     1      -5.961  -9.892  10.989  0.00  0.00    +0.122 C 
ATOM     11  C   UNL     1      -3.215  -9.348  10.022  0.00  0.00    +0.007 C 
ATOM     12  C   UNL     1      -5.701  -9.015   9.743  0.00  0.00    +0.029 C 
ATOM     13  C   UNL     1      -2.234 -10.129  12.183  0.00  0.00    +0.009 C 
ATOM     14  C   UNL     1      -3.699 -10.673  14.180  0.00  0.00    +0.078 C 
ATOM     15  C   UNL     1      -4.383  -9.348   9.044  0.00  0.00    +0.007 C 
ATOM     16  C   UNL     1      -2.376 -10.939  13.464  0.00  0.00    +0.023 C 
ATOM     17  C   UNL     1      -3.449 -11.763  10.691  0.00  0.00    +0.011 C 
ATOM     19  C   UNL     1      -6.208 -10.454  14.052  0.00  0.00    +0.010 C 
ENDROOT
BRANCH  14   4
ATOM      3  O   UNL     1      -4.083  -9.922  16.940  0.00  0.00    -0.253 OA
ATOM      4  N   UNL     1      -3.790 -11.559  15.321  0.00  0.00    -0.296 N 
ATOM      6  N   UNL     1      -4.026 -12.167  17.522  0.00  0.00    -0.300 N 
ATOM     25  C   UNL     1      -3.975 -11.106  16.622  0.00  0.00    +0.300 C 
ATOM     28  H   UNL     1      -3.632 -12.552  15.175  0.00  0.00    +0.151 HD
ATOM     31  H   UNL     1      -3.941 -13.114  17.166  0.00  0.00    +0.150 HD
BRANCH   6  26
ATOM     26  C   UNL     1      -4.212 -11.981  18.942  0.00  0.00    +0.102 C 
ATOM     27  C   UNL     1      -5.672 -11.788  19.290  0.00  0.00    +0.024 C 
ENDBRANCH   6  26
ENDBRANCH  14   4
BRANCH  10   1
ATOM      1  O   UNL     1      -7.095  -9.332  11.653  0.00  0.00    -0.391 OA
ATOM     29  H   UNL     1      -7.740  -9.065  10.976  0.00  0.00    +0.210 HD
ENDBRANCH  10   1
BRANCH  12  18
ATOM     18  C   UNL     1      -6.852  -9.104   8.734  0.00  0.00    +0.077 C 
ATOM     21  C   UNL     1      -6.307  -9.401   7.341  0.00  0.00    +0.017 C 
BRANCH  18  20
ATOM      2  O   UNL     1      -7.196  -6.726   8.395  0.00  0.00    -0.276 OA
ATOM      5  N   UNL     1      -8.978  -8.015   9.127  0.00  0.00    -0.312 N 
ATOM     20  C   UNL     1      -7.665  -7.813   8.722  0.00  0.00    +0.216 C 
ATOM     30  H   UNL     1      -9.290  -8.946   9.387  0.00  0.00    +0.149 HD
BRANCH   5  22
ATOM     22  C   UNL     1      -9.934  -6.947   9.203  0.00  0.00    +0.073 C 
ATOM     23  C   UNL     1     -11.406  -7.227   9.274  0.00  0.00    +0.024 C 
ATOM     24  C   UNL     1     -10.818  -6.612   8.039  0.00  0.00    +0.024 C 
ENDBRANCH   5  22
ENDBRANCH  18  20
ENDBRANCH  12  18
TORSDOF 6
ENDMDL
MODEL 7
REMARK VINA RESULT:      -6.1      2.839      4.212
REMARK  Name = 45361649
REMARK  10 active torsions:
REMARK  status: ('A' for Active; 'I' for Inactive)
REMARK    1  A    between atoms: O_1  and  C_10
REMARK    2  A    between atoms: N_4  and  C_14
REMARK    3  A    between atoms: N_5  and  C_22
REMARK    4  A    between atoms: N_6  and  C_26
REMARK    5  A    between atoms: C_7  and  C_17
REMARK    6  A    between atoms: C_9  and  C_19
REMARK    7  A    between atoms: C_12  and  C_18
REMARK    8  A    between atoms: C_18  and  C_20
REMARK    9  A    between atoms: C_18  and  C_21
REMARK   10  A    between atoms: C_26  and  C_27
REMARK                            x       y       z     vdW  Elec       q    Type
REMARK                         _______ _______ _______ _____ _____    ______ ____
ROOT
ATOM      7  C   UNL     1     -11.325   8.198  19.523  0.00  0.00    -0.027 C 
ATOM      8  C   UNL     1     -12.679   8.977  19.428  0.00  0.00    +0.028 C 
ATOM      9  C   UNL     1     -13.898   7.988  19.495  0.00  0.00    +0.012 C 
ATOM     10  C   UNL     1     -12.681   9.960  18.221  0.00  0.00    +0.122 C 
ATOM     11  C   UNL     1     -10.152   9.207  19.568  0.00  0.00    +0.007 C 
ATOM     12  C   UNL     1     -11.451  10.896  18.215  0.00  0.00    +0.029 C 
ATOM     13  C   UNL     1     -11.301   7.388  20.839  0.00  0.00    +0.009 C 
ATOM     14  C   UNL     1     -13.823   7.126  20.786  0.00  0.00    +0.078 C 
ATOM     15  C   UNL     1     -10.128  10.145  18.368  0.00  0.00    +0.007 C 
ATOM     16  C   UNL     1     -12.475   6.429  20.973  0.00  0.00    +0.023 C 
ATOM     17  C   UNL     1     -11.108   7.237  18.327  0.00  0.00    +0.011 C 
ATOM     19  C   UNL     1     -15.265   8.691  19.435  0.00  0.00    +0.010 C 
ENDROOT
BRANCH  14   4
ATOM      3  O   UNL     1     -15.299   6.240  23.101  0.00  0.00    -0.253 OA
ATOM      4  N   UNL     1     -14.866   6.124  20.824  0.00  0.00    -0.296 N 
ATOM      6  N   UNL     1     -16.480   4.775  21.744  0.00  0.00    -0.300 N 
ATOM     25  C   UNL     1     -15.526   5.758  21.991  0.00  0.00    +0.300 C 
ATOM     28  H   UNL     1     -15.071   5.608  19.973  0.00  0.00    +0.151 HD
ATOM     31  H   UNL     1     -16.607   4.447  20.791  0.00  0.00    +0.150 HD
BRANCH   6  26
ATOM     26  C   UNL     1     -17.313   4.212  22.781  0.00  0.00    +0.102 C 
ATOM     27  C   UNL     1     -16.644   3.030  23.449  0.00  0.00    +0.024 C 
ENDBRANCH   6  26
ENDBRANCH  14   4
BRANCH  10   1
ATOM      1  O   UNL     1     -13.834  10.801  18.293  0.00  0.00    -0.391 OA
ATOM     29  H   UNL     1     -13.533  11.724  18.321  0.00  0.00    +0.210 HD
ENDBRANCH  10   1
BRANCH  12  18
ATOM     18  C   UNL     1     -11.403  11.765  16.953  0.00  0.00    +0.077 C 
ATOM     21  C   UNL     1     -11.040  10.912  15.742  0.00  0.00    +0.017 C 
BRANCH  18  20
ATOM      2  O   UNL     1     -10.432  13.693  18.061  0.00  0.00    -0.276 OA
ATOM      5  N   UNL     1      -9.482  12.952  16.080  0.00  0.00    -0.312 N 
ATOM     20  C   UNL     1     -10.405  12.907  17.116  0.00  0.00    +0.216 C 
ATOM     30  H   UNL     1      -9.528  12.267  15.332  0.00  0.00    +0.149 HD
BRANCH   5  22
ATOM     22  C   UNL     1      -8.447  13.944  16.013  0.00  0.00    +0.073 C 
ATOM     23  C   UNL     1      -7.214  13.723  15.185  0.00  0.00    +0.024 C 
ATOM     24  C   UNL     1      -7.122  13.730  16.683  0.00  0.00    +0.024 C 
ENDBRANCH   5  22
ENDBRANCH  18  20
ENDBRANCH  12  18
TORSDOF 6
ENDMDL
MODEL 8
REMARK VINA RESULT:      -6.1      2.045      9.131
REMARK  Name = 45361649
REMARK  10 active torsions:
REMARK  status: ('A' for Active; 'I' for Inactive)
REMARK    1  A    between atoms: O_1  and  C_10
REMARK    2  A    between atoms: N_4  and  C_14
REMARK    3  A    between atoms: N_5  and  C_22
REMARK    4  A    between atoms: N_6  and  C_26
REMARK    5  A    between atoms: C_7  and  C_17
REMARK    6  A    between atoms: C_9  and  C_19
REMARK    7  A    between atoms: C_12  and  C_18
REMARK    8  A    between atoms: C_18  and  C_20
REMARK    9  A    between atoms: C_18  and  C_21
REMARK   10  A    between atoms: C_26  and  C_27
REMARK                            x       y       z     vdW  Elec       q    Type
REMARK                         _______ _______ _______ _____ _____    ______ ____
ROOT
ATOM      7  C   UNL     1     -11.646   7.977  19.103  0.00  0.00    -0.027 C 
ATOM      8  C   UNL     1     -13.000   7.800  18.338  0.00  0.00    +0.028 C 
ATOM      9  C   UNL     1     -13.064   8.750  17.088  0.00  0.00    +0.012 C 
ATOM     10  C   UNL     1     -14.212   7.890  19.309  0.00  0.00    +0.122 C 
ATOM     11  C   UNL     1     -11.567   6.951  20.258  0.00  0.00    +0.007 C 
ATOM     12  C   UNL     1     -14.078   6.936  20.518  0.00  0.00    +0.029 C 
ATOM     13  C   UNL     1     -10.477   7.686  18.133  0.00  0.00    +0.009 C 
ATOM     14  C   UNL     1     -11.844   8.500  16.158  0.00  0.00    +0.078 C 
ATOM     15  C   UNL     1     -12.733   7.063  21.233  0.00  0.00    +0.007 C 
ATOM     16  C   UNL     1     -10.502   8.560  16.887  0.00  0.00    +0.023 C 
ATOM     17  C   UNL     1     -11.478   9.401  19.691  0.00  0.00    +0.011 C 
ATOM     19  C   UNL     1     -14.360   8.607  16.272  0.00  0.00    +0.010 C 
ENDROOT
BRANCH  14   4
ATOM      3  O   UNL     1     -11.788   7.872  13.343  0.00  0.00    -0.253 OA
ATOM      4  N   UNL     1     -11.809   9.438  15.056  0.00  0.00    -0.296 N 
ATOM      6  N   UNL     1     -11.751  10.144  12.872  0.00  0.00    -0.300 N 
ATOM     25  C   UNL     1     -11.783   9.042  13.724  0.00  0.00    +0.300 C 
ATOM     28  H   UNL     1     -11.720  10.427  15.266  0.00  0.00    +0.151 HD
ATOM     31  H   UNL     1     -11.764  11.075  13.278  0.00  0.00    +0.150 HD
BRANCH   6  26
ATOM     26  C   UNL     1     -11.721  10.021  11.434  0.00  0.00    +0.102 C 
ATOM     27  C   UNL     1     -13.113  10.081  10.842  0.00  0.00    +0.024 C 
ENDBRANCH   6  26
ENDBRANCH  14   4
BRANCH  10   1
ATOM      1  O   UNL     1     -15.405   7.512  18.620  0.00  0.00    -0.391 OA
ATOM     29  H   UNL     1     -15.441   6.540  18.591  0.00  0.00    +0.210 HD
ENDBRANCH  10   1
BRANCH  12  18
ATOM     18  C   UNL     1     -15.215   7.132  21.528  0.00  0.00    +0.077 C 
ATOM     21  C   UNL     1     -14.709   7.900  22.744  0.00  0.00    +0.017 C 
BRANCH  18  20
ATOM      2  O   UNL     1     -16.148   4.924  21.152  0.00  0.00    -0.276 OA
ATOM      5  N   UNL     1     -15.903   5.673  23.332  0.00  0.00    -0.312 N 
ATOM     20  C   UNL     1     -15.803   5.790  21.953  0.00  0.00    +0.216 C 
ATOM     30  H   UNL     1     -15.599   6.437  23.929  0.00  0.00    +0.149 HD
BRANCH   5  22
ATOM     22  C   UNL     1     -16.432   4.501  23.970  0.00  0.00    +0.073 C 
ATOM     23  C   UNL     1     -16.415   4.356  25.463  0.00  0.00    +0.024 C 
ATOM     24  C   UNL     1     -15.528   3.493  24.615  0.00  0.00    +0.024 C 
ENDBRANCH   5  22
ENDBRANCH  18  20
ENDBRANCH  12  18
TORSDOF 6
ENDMDL
MODEL 9
REMARK VINA RESULT:      -6.0     25.064     28.809
REMARK  Name = 45361649
REMARK  10 active torsions:
REMARK  status: ('A' for Active; 'I' for Inactive)
REMARK    1  A    between atoms: O_1  and  C_10
REMARK    2  A    between atoms: N_4  and  C_14
REMARK    3  A    between atoms: N_5  and  C_22
REMARK    4  A    between atoms: N_6  and  C_26
REMARK    5  A    between atoms: C_7  and  C_17
REMARK    6  A    between atoms: C_9  and  C_19
REMARK    7  A    between atoms: C_12  and  C_18
REMARK    8  A    between atoms: C_18  and  C_20
REMARK    9  A    between atoms: C_18  and  C_21
REMARK   10  A    between atoms: C_26  and  C_27
REMARK                            x       y       z     vdW  Elec       q    Type
REMARK                         _______ _______ _______ _____ _____    ______ ____
ROOT
ATOM      7  C   UNL     1       9.468   6.128   5.963  0.00  0.00    -0.027 C 
ATOM      8  C   UNL     1      10.447   7.205   5.388  0.00  0.00    +0.028 C 
ATOM      9  C   UNL     1       9.955   8.654   5.746  0.00  0.00    +0.012 C 
ATOM     10  C   UNL     1      10.743   6.953   3.882  0.00  0.00    +0.122 C 
ATOM     11  C   UNL     1      10.039   4.716   5.692  0.00  0.00    +0.007 C 
ATOM     12  C   UNL     1      11.214   5.506   3.603  0.00  0.00    +0.029 C 
ATOM     13  C   UNL     1       9.363   6.308   7.495  0.00  0.00    +0.009 C 
ATOM     14  C   UNL     1       9.781   8.800   7.283  0.00  0.00    +0.078 C 
ATOM     15  C   UNL     1      10.293   4.450   4.214  0.00  0.00    +0.007 C 
ATOM     16  C   UNL     1       8.915   7.704   7.903  0.00  0.00    +0.023 C 
ATOM     17  C   UNL     1       8.052   6.220   5.339  0.00  0.00    +0.011 C 
ATOM     19  C   UNL     1      10.889   9.765   5.234  0.00  0.00    +0.010 C 
ENDROOT
BRANCH  14   4
ATOM      3  O   UNL     1      10.740  10.616   9.310  0.00  0.00    -0.253 OA
ATOM      4  N   UNL     1       9.218  10.085   7.639  0.00  0.00    -0.296 N 
ATOM      6  N   UNL     1       9.016  12.073   8.771  0.00  0.00    -0.300 N 
ATOM     25  C   UNL     1       9.749  10.896   8.635  0.00  0.00    +0.300 C 
ATOM     28  H   UNL     1       8.351  10.372   7.196  0.00  0.00    +0.151 HD
ATOM     31  H   UNL     1       8.219  12.225   8.159  0.00  0.00    +0.150 HD
BRANCH   6  26
ATOM     26  C   UNL     1       9.348  13.096   9.734  0.00  0.00    +0.102 C 
ATOM     27  C   UNL     1       8.623  12.881  11.046  0.00  0.00    +0.024 C 
ENDBRANCH   6  26
ENDBRANCH  14   4
BRANCH  10   1
ATOM      1  O   UNL     1      11.797   7.816   3.451  0.00  0.00    -0.391 OA
ATOM     29  H   UNL     1      11.647   8.031   2.515  0.00  0.00    +0.210 HD
ENDBRANCH  10   1
BRANCH  12  18
ATOM     18  C   UNL     1      11.375   5.240   2.102  0.00  0.00    +0.077 C 
ATOM     21  C   UNL     1      10.165   4.479   1.571  0.00  0.00    +0.017 C 
BRANCH  18  20
ATOM      2  O   UNL     1      12.742   3.241   1.946  0.00  0.00    -0.276 OA
ATOM      5  N   UNL     1      13.699   5.287   1.424  0.00  0.00    -0.312 N 
ATOM     20  C   UNL     1      12.657   4.460   1.823  0.00  0.00    +0.216 C 
ATOM     30  H   UNL     1      13.550   6.289   1.350  0.00  0.00    +0.149 HD
BRANCH   5  22
ATOM     22  C   UNL     1      15.006   4.782   1.112  0.00  0.00    +0.073 C 
ATOM     23  C   UNL     1      15.906   5.502   0.150  0.00  0.00    +0.024 C 
ATOM     24  C   UNL     1      15.306   4.181  -0.229  0.00  0.00    +0.024 C 
ENDBRANCH   5  22
ENDBRANCH  18  20
ENDBRANCH  12  18
TORSDOF 6
ENDMDL
MODEL 10
REMARK VINA RESULT:      -6.0     26.086     31.209
REMARK  Name = 45361649
REMARK  10 active torsions:
REMARK  status: ('A' for Active; 'I' for Inactive)
REMARK    1  A    between atoms: O_1  and  C_10
REMARK    2  A    between atoms: N_4  and  C_14
REMARK    3  A    between atoms: N_5  and  C_22
REMARK    4  A    between atoms: N_6  and  C_26
REMARK    5  A    between atoms: C_7  and  C_17
REMARK    6  A    between atoms: C_9  and  C_19
REMARK    7  A    between atoms: C_12  and  C_18
REMARK    8  A    between atoms: C_18  and  C_20
REMARK    9  A    between atoms: C_18  and  C_21
REMARK   10  A    between atoms: C_26  and  C_27
REMARK                            x       y       z     vdW  Elec       q    Type
REMARK                         _______ _______ _______ _____ _____    ______ ____
ROOT
ATOM      7  C   UNL     1      13.078   6.389   1.371  0.00  0.00    -0.027 C 
ATOM      8  C   UNL     1      11.788   5.527   1.579  0.00  0.00    +0.028 C 
ATOM      9  C   UNL     1      11.663   5.059   3.073  0.00  0.00    +0.012 C 
ATOM     10  C   UNL     1      11.687   4.397   0.514  0.00  0.00    +0.122 C 
ATOM     11  C   UNL     1      13.111   6.926  -0.079  0.00  0.00    +0.007 C 
ATOM     12  C   UNL     1      11.826   4.928  -0.932  0.00  0.00    +0.029 C 
ATOM     13  C   UNL     1      13.029   7.606   2.324  0.00  0.00    +0.009 C 
ATOM     14  C   UNL     1      11.691   6.286   4.027  0.00  0.00    +0.078 C 
ATOM     15  C   UNL     1      13.053   5.820  -1.125  0.00  0.00    +0.007 C 
ATOM     16  C   UNL     1      12.882   7.214   3.787  0.00  0.00    +0.023 C 
ATOM     17  C   UNL     1      14.377   5.586   1.634  0.00  0.00    +0.011 C 
ATOM     19  C   UNL     1      10.399   4.228   3.355  0.00  0.00    +0.010 C 
ENDROOT
BRANCH  14   4
ATOM      3  O   UNL     1       9.631   6.783   5.984  0.00  0.00    -0.253 OA
ATOM      4  N   UNL     1      11.695   5.885   5.417  0.00  0.00    -0.296 N 
ATOM      6  N   UNL     1      10.914   5.671   7.566  0.00  0.00    -0.300 N 
ATOM     25  C   UNL     1      10.653   6.170   6.292  0.00  0.00    +0.300 C 
ATOM     28  H   UNL     1      12.530   5.445   5.791  0.00  0.00    +0.151 HD
ATOM     31  H   UNL     1      11.781   5.165   7.723  0.00  0.00    +0.150 HD
BRANCH   6  26
ATOM     26  C   UNL     1       9.997   5.825   8.671  0.00  0.00    +0.102 C 
ATOM     27  C   UNL     1       9.455   4.488   9.132  0.00  0.00    +0.024 C 
ENDBRANCH   6  26
ENDBRANCH  14   4
BRANCH  10   1
ATOM      1  O   UNL     1      10.404   3.774   0.598  0.00  0.00    -0.391 OA
ATOM     29  H   UNL     1       9.804   4.382   1.064  0.00  0.00    +0.210 HD
ENDBRANCH  10   1
BRANCH  12  18
ATOM     18  C   UNL     1      11.855   3.788  -1.957  0.00  0.00    +0.077 C 
ATOM     21  C   UNL     1      13.052   3.950  -2.888  0.00  0.00    +0.017 C 
BRANCH  18  20
ATOM      2  O   UNL     1       9.507   4.243  -2.364  0.00  0.00    -0.276 OA
ATOM      5  N   UNL     1      10.710   3.082  -3.969  0.00  0.00    -0.312 N 
ATOM     20  C   UNL     1      10.559   3.746  -2.759  0.00  0.00    +0.216 C 
ATOM     30  H   UNL     1      11.614   2.694  -4.224  0.00  0.00    +0.149 HD
BRANCH   5  22
ATOM     22  C   UNL     1       9.627   2.909  -4.894  0.00  0.00    +0.073 C 
ATOM     23  C   UNL     1       9.883   2.649  -6.350  0.00  0.00    +0.024 C 
ATOM     24  C   UNL     1       9.300   3.961  -5.913  0.00  0.00    +0.024 C 
ENDBRANCH   5  22
ENDBRANCH  18  20
ENDBRANCH  12  18
TORSDOF 6
ENDMDL
