MODEL 1
REMARK VINA RESULT:      -7.2      0.000      0.000
REMARK  Name = 51137060
REMARK  3 active torsions:
REMARK  status: ('A' for Active; 'I' for Inactive)
REMARK    1  A    between atoms: N_4  and  C_10
REMARK    2  A    between atoms: C_6  and  C_11
REMARK    3  A    between atoms: C_10  and  C_12
REMARK                            x       y       z     vdW  Elec       q    Type
REMARK                         _______ _______ _______ _____ _____    ______ ____
ROOT
ATOM      4  N   UNL     1      11.463   9.609  21.494  0.00  0.00    -0.297 NA
ATOM      6  C   UNL     1      13.108   8.939  19.961  0.00  0.00    +0.090 C 
ATOM      7  C   UNL     1      11.800   8.178  19.679  0.00  0.00    +0.029 C 
ATOM      8  C   UNL     1      12.920   9.526  21.367  0.00  0.00    +0.097 C 
ATOM      9  C   UNL     1      10.964   8.350  20.942  0.00  0.00    +0.085 C 
ENDROOT
BRANCH   6  11
ATOM      3  O   UNL     1      15.324   8.333  20.773  0.00  0.00    -0.439 OA
ATOM      5  N   UNL     1      14.655   7.204  18.925  0.00  0.00    -0.213 NA
ATOM     11  C   UNL     1      14.365   8.111  19.831  0.00  0.00    +0.201 A 
ATOM     13  C   UNL     1      16.324   7.472  20.420  0.00  0.00    +0.155 A 
ATOM     14  C   UNL     1      15.911   6.783  19.289  0.00  0.00    +0.110 A 
ATOM     17  C   UNL     1      17.546   7.292  21.055  0.00  0.00    +0.048 A 
ATOM     18  C   UNL     1      16.770   5.829  18.725  0.00  0.00    +0.031 A 
ATOM     21  C   UNL     1      18.392   6.336  20.480  0.00  0.00    +0.004 A 
ATOM     22  C   UNL     1      18.014   5.619  19.339  0.00  0.00    +0.002 A 
ENDBRANCH   6  11
BRANCH   4  10
ATOM     10  C   UNL     1      11.037   9.818  22.869  0.00  0.00    +0.119 C 
BRANCH  10  12
ATOM      1  F   UNL     1      10.430  13.434  26.091  0.00  0.00    -0.202 F 
ATOM      2  F   UNL     1      10.484  15.293  24.086  0.00  0.00    -0.202 F 
ATOM     12  C   UNL     1      10.890  11.282  23.194  0.00  0.00    -0.030 A 
ATOM     15  C   UNL     1      10.725  11.689  24.518  0.00  0.00    +0.046 A 
ATOM     16  C   UNL     1      10.918  12.229  22.171  0.00  0.00    +0.008 A 
ATOM     19  C   UNL     1      10.588  13.043  24.819  0.00  0.00    +0.159 A 
ATOM     20  C   UNL     1      10.781  13.584  22.473  0.00  0.00    +0.041 A 
ATOM     23  C   UNL     1      10.616  13.991  23.796  0.00  0.00    +0.158 A 
ENDBRANCH  10  12
ENDBRANCH   4  10
TORSDOF 3
ENDMDL
MODEL 2
REMARK VINA RESULT:      -6.9      3.662      8.156
REMARK  Name = 51137060
REMARK  3 active torsions:
REMARK  status: ('A' for Active; 'I' for Inactive)
REMARK    1  A    between atoms: N_4  and  C_10
REMARK    2  A    between atoms: C_6  and  C_11
REMARK    3  A    between atoms: C_10  and  C_12
REMARK                            x       y       z     vdW  Elec       q    Type
REMARK                         _______ _______ _______ _____ _____    ______ ____
ROOT
ATOM      4  N   UNL     1      13.130   8.209  19.936  0.00  0.00    -0.297 NA
ATOM      6  C   UNL     1      11.887   9.101  21.714  0.00  0.00    +0.090 C 
ATOM      7  C   UNL     1      10.931   8.611  20.612  0.00  0.00    +0.029 C 
ATOM      8  C   UNL     1      13.261   9.170  21.034  0.00  0.00    +0.097 C 
ATOM      9  C   UNL     1      11.804   8.459  19.372  0.00  0.00    +0.085 C 
ENDROOT
BRANCH   6  11
ATOM      3  O   UNL     1      11.455  10.400  23.730  0.00  0.00    -0.439 OA
ATOM      5  N   UNL     1      11.165  11.541  21.793  0.00  0.00    -0.213 NA
ATOM     11  C   UNL     1      11.487  10.403  22.369  0.00  0.00    +0.201 A 
ATOM     13  C   UNL     1      11.072  11.672  24.044  0.00  0.00    +0.155 A 
ATOM     14  C   UNL     1      10.895  12.368  22.857  0.00  0.00    +0.110 A 
ATOM     17  C   UNL     1      10.883  12.209  25.312  0.00  0.00    +0.048 A 
ATOM     18  C   UNL     1      10.498  13.711  22.911  0.00  0.00    +0.031 A 
ATOM     21  C   UNL     1      10.487  13.552  25.348  0.00  0.00    +0.004 A 
ATOM     22  C   UNL     1      10.297  14.289  24.173  0.00  0.00    +0.002 A 
ENDBRANCH   6  11
BRANCH   4  10
ATOM     10  C   UNL     1      14.188   8.349  18.947  0.00  0.00    +0.119 C 
BRANCH  10  12
ATOM      1  F   UNL     1      18.186   8.401  21.747  0.00  0.00    -0.202 F 
ATOM      2  F   UNL     1      19.014   6.019  20.691  0.00  0.00    -0.202 F 
ATOM     12  C   UNL     1      15.478   7.726  19.414  0.00  0.00    -0.030 A 
ATOM     15  C   UNL     1      16.250   8.364  20.383  0.00  0.00    +0.046 A 
ATOM     16  C   UNL     1      15.900   6.510  18.875  0.00  0.00    +0.008 A 
ATOM     19  C   UNL     1      17.444   7.788  20.816  0.00  0.00    +0.159 A 
ATOM     20  C   UNL     1      17.094   5.934  19.307  0.00  0.00    +0.041 A 
ATOM     23  C   UNL     1      17.866   6.572  20.277  0.00  0.00    +0.158 A 
ENDBRANCH  10  12
ENDBRANCH   4  10
TORSDOF 3
ENDMDL
MODEL 3
REMARK VINA RESULT:      -6.9     26.863     28.993
REMARK  Name = 51137060
REMARK  3 active torsions:
REMARK  status: ('A' for Active; 'I' for Inactive)
REMARK    1  A    between atoms: N_4  and  C_10
REMARK    2  A    between atoms: C_6  and  C_11
REMARK    3  A    between atoms: C_10  and  C_12
REMARK                            x       y       z     vdW  Elec       q    Type
REMARK                         _______ _______ _______ _____ _____    ______ ____
ROOT
ATOM      4  N   UNL     1      -2.155 -11.013  13.772  0.00  0.00    -0.297 NA
ATOM      6  C   UNL     1      -3.278 -10.291  15.701  0.00  0.00    +0.090 C 
ATOM      7  C   UNL     1      -1.877 -10.802  16.081  0.00  0.00    +0.029 C 
ATOM      8  C   UNL     1      -3.515 -10.828  14.283  0.00  0.00    +0.097 C 
ATOM      9  C   UNL     1      -1.415 -11.618  14.879  0.00  0.00    +0.085 C 
ENDROOT
BRANCH   6  11
ATOM      3  O   UNL     1      -5.515  -9.928  16.596  0.00  0.00    -0.439 OA
ATOM      5  N   UNL     1      -4.375 -11.628  17.569  0.00  0.00    -0.213 NA
ATOM     11  C   UNL     1      -4.376 -10.671  16.667  0.00  0.00    +0.201 A 
ATOM     13  C   UNL     1      -6.316 -10.476  17.557  0.00  0.00    +0.155 A 
ATOM     14  C   UNL     1      -5.615 -11.516  18.150  0.00  0.00    +0.110 A 
ATOM     17  C   UNL     1      -7.604 -10.090  17.905  0.00  0.00    +0.048 A 
ATOM     18  C   UNL     1      -6.227 -12.246  19.178  0.00  0.00    +0.031 A 
ATOM     21  C   UNL     1      -8.202 -10.829  18.932  0.00  0.00    +0.004 A 
ATOM     22  C   UNL     1      -7.529 -11.886  19.558  0.00  0.00    +0.002 A 
ENDBRANCH   6  11
BRANCH   4  10
ATOM     10  C   UNL     1      -2.121 -11.831  12.570  0.00  0.00    +0.119 C 
BRANCH  10  12
ATOM      1  F   UNL     1      -5.154 -11.915   8.746  0.00  0.00    -0.202 F 
ATOM      2  F   UNL     1      -4.638  -9.282   8.220  0.00  0.00    -0.202 F 
ATOM     12  C   UNL     1      -2.794 -11.150  11.407  0.00  0.00    -0.030 A 
ATOM     15  C   UNL     1      -3.679 -11.862  10.599  0.00  0.00    +0.046 A 
ATOM     16  C   UNL     1      -2.531  -9.806  11.139  0.00  0.00    +0.008 A 
ATOM     19  C   UNL     1      -4.303 -11.231   9.523  0.00  0.00    +0.159 A 
ATOM     20  C   UNL     1      -3.153  -9.176  10.062  0.00  0.00    +0.041 A 
ATOM     23  C   UNL     1      -4.039  -9.888   9.255  0.00  0.00    +0.158 A 
ENDBRANCH  10  12
ENDBRANCH   4  10
TORSDOF 3
ENDMDL
MODEL 4
REMARK VINA RESULT:      -6.8     27.435     29.404
REMARK  Name = 51137060
REMARK  3 active torsions:
REMARK  status: ('A' for Active; 'I' for Inactive)
REMARK    1  A    between atoms: N_4  and  C_10
REMARK    2  A    between atoms: C_6  and  C_11
REMARK    3  A    between atoms: C_10  and  C_12
REMARK                            x       y       z     vdW  Elec       q    Type
REMARK                         _______ _______ _______ _____ _____    ______ ____
ROOT
ATOM      4  N   UNL     1      -4.272 -10.730  14.722  0.00  0.00    -0.297 NA
ATOM      6  C   UNL     1      -5.601  -9.664  16.333  0.00  0.00    +0.090 C 
ATOM      7  C   UNL     1      -4.495 -10.473  17.032  0.00  0.00    +0.029 C 
ATOM      8  C   UNL     1      -5.626 -10.201  14.896  0.00  0.00    +0.097 C 
ATOM      9  C   UNL     1      -3.979 -11.436  15.969  0.00  0.00    +0.085 C 
ENDROOT
BRANCH   6  11
ATOM      3  O   UNL     1      -7.058 -10.581  18.058  0.00  0.00    -0.439 OA
ATOM      5  N   UNL     1      -8.042  -9.048  16.710  0.00  0.00    -0.213 NA
ATOM     11  C   UNL     1      -6.953  -9.721  17.007  0.00  0.00    +0.201 A 
ATOM     13  C   UNL     1      -8.353 -10.432  18.465  0.00  0.00    +0.155 A 
ATOM     14  C   UNL     1      -8.952  -9.493  17.638  0.00  0.00    +0.110 A 
ATOM     17  C   UNL     1      -8.990 -11.085  19.513  0.00  0.00    +0.048 A 
ATOM     18  C   UNL     1     -10.297  -9.160  17.853  0.00  0.00    +0.031 A 
ATOM     21  C   UNL     1     -10.332 -10.741  19.715  0.00  0.00    +0.004 A 
ATOM     22  C   UNL     1     -10.974  -9.799  18.903  0.00  0.00    +0.002 A 
ENDBRANCH   6  11
BRANCH   4  10
ATOM     10  C   UNL     1      -4.160 -11.595  13.556  0.00  0.00    +0.119 C 
BRANCH  10  12
ATOM      1  F   UNL     1      -1.478  -8.939  10.462  0.00  0.00    -0.202 F 
ATOM      2  F   UNL     1      -3.621  -8.635   8.792  0.00  0.00    -0.202 F 
ATOM     12  C   UNL     1      -4.016 -10.804  12.283  0.00  0.00    -0.030 A 
ATOM     15  C   UNL     1      -2.789 -10.226  11.955  0.00  0.00    +0.046 A 
ATOM     16  C   UNL     1      -5.109 -10.649  11.431  0.00  0.00    +0.008 A 
ATOM     19  C   UNL     1      -2.656  -9.494  10.776  0.00  0.00    +0.159 A 
ATOM     20  C   UNL     1      -4.976  -9.916  10.252  0.00  0.00    +0.041 A 
ATOM     23  C   UNL     1      -3.749  -9.339   9.924  0.00  0.00    +0.158 A 
ENDBRANCH  10  12
ENDBRANCH   4  10
TORSDOF 3
ENDMDL
MODEL 5
REMARK VINA RESULT:      -6.7     25.564     28.077
REMARK  Name = 51137060
REMARK  3 active torsions:
REMARK  status: ('A' for Active; 'I' for Inactive)
REMARK    1  A    between atoms: N_4  and  C_10
REMARK    2  A    between atoms: C_6  and  C_11
REMARK    3  A    between atoms: C_10  and  C_12
REMARK                            x       y       z     vdW  Elec       q    Type
REMARK                         _______ _______ _______ _____ _____    ______ ____
ROOT
ATOM      4  N   UNL     1     -13.313   6.995  20.894  0.00  0.00    -0.297 NA
ATOM      6  C   UNL     1     -14.948   5.450  21.555  0.00  0.00    +0.090 C 
ATOM      7  C   UNL     1     -15.586   6.843  21.408  0.00  0.00    +0.029 C 
ATOM      8  C   UNL     1     -13.438   5.716  21.596  0.00  0.00    +0.097 C 
ATOM      9  C   UNL     1     -14.412   7.815  21.405  0.00  0.00    +0.085 C 
ENDROOT
BRANCH   6  11
ATOM      3  O   UNL     1     -16.325   3.654  22.458  0.00  0.00    -0.439 OA
ATOM      5  N   UNL     1     -15.119   4.787  24.006  0.00  0.00    -0.213 NA
ATOM     11  C   UNL     1     -15.438   4.648  22.739  0.00  0.00    +0.201 A 
ATOM     13  C   UNL     1     -16.592   3.109  23.682  0.00  0.00    +0.155 A 
ATOM     14  C   UNL     1     -15.852   3.805  24.627  0.00  0.00    +0.110 A 
ATOM     17  C   UNL     1     -17.444   2.049  23.968  0.00  0.00    +0.048 A 
ATOM     18  C   UNL     1     -15.952   3.433  25.975  0.00  0.00    +0.031 A 
ATOM     21  C   UNL     1     -17.532   1.690  25.318  0.00  0.00    +0.004 A 
ATOM     22  C   UNL     1     -16.803   2.366  26.303  0.00  0.00    +0.002 A 
ENDBRANCH   6  11
BRANCH   4  10
ATOM     10  C   UNL     1     -12.014   7.618  21.102  0.00  0.00    +0.119 C 
BRANCH  10  12
ATOM      1  F   UNL     1      -9.923  11.190  18.515  0.00  0.00    -0.202 F 
ATOM      2  F   UNL     1      -9.840   9.596  16.295  0.00  0.00    -0.202 F 
ATOM     12  C   UNL     1     -11.433   8.147  19.817  0.00  0.00    -0.030 A 
ATOM     15  C   UNL     1     -10.938   9.449  19.760  0.00  0.00    +0.046 A 
ATOM     16  C   UNL     1     -11.390   7.333  18.685  0.00  0.00    +0.008 A 
ATOM     19  C   UNL     1     -10.399   9.939  18.570  0.00  0.00    +0.159 A 
ATOM     20  C   UNL     1     -10.852   7.823  17.495  0.00  0.00    +0.041 A 
ATOM     23  C   UNL     1     -10.356   9.125  17.438  0.00  0.00    +0.158 A 
ENDBRANCH  10  12
ENDBRANCH   4  10
TORSDOF 3
ENDMDL
MODEL 6
REMARK VINA RESULT:      -6.6     27.378     29.160
REMARK  Name = 51137060
REMARK  3 active torsions:
REMARK  status: ('A' for Active; 'I' for Inactive)
REMARK    1  A    between atoms: N_4  and  C_10
REMARK    2  A    between atoms: C_6  and  C_11
REMARK    3  A    between atoms: C_10  and  C_12
REMARK                            x       y       z     vdW  Elec       q    Type
REMARK                         _______ _______ _______ _____ _____    ______ ____
ROOT
ATOM      4  N   UNL     1      -2.742 -11.772  12.586  0.00  0.00    -0.297 NA
ATOM      6  C   UNL     1      -3.157 -10.654  14.605  0.00  0.00    +0.090 C 
ATOM      7  C   UNL     1      -1.853 -11.462  14.722  0.00  0.00    +0.029 C 
ATOM      8  C   UNL     1      -3.855 -11.222  13.362  0.00  0.00    +0.097 C 
ATOM      9  C   UNL     1      -1.898 -12.454  13.566  0.00  0.00    +0.085 C 
ENDROOT
BRANCH   6  11
ATOM      3  O   UNL     1      -3.544 -11.373  16.901  0.00  0.00    -0.439 OA
ATOM      5  N   UNL     1      -5.210 -10.119  16.012  0.00  0.00    -0.213 NA
ATOM     11  C   UNL     1      -4.034 -10.679  15.836  0.00  0.00    +0.201 A 
ATOM     13  C   UNL     1      -4.518 -11.233  17.849  0.00  0.00    +0.155 A 
ATOM     14  C   UNL     1      -5.535 -10.465  17.301  0.00  0.00    +0.110 A 
ATOM     17  C   UNL     1      -4.523 -11.751  19.138  0.00  0.00    +0.048 A 
ATOM     18  C   UNL     1      -6.662 -10.175  18.084  0.00  0.00    +0.031 A 
ATOM     21  C   UNL     1      -5.654 -11.452  19.906  0.00  0.00    +0.004 A 
ATOM     22  C   UNL     1      -6.703 -10.681  19.392  0.00  0.00    +0.002 A 
ENDBRANCH   6  11
BRANCH   4  10
ATOM     10  C   UNL     1      -3.191 -12.663  11.526  0.00  0.00    +0.119 C 
BRANCH  10  12
ATOM      1  F   UNL     1      -3.932  -8.479   9.123  0.00  0.00    -0.202 F 
ATOM      2  F   UNL     1      -5.186  -9.813   7.092  0.00  0.00    -0.202 F 
ATOM     12  C   UNL     1      -3.724 -11.901  10.341  0.00  0.00    -0.030 A 
ATOM     15  C   UNL     1      -3.578 -10.515  10.279  0.00  0.00    +0.046 A 
ATOM     16  C   UNL     1      -4.363 -12.582   9.305  0.00  0.00    +0.008 A 
ATOM     19  C   UNL     1      -4.071  -9.810   9.182  0.00  0.00    +0.159 A 
ATOM     20  C   UNL     1      -4.857 -11.876   8.208  0.00  0.00    +0.041 A 
ATOM     23  C   UNL     1      -4.711 -10.491   8.146  0.00  0.00    +0.158 A 
ENDBRANCH  10  12
ENDBRANCH   4  10
TORSDOF 3
ENDMDL
MODEL 7
REMARK VINA RESULT:      -6.6     26.754     29.337
REMARK  Name = 51137060
REMARK  3 active torsions:
REMARK  status: ('A' for Active; 'I' for Inactive)
REMARK    1  A    between atoms: N_4  and  C_10
REMARK    2  A    between atoms: C_6  and  C_11
REMARK    3  A    between atoms: C_10  and  C_12
REMARK                            x       y       z     vdW  Elec       q    Type
REMARK                         _______ _______ _______ _____ _____    ______ ____
ROOT
ATOM      4  N   UNL     1      -4.552 -11.778  16.882  0.00  0.00    -0.297 NA
ATOM      6  C   UNL     1      -6.131 -10.332  17.840  0.00  0.00    +0.090 C 
ATOM      7  C   UNL     1      -5.810 -11.470  18.825  0.00  0.00    +0.029 C 
ATOM      8  C   UNL     1      -5.591 -10.823  16.490  0.00  0.00    +0.097 C 
ATOM      9  C   UNL     1      -5.139 -12.546  17.979  0.00  0.00    +0.085 C 
ENDROOT
BRANCH   6  11
ATOM      3  O   UNL     1      -7.875  -8.839  17.023  0.00  0.00    -0.439 OA
ATOM      5  N   UNL     1      -8.613 -10.503  18.373  0.00  0.00    -0.213 NA
ATOM     11  C   UNL     1      -7.587  -9.932  17.783  0.00  0.00    +0.201 A 
ATOM     13  C   UNL     1      -9.228  -8.710  17.149  0.00  0.00    +0.155 A 
ATOM     14  C   UNL     1      -9.677  -9.729  17.976  0.00  0.00    +0.110 A 
ATOM     17  C   UNL     1     -10.042  -7.745  16.569  0.00  0.00    +0.048 A 
ATOM     18  C   UNL     1     -11.046  -9.815  18.264  0.00  0.00    +0.031 A 
ATOM     21  C   UNL     1     -11.407  -7.845  16.866  0.00  0.00    +0.004 A 
ATOM     22  C   UNL     1     -11.901  -8.858  17.697  0.00  0.00    +0.002 A 
ENDBRANCH   6  11
BRANCH   4  10
ATOM     10  C   UNL     1      -4.131 -12.624  15.776  0.00  0.00    +0.119 C 
BRANCH  10  12
ATOM      1  F   UNL     1      -0.832  -9.259  14.504  0.00  0.00    -0.202 F 
ATOM      2  F   UNL     1      -1.325  -9.710  11.852  0.00  0.00    -0.202 F 
ATOM     12  C   UNL     1      -3.381 -11.845  14.727  0.00  0.00    -0.030 A 
ATOM     15  C   UNL     1      -2.435 -10.894  15.108  0.00  0.00    +0.046 A 
ATOM     16  C   UNL     1      -3.632 -12.076  13.375  0.00  0.00    +0.008 A 
ATOM     19  C   UNL     1      -1.740 -10.173  14.138  0.00  0.00    +0.159 A 
ATOM     20  C   UNL     1      -2.938 -11.354  12.404  0.00  0.00    +0.041 A 
ATOM     23  C   UNL     1      -1.992 -10.403  12.785  0.00  0.00    +0.158 A 
ENDBRANCH  10  12
ENDBRANCH   4  10
TORSDOF 3
ENDMDL
MODEL 8
REMARK VINA RESULT:      -6.5     28.131     30.653
REMARK  Name = 51137060
REMARK  3 active torsions:
REMARK  status: ('A' for Active; 'I' for Inactive)
REMARK    1  A    between atoms: N_4  and  C_10
REMARK    2  A    between atoms: C_6  and  C_11
REMARK    3  A    between atoms: C_10  and  C_12
REMARK                            x       y       z     vdW  Elec       q    Type
REMARK                         _______ _______ _______ _____ _____    ______ ____
ROOT
ATOM      4  N   UNL     1      -9.739  -8.673  16.314  0.00  0.00    -0.297 NA
ATOM      6  C   UNL     1     -11.381  -7.003  16.192  0.00  0.00    +0.090 C 
ATOM      7  C   UNL     1     -12.015  -8.313  16.692  0.00  0.00    +0.029 C 
ATOM      8  C   UNL     1     -10.028  -7.426  15.603  0.00  0.00    +0.097 C 
ATOM      9  C   UNL     1     -11.008  -9.400  16.334  0.00  0.00    +0.085 C 
ENDROOT
BRANCH   6  11
ATOM      3  O   UNL     1     -11.553  -5.383  14.379  0.00  0.00    -0.439 OA
ATOM      5  N   UNL     1     -13.535  -6.234  15.075  0.00  0.00    -0.213 NA
ATOM     11  C   UNL     1     -12.228  -6.217  15.218  0.00  0.00    +0.201 A 
ATOM     13  C   UNL     1     -12.542  -4.815  13.629  0.00  0.00    +0.155 A 
ATOM     14  C   UNL     1     -13.753  -5.337  14.057  0.00  0.00    +0.110 A 
ATOM     17  C   UNL     1     -12.399  -3.879  12.611  0.00  0.00    +0.048 A 
ATOM     18  C   UNL     1     -14.935  -4.908  13.437  0.00  0.00    +0.031 A 
ATOM     21  C   UNL     1     -13.588  -3.461  12.001  0.00  0.00    +0.004 A 
ATOM     22  C   UNL     1     -14.831  -3.963  12.404  0.00  0.00    +0.002 A 
ENDBRANCH   6  11
BRANCH   4  10
ATOM     10  C   UNL     1      -8.673  -9.437  15.683  0.00  0.00    +0.119 C 
BRANCH  10  12
ATOM      1  F   UNL     1      -4.003 -10.165  16.899  0.00  0.00    -0.202 F 
ATOM      2  F   UNL     1      -4.736 -11.011  19.394  0.00  0.00    -0.202 F 
ATOM     12  C   UNL     1      -7.621  -9.858  16.675  0.00  0.00    -0.030 A 
ATOM     15  C   UNL     1      -6.272  -9.816  16.321  0.00  0.00    +0.046 A 
ATOM     16  C   UNL     1      -7.995 -10.289  17.947  0.00  0.00    +0.008 A 
ATOM     19  C   UNL     1      -5.298 -10.205  17.239  0.00  0.00    +0.159 A 
ATOM     20  C   UNL     1      -7.020 -10.679  18.865  0.00  0.00    +0.041 A 
ATOM     23  C   UNL     1      -5.672 -10.636  18.512  0.00  0.00    +0.158 A 
ENDBRANCH  10  12
ENDBRANCH   4  10
TORSDOF 3
ENDMDL
MODEL 9
REMARK VINA RESULT:      -6.5     18.146     20.150
REMARK  Name = 51137060
REMARK  3 active torsions:
REMARK  status: ('A' for Active; 'I' for Inactive)
REMARK    1  A    between atoms: N_4  and  C_10
REMARK    2  A    between atoms: C_6  and  C_11
REMARK    3  A    between atoms: C_10  and  C_12
REMARK                            x       y       z     vdW  Elec       q    Type
REMARK                         _______ _______ _______ _____ _____    ______ ____
ROOT
ATOM      4  N   UNL     1      10.944   5.456   3.541  0.00  0.00    -0.297 NA
ATOM      6  C   UNL     1      11.989   4.246   1.825  0.00  0.00    +0.090 C 
ATOM      7  C   UNL     1      12.846   5.473   2.186  0.00  0.00    +0.029 C 
ATOM      8  C   UNL     1      10.619   4.532   2.454  0.00  0.00    +0.097 C 
ATOM      9  C   UNL     1      11.911   6.391   2.966  0.00  0.00    +0.085 C 
ENDROOT
BRANCH   6  11
ATOM      3  O   UNL     1      10.838   4.465  -0.311  0.00  0.00    -0.439 OA
ATOM      5  N   UNL     1      12.737   3.230  -0.385  0.00  0.00    -0.213 NA
ATOM     11  C   UNL     1      11.908   3.940   0.348  0.00  0.00    +0.201 A 
ATOM     13  C   UNL     1      11.014   4.039  -1.597  0.00  0.00    +0.155 A 
ATOM     14  C   UNL     1      12.177   3.284  -1.638  0.00  0.00    +0.110 A 
ATOM     17  C   UNL     1      10.198   4.297  -2.691  0.00  0.00    +0.048 A 
ATOM     18  C   UNL     1      12.581   2.728  -2.860  0.00  0.00    +0.031 A 
ATOM     21  C   UNL     1      10.616   3.735  -3.904  0.00  0.00    +0.004 A 
ATOM     22  C   UNL     1      11.782   2.966  -3.989  0.00  0.00    +0.002 A 
ENDBRANCH   6  11
BRANCH   4  10
ATOM     10  C   UNL     1       9.767   6.131   4.067  0.00  0.00    +0.119 C 
BRANCH  10  12
ATOM      1  F   UNL     1       8.625   7.841   8.494  0.00  0.00    -0.202 F 
ATOM      2  F   UNL     1       9.264   5.441   9.637  0.00  0.00    -0.202 F 
ATOM     12  C   UNL     1       9.632   5.947   5.556  0.00  0.00    -0.030 A 
ATOM     15  C   UNL     1       9.183   7.000   6.352  0.00  0.00    +0.046 A 
ATOM     16  C   UNL     1       9.958   4.722   6.139  0.00  0.00    +0.008 A 
ATOM     19  C   UNL     1       9.057   6.829   7.730  0.00  0.00    +0.159 A 
ATOM     20  C   UNL     1       9.834   4.551   7.518  0.00  0.00    +0.041 A 
ATOM     23  C   UNL     1       9.383   5.605   8.313  0.00  0.00    +0.158 A 
ENDBRANCH  10  12
ENDBRANCH   4  10
TORSDOF 3
ENDMDL
MODEL 10
REMARK VINA RESULT:      -6.5      3.732      5.551
REMARK  Name = 51137060
REMARK  3 active torsions:
REMARK  status: ('A' for Active; 'I' for Inactive)
REMARK    1  A    between atoms: N_4  and  C_10
REMARK    2  A    between atoms: C_6  and  C_11
REMARK    3  A    between atoms: C_10  and  C_12
REMARK                            x       y       z     vdW  Elec       q    Type
REMARK                         _______ _______ _______ _____ _____    ______ ____
ROOT
ATOM      4  N   UNL     1      15.194   8.701  20.673  0.00  0.00    -0.297 NA
ATOM      6  C   UNL     1      17.355   8.515  21.565  0.00  0.00    +0.090 C 
ATOM      7  C   UNL     1      17.143   9.939  21.020  0.00  0.00    +0.029 C 
ATOM      8  C   UNL     1      16.217   7.691  20.948  0.00  0.00    +0.097 C 
ATOM      9  C   UNL     1      15.926   9.836  20.110  0.00  0.00    +0.085 C 
ENDROOT
BRANCH   6  11
ATOM      3  O   UNL     1      18.757   6.587  21.062  0.00  0.00    -0.439 OA
ATOM      5  N   UNL     1      19.882   8.545  21.260  0.00  0.00    -0.213 NA
ATOM     11  C   UNL     1      18.721   7.928  21.296  0.00  0.00    +0.201 A 
ATOM     13  C   UNL     1      20.083   6.334  20.856  0.00  0.00    +0.155 A 
ATOM     14  C   UNL     1      20.768   7.534  20.978  0.00  0.00    +0.110 A 
ATOM     17  C   UNL     1      20.676   5.109  20.572  0.00  0.00    +0.048 A 
ATOM     18  C   UNL     1      22.160   7.541  20.809  0.00  0.00    +0.031 A 
ATOM     21  C   UNL     1      22.066   5.133  20.406  0.00  0.00    +0.004 A 
ATOM     22  C   UNL     1      22.795   6.323  20.521  0.00  0.00    +0.002 A 
ENDBRANCH   6  11
BRANCH   4  10
ATOM     10  C   UNL     1      14.157   8.211  19.777  0.00  0.00    +0.119 C 
BRANCH  10  12
ATOM      1  F   UNL     1      10.952   5.037  21.641  0.00  0.00    -0.202 F 
ATOM      2  F   UNL     1       9.368   7.083  22.525  0.00  0.00    -0.202 F 
ATOM     12  C   UNL     1      12.877   7.910  20.512  0.00  0.00    -0.030 A 
ATOM     15  C   UNL     1      12.499   6.587  20.741  0.00  0.00    +0.046 A 
ATOM     16  C   UNL     1      12.070   8.954  20.963  0.00  0.00    +0.008 A 
ATOM     19  C   UNL     1      11.315   6.307  21.421  0.00  0.00    +0.159 A 
ATOM     20  C   UNL     1      10.884   8.674  21.643  0.00  0.00    +0.041 A 
ATOM     23  C   UNL     1      10.507   7.351  21.872  0.00  0.00    +0.158 A 
ENDBRANCH  10  12
ENDBRANCH   4  10
TORSDOF 3
ENDMDL
