MODEL 1
REMARK VINA RESULT:      -7.3      0.000      0.000
REMARK  Name = 45361212
REMARK  9 active torsions:
REMARK  status: ('A' for Active; 'I' for Inactive)
REMARK    1  A    between atoms: S_1  and  C_33
REMARK    2  A    between atoms: S_1  and  C_34
REMARK    3  A    between atoms: O_4  and  C_28
REMARK    4  A    between atoms: N_7  and  C_20
REMARK    5  A    between atoms: N_8  and  C_19
REMARK    6  A    between atoms: C_15  and  C_18
REMARK    7  A    between atoms: C_18  and  C_21
REMARK    8  A    between atoms: C_19  and  C_22
REMARK    9  A    between atoms: C_21  and  C_23
REMARK                            x       y       z     vdW  Elec       q    Type
REMARK                         _______ _______ _______ _____ _____    ______ ____
ROOT
ATOM      2  O   UNL     1     -14.618   4.346  24.094  0.00  0.00    -0.274 OA
ATOM      7  N   UNL     1     -17.475   1.813  24.731  0.00  0.00    -0.296 NA
ATOM      8  N   UNL     1     -16.816   4.686  22.563  0.00  0.00    -0.286 NA
ATOM      9  N   UNL     1     -15.775   3.778  25.985  0.00  0.00    -0.312 N 
ATOM     11  C   UNL     1     -17.886   2.959  23.891  0.00  0.00    +0.084 C 
ATOM     12  C   UNL     1     -17.047   4.267  23.959  0.00  0.00    +0.161 C 
ATOM     13  C   UNL     1     -17.888   2.657  22.380  0.00  0.00    +0.036 C 
ATOM     14  C   UNL     1     -17.832   4.031  21.746  0.00  0.00    +0.087 C 
ATOM     15  C   UNL     1     -17.552   2.065  26.197  0.00  0.00    +0.074 C 
ATOM     16  C   UNL     1     -15.693   4.131  24.651  0.00  0.00    +0.232 C 
ATOM     17  C   UNL     1     -17.019   3.440  26.648  0.00  0.00    +0.123 C 
ATOM     20  C   UNL     1     -18.242   0.605  24.381  0.00  0.00    +0.105 C 
ATOM     35  H   UNL     1     -14.914   3.746  26.522  0.00  0.00    +0.149 HD
ENDROOT
BRANCH  15  18
ATOM     18  C   UNL     1     -16.767   0.986  26.973  0.00  0.00    +0.029 C 
BRANCH  18  21
ATOM     21  C   UNL     1     -16.846   1.197  28.473  0.00  0.00    +0.097 C 
BRANCH  21  23
ATOM      3  O   UNL     1     -15.043  -0.211  29.086  0.00  0.00    -0.276 OA
ATOM     10  N   UNL     1     -14.904   2.005  29.769  0.00  0.00    -0.301 N 
ATOM     23  C   UNL     1     -15.517   0.926  29.132  0.00  0.00    +0.216 C 
ATOM     24  C   UNL     1     -13.590   1.831  30.392  0.00  0.00    +0.110 C 
ATOM     25  C   UNL     1     -15.445   3.369  29.840  0.00  0.00    +0.110 C 
ATOM     26  C   UNL     1     -13.614   2.286  31.848  0.00  0.00    +0.050 C 
ATOM     27  C   UNL     1     -15.501   3.852  31.286  0.00  0.00    +0.050 C 
ATOM     28  C   UNL     1     -14.141   3.716  31.972  0.00  0.00    +0.118 C 
BRANCH  28   4
ATOM      4  O   UNL     1     -14.283   4.062  33.343  0.00  0.00    -0.392 OA
ATOM     36  H   UNL     1     -15.164   3.766  33.630  0.00  0.00    +0.210 HD
ENDBRANCH  28   4
ENDBRANCH  21  23
ENDBRANCH  18  21
ENDBRANCH  15  18
BRANCH   8  19
ATOM     19  C   UNL     1     -16.820   6.132  22.385  0.00  0.00    +0.120 C 
BRANCH  19  22
ATOM     22  C   UNL     1     -15.720   6.587  21.464  0.00  0.00    -0.033 A 
ATOM     29  C   UNL     1     -14.398   6.597  21.907  0.00  0.00    +0.007 A 
ATOM     30  C   UNL     1     -16.023   6.998  20.165  0.00  0.00    +0.007 A 
ATOM     31  C   UNL     1     -13.378   7.018  21.053  0.00  0.00    +0.027 A 
ATOM     32  C   UNL     1     -15.004   7.418  19.311  0.00  0.00    +0.027 A 
ATOM     33  C   UNL     1     -13.682   7.429  19.756  0.00  0.00    +0.088 A 
BRANCH  33   1
ATOM      1  S   UNL     1     -12.405   7.952  18.685  0.00  0.00    -0.006 S 
ATOM      5  O   UNL     1     -11.335   6.965  18.708  0.00  0.00    -0.170 OA
ATOM      6  O   UNL     1     -13.011   8.332  17.417  0.00  0.00    -0.170 OA
ATOM     34  C   UNL     1     -11.765   9.426  19.447  0.00  0.00    +0.200 C 
ENDBRANCH  33   1
ENDBRANCH  19  22
ENDBRANCH   8  19
TORSDOF 7
ENDMDL
MODEL 2
REMARK VINA RESULT:      -7.3     30.328     34.073
REMARK  Name = 45361212
REMARK  9 active torsions:
REMARK  status: ('A' for Active; 'I' for Inactive)
REMARK    1  A    between atoms: S_1  and  C_33
REMARK    2  A    between atoms: S_1  and  C_34
REMARK    3  A    between atoms: O_4  and  C_28
REMARK    4  A    between atoms: N_7  and  C_20
REMARK    5  A    between atoms: N_8  and  C_19
REMARK    6  A    between atoms: C_15  and  C_18
REMARK    7  A    between atoms: C_18  and  C_21
REMARK    8  A    between atoms: C_19  and  C_22
REMARK    9  A    between atoms: C_21  and  C_23
REMARK                            x       y       z     vdW  Elec       q    Type
REMARK                         _______ _______ _______ _____ _____    ______ ____
ROOT
ATOM      2  O   UNL     1      18.587   5.869  19.262  0.00  0.00    -0.274 OA
ATOM      7  N   UNL     1      16.306   8.880  20.110  0.00  0.00    -0.296 NA
ATOM      8  N   UNL     1      19.301   7.267  21.459  0.00  0.00    -0.286 NA
ATOM      9  N   UNL     1      16.336   6.033  19.641  0.00  0.00    -0.312 N 
ATOM     11  C   UNL     1      17.248   8.536  21.197  0.00  0.00    +0.084 C 
ATOM     12  C   UNL     1      17.853   7.103  21.228  0.00  0.00    +0.161 C 
ATOM     13  C   UNL     1      18.511   9.417  21.233  0.00  0.00    +0.036 C 
ATOM     14  C   UNL     1      19.494   8.593  22.037  0.00  0.00    +0.087 C 
ATOM     15  C   UNL     1      15.043   8.092  20.117  0.00  0.00    +0.074 C 
ATOM     16  C   UNL     1      17.659   6.291  19.950  0.00  0.00    +0.232 C 
ATOM     17  C   UNL     1      15.220   6.584  20.384  0.00  0.00    +0.123 C 
ATOM     20  C   UNL     1      16.007  10.322  20.113  0.00  0.00    +0.105 C 
ATOM     35  H   UNL     1      16.141   5.433  18.846  0.00  0.00    +0.149 HD
ENDROOT
BRANCH  15  18
ATOM     18  C   UNL     1      14.305   8.241  18.769  0.00  0.00    +0.029 C 
BRANCH  18  21
ATOM     21  C   UNL     1      12.966   8.933  18.930  0.00  0.00    +0.097 C 
BRANCH  21  23
ATOM      3  O   UNL     1      11.561   7.230  19.789  0.00  0.00    -0.276 OA
ATOM     10  N   UNL     1      12.103   8.958  21.245  0.00  0.00    -0.301 N 
ATOM     23  C   UNL     1      12.147   8.291  20.021  0.00  0.00    +0.216 C 
ATOM     24  C   UNL     1      11.366   8.373  22.367  0.00  0.00    +0.110 C 
ATOM     25  C   UNL     1      12.790  10.221  21.548  0.00  0.00    +0.110 C 
ATOM     26  C   UNL     1      10.359   9.368  22.935  0.00  0.00    +0.050 C 
ATOM     27  C   UNL     1      11.808  11.249  22.103  0.00  0.00    +0.050 C 
ATOM     28  C   UNL     1      11.034  10.691  23.298  0.00  0.00    +0.118 C 
BRANCH  28   4
ATOM      4  O   UNL     1      10.052  11.641  23.691  0.00  0.00    -0.392 OA
ATOM     36  H   UNL     1       9.468  11.208  24.337  0.00  0.00    +0.210 HD
ENDBRANCH  28   4
ENDBRANCH  21  23
ENDBRANCH  18  21
ENDBRANCH  15  18
BRANCH   8  19
ATOM     19  C   UNL     1      19.877   6.218  22.291  0.00  0.00    +0.120 C 
BRANCH  19  22
ATOM     22  C   UNL     1      21.166   5.691  21.717  0.00  0.00    -0.033 A 
ATOM     29  C   UNL     1      22.199   6.573  21.399  0.00  0.00    +0.007 A 
ATOM     30  C   UNL     1      21.327   4.322  21.506  0.00  0.00    +0.007 A 
ATOM     31  C   UNL     1      23.393   6.085  20.869  0.00  0.00    +0.027 A 
ATOM     32  C   UNL     1      22.520   3.834  20.976  0.00  0.00    +0.027 A 
ATOM     33  C   UNL     1      23.553   4.716  20.657  0.00  0.00    +0.088 A 
BRANCH  33   1
ATOM      1  S   UNL     1      25.049   4.104  19.996  0.00  0.00    -0.006 S 
ATOM      5  O   UNL     1      24.785   2.845  19.313  0.00  0.00    -0.170 OA
ATOM      6  O   UNL     1      25.701   5.192  19.279  0.00  0.00    -0.170 OA
ATOM     34  C   UNL     1      26.040   3.721  21.422  0.00  0.00    +0.200 C 
ENDBRANCH  33   1
ENDBRANCH  19  22
ENDBRANCH   8  19
TORSDOF 7
ENDMDL
MODEL 3
REMARK VINA RESULT:      -6.8     20.203     21.538
REMARK  Name = 45361212
REMARK  9 active torsions:
REMARK  status: ('A' for Active; 'I' for Inactive)
REMARK    1  A    between atoms: S_1  and  C_33
REMARK    2  A    between atoms: S_1  and  C_34
REMARK    3  A    between atoms: O_4  and  C_28
REMARK    4  A    between atoms: N_7  and  C_20
REMARK    5  A    between atoms: N_8  and  C_19
REMARK    6  A    between atoms: C_15  and  C_18
REMARK    7  A    between atoms: C_18  and  C_21
REMARK    8  A    between atoms: C_19  and  C_22
REMARK    9  A    between atoms: C_21  and  C_23
REMARK                            x       y       z     vdW  Elec       q    Type
REMARK                         _______ _______ _______ _____ _____    ______ ____
ROOT
ATOM      2  O   UNL     1      -1.176 -11.063  15.523  0.00  0.00    -0.274 OA
ATOM      7  N   UNL     1      -4.504 -12.831  16.409  0.00  0.00    -0.296 NA
ATOM      8  N   UNL     1      -2.323 -12.431  13.498  0.00  0.00    -0.286 NA
ATOM      9  N   UNL     1      -3.148 -10.284  16.384  0.00  0.00    -0.312 N 
ATOM     11  C   UNL     1      -4.229 -12.796  14.956  0.00  0.00    +0.084 C 
ATOM     12  C   UNL     1      -3.239 -11.725  14.414  0.00  0.00    +0.161 C 
ATOM     13  C   UNL     1      -3.624 -14.100  14.402  0.00  0.00    +0.036 C 
ATOM     14  C   UNL     1      -2.986 -13.668  13.100  0.00  0.00    +0.087 C 
ATOM     15  C   UNL     1      -5.166 -11.608  16.941  0.00  0.00    +0.074 C 
ATOM     16  C   UNL     1      -2.404 -11.019  15.480  0.00  0.00    +0.232 C 
ATOM     17  C   UNL     1      -4.597 -10.278  16.408  0.00  0.00    +0.123 C 
ATOM     20  C   UNL     1      -5.282 -14.029  16.766  0.00  0.00    +0.105 C 
ATOM     35  H   UNL     1      -2.649  -9.728  17.071  0.00  0.00    +0.149 HD
ENDROOT
BRANCH  15  18
ATOM     18  C   UNL     1      -5.074 -11.569  18.481  0.00  0.00    +0.029 C 
BRANCH  18  21
ATOM     21  C   UNL     1      -5.935 -10.469  19.072  0.00  0.00    +0.097 C 
BRANCH  21  23
ATOM      3  O   UNL     1      -7.678 -11.783  19.992  0.00  0.00    -0.276 OA
ATOM     10  N   UNL     1      -8.285 -10.267  18.339  0.00  0.00    -0.301 N 
ATOM     23  C   UNL     1      -7.375 -10.903  19.183  0.00  0.00    +0.216 C 
ATOM     24  C   UNL     1      -9.709 -10.601  18.420  0.00  0.00    +0.110 C 
ATOM     25  C   UNL     1      -7.952  -9.216  17.367  0.00  0.00    +0.110 C 
ATOM     26  C   UNL     1     -10.255 -10.993  17.052  0.00  0.00    +0.050 C 
ATOM     27  C   UNL     1      -8.467  -9.583  15.979  0.00  0.00    +0.050 C 
ATOM     28  C   UNL     1      -9.960  -9.913  16.009  0.00  0.00    +0.118 C 
BRANCH  28   4
ATOM      4  O   UNL     1     -10.356 -10.365  14.721  0.00  0.00    -0.392 OA
ATOM     36  H   UNL     1      -9.822 -11.151  14.509  0.00  0.00    +0.210 HD
ENDBRANCH  28   4
ENDBRANCH  21  23
ENDBRANCH  18  21
ENDBRANCH  15  18
BRANCH   8  19
ATOM     19  C   UNL     1      -1.923 -11.629  12.349  0.00  0.00    +0.120 C 
BRANCH  19  22
ATOM     22  C   UNL     1      -3.109 -11.176  11.540  0.00  0.00    -0.033 A 
ATOM     29  C   UNL     1      -3.569 -11.957  10.479  0.00  0.00    +0.007 A 
ATOM     30  C   UNL     1      -3.749  -9.977  11.852  0.00  0.00    +0.007 A 
ATOM     31  C   UNL     1      -4.668 -11.538   9.730  0.00  0.00    +0.027 A 
ATOM     32  C   UNL     1      -4.848  -9.557  11.104  0.00  0.00    +0.027 A 
ATOM     33  C   UNL     1      -5.307 -10.338  10.042  0.00  0.00    +0.088 A 
BRANCH  33   1
ATOM      1  S   UNL     1      -6.685  -9.814   9.107  0.00  0.00    -0.006 S 
ATOM      5  O   UNL     1      -7.781 -10.752   9.315  0.00  0.00    -0.170 OA
ATOM      6  O   UNL     1      -6.890  -8.396   9.363  0.00  0.00    -0.170 OA
ATOM     34  C   UNL     1      -6.167  -9.995   7.415  0.00  0.00    +0.200 C 
ENDBRANCH  33   1
ENDBRANCH  19  22
ENDBRANCH   8  19
TORSDOF 7
ENDMDL
MODEL 4
REMARK VINA RESULT:      -6.7     19.628     20.906
REMARK  Name = 45361212
REMARK  9 active torsions:
REMARK  status: ('A' for Active; 'I' for Inactive)
REMARK    1  A    between atoms: S_1  and  C_33
REMARK    2  A    between atoms: S_1  and  C_34
REMARK    3  A    between atoms: O_4  and  C_28
REMARK    4  A    between atoms: N_7  and  C_20
REMARK    5  A    between atoms: N_8  and  C_19
REMARK    6  A    between atoms: C_15  and  C_18
REMARK    7  A    between atoms: C_18  and  C_21
REMARK    8  A    between atoms: C_19  and  C_22
REMARK    9  A    between atoms: C_21  and  C_23
REMARK                            x       y       z     vdW  Elec       q    Type
REMARK                         _______ _______ _______ _____ _____    ______ ____
ROOT
ATOM      2  O   UNL     1      -6.024  -9.525  13.392  0.00  0.00    -0.274 OA
ATOM      7  N   UNL     1      -3.237 -10.867  15.721  0.00  0.00    -0.296 NA
ATOM      8  N   UNL     1      -3.886 -10.588  12.131  0.00  0.00    -0.286 NA
ATOM      9  N   UNL     1      -6.045 -11.065  15.086  0.00  0.00    -0.312 N 
ATOM     11  C   UNL     1      -3.066 -11.275  14.310  0.00  0.00    +0.084 C 
ATOM     12  C   UNL     1      -4.311 -11.255  13.376  0.00  0.00    +0.161 C 
ATOM     13  C   UNL     1      -2.064 -10.408  13.525  0.00  0.00    +0.036 C 
ATOM     14  C   UNL     1      -2.430 -10.666  12.079  0.00  0.00    +0.087 C 
ATOM     15  C   UNL     1      -4.139 -11.748  16.513  0.00  0.00    +0.074 C 
ATOM     16  C   UNL     1      -5.523 -10.511  13.931  0.00  0.00    +0.232 C 
ATOM     17  C   UNL     1      -5.431 -12.174  15.788  0.00  0.00    +0.123 C 
ATOM     20  C   UNL     1      -1.932 -10.739  16.391  0.00  0.00    +0.105 C 
ATOM     35  H   UNL     1      -6.898 -10.663  15.462  0.00  0.00    +0.149 HD
ENDROOT
BRANCH  15  18
ATOM     18  C   UNL     1      -4.552 -11.057  17.830  0.00  0.00    +0.029 C 
BRANCH  18  21
ATOM     21  C   UNL     1      -5.312 -11.994  18.748  0.00  0.00    +0.097 C 
BRANCH  21  23
ATOM      3  O   UNL     1      -6.368 -10.360  20.099  0.00  0.00    -0.276 OA
ATOM     10  N   UNL     1      -7.767 -11.837  18.977  0.00  0.00    -0.301 N 
ATOM     23  C   UNL     1      -6.524 -11.318  19.338  0.00  0.00    +0.216 C 
ATOM     24  C   UNL     1      -8.992 -11.205  19.472  0.00  0.00    +0.110 C 
ATOM     25  C   UNL     1      -7.982 -12.975  18.074  0.00  0.00    +0.110 C 
ATOM     26  C   UNL     1      -9.892 -12.226  20.159  0.00  0.00    +0.050 C 
ATOM     27  C   UNL     1      -8.866 -14.029  18.735  0.00  0.00    +0.050 C 
ATOM     28  C   UNL     1     -10.173 -13.419  19.243  0.00  0.00    +0.118 C 
BRANCH  28   4
ATOM      4  O   UNL     1     -10.896 -14.414  19.956  0.00  0.00    -0.392 OA
ATOM     36  H   UNL     1     -11.125 -14.044  20.826  0.00  0.00    +0.210 HD
ENDBRANCH  28   4
ENDBRANCH  21  23
ENDBRANCH  18  21
ENDBRANCH  15  18
BRANCH   8  19
ATOM     19  C   UNL     1      -4.507 -11.145  10.936  0.00  0.00    +0.120 C 
BRANCH  19  22
ATOM     22  C   UNL     1      -5.418 -10.153  10.262  0.00  0.00    -0.033 A 
ATOM     29  C   UNL     1      -4.985  -8.845  10.044  0.00  0.00    +0.007 A 
ATOM     30  C   UNL     1      -6.694 -10.543   9.855  0.00  0.00    +0.007 A 
ATOM     31  C   UNL     1      -5.828  -7.926   9.420  0.00  0.00    +0.027 A 
ATOM     32  C   UNL     1      -7.537  -9.625   9.231  0.00  0.00    +0.027 A 
ATOM     33  C   UNL     1      -7.104  -8.316   9.014  0.00  0.00    +0.088 A 
BRANCH  33   1
ATOM      1  S   UNL     1      -8.159  -7.167   8.229  0.00  0.00    -0.006 S 
ATOM      5  O   UNL     1      -9.497  -7.293   8.791  0.00  0.00    -0.170 OA
ATOM      6  O   UNL     1      -7.493  -5.872   8.232  0.00  0.00    -0.170 OA
ATOM     34  C   UNL     1      -8.251  -7.729   6.544  0.00  0.00    +0.200 C 
ENDBRANCH  33   1
ENDBRANCH  19  22
ENDBRANCH   8  19
TORSDOF 7
ENDMDL
MODEL 5
REMARK VINA RESULT:      -6.7     17.310     19.178
REMARK  Name = 45361212
REMARK  9 active torsions:
REMARK  status: ('A' for Active; 'I' for Inactive)
REMARK    1  A    between atoms: S_1  and  C_33
REMARK    2  A    between atoms: S_1  and  C_34
REMARK    3  A    between atoms: O_4  and  C_28
REMARK    4  A    between atoms: N_7  and  C_20
REMARK    5  A    between atoms: N_8  and  C_19
REMARK    6  A    between atoms: C_15  and  C_18
REMARK    7  A    between atoms: C_18  and  C_21
REMARK    8  A    between atoms: C_19  and  C_22
REMARK    9  A    between atoms: C_21  and  C_23
REMARK                            x       y       z     vdW  Elec       q    Type
REMARK                         _______ _______ _______ _____ _____    ______ ____
ROOT
ATOM      2  O   UNL     1      -8.306  -8.804  16.489  0.00  0.00    -0.274 OA
ATOM      7  N   UNL     1      -8.094 -12.443  17.796  0.00  0.00    -0.296 NA
ATOM      8  N   UNL     1     -10.668  -9.916  17.180  0.00  0.00    -0.286 NA
ATOM      9  N   UNL     1      -7.127  -9.755  18.205  0.00  0.00    -0.312 N 
ATOM     11  C   UNL     1      -9.415 -11.816  18.023  0.00  0.00    +0.084 C 
ATOM     12  C   UNL     1      -9.509 -10.263  18.023  0.00  0.00    +0.161 C 
ATOM     13  C   UNL     1     -10.477 -12.200  16.975  0.00  0.00    +0.036 C 
ATOM     14  C   UNL     1     -11.512 -11.103  17.103  0.00  0.00    +0.087 C 
ATOM     15  C   UNL     1      -7.083 -12.146  18.849  0.00  0.00    +0.074 C 
ATOM     16  C   UNL     1      -8.280  -9.541  17.474  0.00  0.00    +0.232 C 
ATOM     17  C   UNL     1      -7.046 -10.678  19.319  0.00  0.00    +0.123 C 
ATOM     20  C   UNL     1      -8.229 -13.898  17.614  0.00  0.00    +0.105 C 
ATOM     35  H   UNL     1      -6.292  -9.243  17.938  0.00  0.00    +0.149 HD
ENDROOT
BRANCH  15  18
ATOM     18  C   UNL     1      -5.667 -12.512  18.357  0.00  0.00    +0.029 C 
BRANCH  18  21
ATOM     21  C   UNL     1      -5.483 -12.208  16.883  0.00  0.00    +0.097 C 
BRANCH  21  23
ATOM      3  O   UNL     1      -4.200 -10.273  17.351  0.00  0.00    -0.276 OA
ATOM     10  N   UNL     1      -3.414 -11.650  15.654  0.00  0.00    -0.301 N 
ATOM     23  C   UNL     1      -4.311 -11.286  16.658  0.00  0.00    +0.216 C 
ATOM     24  C   UNL     1      -2.226 -10.830  15.407  0.00  0.00    +0.110 C 
ATOM     25  C   UNL     1      -3.521 -12.850  14.813  0.00  0.00    +0.110 C 
ATOM     26  C   UNL     1      -2.140 -10.424  13.939  0.00  0.00    +0.050 C 
ATOM     27  C   UNL     1      -3.457 -12.481  13.334  0.00  0.00    +0.050 C 
ATOM     28  C   UNL     1      -2.215 -11.646  13.022  0.00  0.00    +0.118 C 
BRANCH  28   4
ATOM      4  O   UNL     1      -2.273 -11.227  11.665  0.00  0.00    -0.392 OA
ATOM     36  H   UNL     1      -1.763 -11.868  11.139  0.00  0.00    +0.210 HD
ENDBRANCH  28   4
ENDBRANCH  21  23
ENDBRANCH  18  21
ENDBRANCH  15  18
BRANCH   8  19
ATOM     19  C   UNL     1     -11.403  -8.752  17.657  0.00  0.00    +0.120 C 
BRANCH  19  22
ATOM     22  C   UNL     1     -11.829  -7.854  16.526  0.00  0.00    -0.033 A 
ATOM     29  C   UNL     1     -11.161  -6.650  16.303  0.00  0.00    +0.007 A 
ATOM     30  C   UNL     1     -12.890  -8.226  15.701  0.00  0.00    +0.007 A 
ATOM     31  C   UNL     1     -11.554  -5.818  15.254  0.00  0.00    +0.027 A 
ATOM     32  C   UNL     1     -13.283  -7.396  14.653  0.00  0.00    +0.027 A 
ATOM     33  C   UNL     1     -12.616  -6.191  14.430  0.00  0.00    +0.088 A 
BRANCH  33   1
ATOM      1  S   UNL     1     -13.107  -5.151  13.116  0.00  0.00    -0.006 S 
ATOM      5  O   UNL     1     -12.617  -3.803  13.371  0.00  0.00    -0.170 OA
ATOM      6  O   UNL     1     -12.768  -5.818  11.866  0.00  0.00    -0.170 OA
ATOM     34  C   UNL     1     -14.880  -5.089  13.239  0.00  0.00    +0.200 C 
ENDBRANCH  33   1
ENDBRANCH  19  22
ENDBRANCH   8  19
TORSDOF 7
ENDMDL
MODEL 6
REMARK VINA RESULT:      -6.6     18.454     20.858
REMARK  Name = 45361212
REMARK  9 active torsions:
REMARK  status: ('A' for Active; 'I' for Inactive)
REMARK    1  A    between atoms: S_1  and  C_33
REMARK    2  A    between atoms: S_1  and  C_34
REMARK    3  A    between atoms: O_4  and  C_28
REMARK    4  A    between atoms: N_7  and  C_20
REMARK    5  A    between atoms: N_8  and  C_19
REMARK    6  A    between atoms: C_15  and  C_18
REMARK    7  A    between atoms: C_18  and  C_21
REMARK    8  A    between atoms: C_19  and  C_22
REMARK    9  A    between atoms: C_21  and  C_23
REMARK                            x       y       z     vdW  Elec       q    Type
REMARK                         _______ _______ _______ _____ _____    ______ ____
ROOT
ATOM      2  O   UNL     1      -7.718  -9.775  15.235  0.00  0.00    -0.274 OA
ATOM      7  N   UNL     1      -5.296 -12.691  16.022  0.00  0.00    -0.296 NA
ATOM      8  N   UNL     1      -8.321 -11.203  17.445  0.00  0.00    -0.286 NA
ATOM      9  N   UNL     1      -5.453  -9.848  15.559  0.00  0.00    -0.312 N 
ATOM     11  C   UNL     1      -6.225 -12.387  17.132  0.00  0.00    +0.084 C 
ATOM     12  C   UNL     1      -6.887 -10.979  17.180  0.00  0.00    +0.161 C 
ATOM     13  C   UNL     1      -7.450 -13.319  17.196  0.00  0.00    +0.036 C 
ATOM     14  C   UNL     1      -8.446 -12.536  18.025  0.00  0.00    +0.087 C 
ATOM     15  C   UNL     1      -4.066 -11.852  16.000  0.00  0.00    +0.074 C 
ATOM     16  C   UNL     1      -6.756 -10.160  15.899  0.00  0.00    +0.232 C 
ATOM     17  C   UNL     1      -4.298 -10.353  16.275  0.00  0.00    +0.123 C 
ATOM     20  C   UNL     1      -4.939 -14.120  16.015  0.00  0.00    +0.105 C 
ATOM     35  H   UNL     1      -5.302  -9.240  14.761  0.00  0.00    +0.149 HD
ENDROOT
BRANCH  15  18
ATOM     18  C   UNL     1      -3.356 -11.970  14.635  0.00  0.00    +0.029 C 
BRANCH  18  21
ATOM     21  C   UNL     1      -3.083 -10.611  14.019  0.00  0.00    +0.097 C 
BRANCH  21  23
ATOM      3  O   UNL     1      -1.619 -11.069  12.215  0.00  0.00    -0.276 OA
ATOM     10  N   UNL     1      -3.786 -10.444  11.657  0.00  0.00    -0.301 N 
ATOM     23  C   UNL     1      -2.756 -10.732  12.552  0.00  0.00    +0.216 C 
ATOM     24  C   UNL     1      -3.559 -10.584  10.216  0.00  0.00    +0.110 C 
ATOM     25  C   UNL     1      -5.148 -10.040  12.030  0.00  0.00    +0.110 C 
ATOM     26  C   UNL     1      -3.920  -9.298   9.481  0.00  0.00    +0.050 C 
ATOM     27  C   UNL     1      -5.539  -8.745  11.326  0.00  0.00    +0.050 C 
ATOM     28  C   UNL     1      -5.346  -8.853   9.813  0.00  0.00    +0.118 C 
BRANCH  28   4
ATOM      4  O   UNL     1      -5.605  -7.585   9.226  0.00  0.00    -0.392 OA
ATOM     36  H   UNL     1      -5.706  -6.942   9.949  0.00  0.00    +0.210 HD
ENDBRANCH  28   4
ENDBRANCH  21  23
ENDBRANCH  18  21
ENDBRANCH  15  18
BRANCH   8  19
ATOM     19  C   UNL     1      -8.919 -10.179  18.292  0.00  0.00    +0.120 C 
BRANCH  19  22
ATOM     22  C   UNL     1      -9.940  -9.361  17.548  0.00  0.00    -0.033 A 
ATOM     29  C   UNL     1     -11.034  -9.986  16.949  0.00  0.00    +0.007 A 
ATOM     30  C   UNL     1      -9.794  -7.976  17.458  0.00  0.00    +0.007 A 
ATOM     31  C   UNL     1     -11.980  -9.228  16.260  0.00  0.00    +0.027 A 
ATOM     32  C   UNL     1     -10.740  -7.218  16.770  0.00  0.00    +0.027 A 
ATOM     33  C   UNL     1     -11.833  -7.844  16.170  0.00  0.00    +0.088 A 
BRANCH  33   1
ATOM      1  S   UNL     1     -13.019  -6.895  15.310  0.00  0.00    -0.006 S 
ATOM      5  O   UNL     1     -14.189  -6.717  16.161  0.00  0.00    -0.170 OA
ATOM      6  O   UNL     1     -12.346  -5.729  14.756  0.00  0.00    -0.170 OA
ATOM     34  C   UNL     1     -13.520  -7.932  13.955  0.00  0.00    +0.200 C 
ENDBRANCH  33   1
ENDBRANCH  19  22
ENDBRANCH   8  19
TORSDOF 7
ENDMDL
MODEL 7
REMARK VINA RESULT:      -6.6     20.063     22.516
REMARK  Name = 45361212
REMARK  9 active torsions:
REMARK  status: ('A' for Active; 'I' for Inactive)
REMARK    1  A    between atoms: S_1  and  C_33
REMARK    2  A    between atoms: S_1  and  C_34
REMARK    3  A    between atoms: O_4  and  C_28
REMARK    4  A    between atoms: N_7  and  C_20
REMARK    5  A    between atoms: N_8  and  C_19
REMARK    6  A    between atoms: C_15  and  C_18
REMARK    7  A    between atoms: C_18  and  C_21
REMARK    8  A    between atoms: C_19  and  C_22
REMARK    9  A    between atoms: C_21  and  C_23
REMARK                            x       y       z     vdW  Elec       q    Type
REMARK                         _______ _______ _______ _____ _____    ______ ____
ROOT
ATOM      2  O   UNL     1      -6.727  -8.338   9.742  0.00  0.00    -0.274 OA
ATOM      7  N   UNL     1      -9.497  -9.065   7.136  0.00  0.00    -0.296 NA
ATOM      8  N   UNL     1      -6.286 -10.485   8.166  0.00  0.00    -0.286 NA
ATOM      9  N   UNL     1      -7.653  -7.059   8.084  0.00  0.00    -0.312 N 
ATOM     11  C   UNL     1      -8.261  -9.845   6.909  0.00  0.00    +0.084 C 
ATOM     12  C   UNL     1      -6.931  -9.324   7.526  0.00  0.00    +0.161 C 
ATOM     13  C   UNL     1      -8.322 -11.286   7.452  0.00  0.00    +0.036 C 
ATOM     14  C   UNL     1      -6.866 -11.682   7.566  0.00  0.00    +0.087 C 
ATOM     15  C   UNL     1      -9.482  -7.700   6.542  0.00  0.00    +0.074 C 
ATOM     16  C   UNL     1      -7.091  -8.224   8.572  0.00  0.00    +0.232 C 
ATOM     17  C   UNL     1      -8.165  -6.922   6.735  0.00  0.00    +0.123 C 
ATOM     20  C   UNL     1     -10.679  -9.810   6.672  0.00  0.00    +0.105 C 
ATOM     35  H   UNL     1      -7.716  -6.262   8.711  0.00  0.00    +0.149 HD
ENDROOT
BRANCH  15  18
ATOM     18  C   UNL     1     -10.620  -6.840   7.132  0.00  0.00    +0.029 C 
BRANCH  18  21
ATOM     21  C   UNL     1     -10.551  -6.771   8.646  0.00  0.00    +0.097 C 
BRANCH  21  23
ATOM      3  O   UNL     1      -9.666  -4.582   8.839  0.00  0.00    -0.276 OA
ATOM     10  N   UNL     1     -11.698  -4.974   9.894  0.00  0.00    -0.301 N 
ATOM     23  C   UNL     1     -10.592  -5.343   9.129  0.00  0.00    +0.216 C 
ATOM     24  C   UNL     1     -11.832  -3.593  10.362  0.00  0.00    +0.110 C 
ATOM     25  C   UNL     1     -12.814  -5.859  10.256  0.00  0.00    +0.110 C 
ATOM     26  C   UNL     1     -12.040  -3.546  11.872  0.00  0.00    +0.050 C 
ATOM     27  C   UNL     1     -13.041  -5.853  11.765  0.00  0.00    +0.050 C 
ATOM     28  C   UNL     1     -13.216  -4.429  12.295  0.00  0.00    +0.118 C 
BRANCH  28   4
ATOM      4  O   UNL     1     -13.298  -4.476  13.714  0.00  0.00    -0.392 OA
ATOM     36  H   UNL     1     -12.410  -4.286  14.065  0.00  0.00    +0.210 HD
ENDBRANCH  28   4
ENDBRANCH  21  23
ENDBRANCH  18  21
ENDBRANCH  15  18
BRANCH   8  19
ATOM     19  C   UNL     1      -4.833 -10.470   8.063  0.00  0.00    +0.120 C 
BRANCH  19  22
ATOM     22  C   UNL     1      -4.172 -10.639   9.405  0.00  0.00    -0.033 A 
ATOM     29  C   UNL     1      -3.448  -9.586   9.964  0.00  0.00    +0.007 A 
ATOM     30  C   UNL     1      -4.286 -11.849  10.091  0.00  0.00    +0.007 A 
ATOM     31  C   UNL     1      -2.837  -9.742  11.208  0.00  0.00    +0.027 A 
ATOM     32  C   UNL     1      -3.675 -12.005  11.335  0.00  0.00    +0.027 A 
ATOM     33  C   UNL     1      -2.950 -10.952  11.893  0.00  0.00    +0.088 A 
BRANCH  33   1
ATOM      1  S   UNL     1      -2.188 -11.146  13.452  0.00  0.00    -0.006 S 
ATOM      5  O   UNL     1      -1.495 -12.427  13.483  0.00  0.00    -0.170 OA
ATOM      6  O   UNL     1      -1.457  -9.922  13.750  0.00  0.00    -0.170 OA
ATOM     34  C   UNL     1      -3.544 -11.265  14.596  0.00  0.00    +0.200 C 
ENDBRANCH  33   1
ENDBRANCH  19  22
ENDBRANCH   8  19
TORSDOF 7
ENDMDL
MODEL 8
REMARK VINA RESULT:      -6.6     19.734     22.029
REMARK  Name = 45361212
REMARK  9 active torsions:
REMARK  status: ('A' for Active; 'I' for Inactive)
REMARK    1  A    between atoms: S_1  and  C_33
REMARK    2  A    between atoms: S_1  and  C_34
REMARK    3  A    between atoms: O_4  and  C_28
REMARK    4  A    between atoms: N_7  and  C_20
REMARK    5  A    between atoms: N_8  and  C_19
REMARK    6  A    between atoms: C_15  and  C_18
REMARK    7  A    between atoms: C_18  and  C_21
REMARK    8  A    between atoms: C_19  and  C_22
REMARK    9  A    between atoms: C_21  and  C_23
REMARK                            x       y       z     vdW  Elec       q    Type
REMARK                         _______ _______ _______ _____ _____    ______ ____
ROOT
ATOM      2  O   UNL     1      -5.780 -10.045  14.527  0.00  0.00    -0.274 OA
ATOM      7  N   UNL     1      -3.514 -13.181  14.673  0.00  0.00    -0.296 NA
ATOM      8  N   UNL     1      -6.417 -11.834  16.446  0.00  0.00    -0.286 NA
ATOM      9  N   UNL     1      -3.517 -10.297  14.760  0.00  0.00    -0.312 N 
ATOM     11  C   UNL     1      -4.401 -13.045  15.849  0.00  0.00    +0.084 C 
ATOM     12  C   UNL     1      -4.979 -11.639  16.183  0.00  0.00    +0.161 C 
ATOM     13  C   UNL     1      -5.675 -13.906  15.775  0.00  0.00    +0.036 C 
ATOM     14  C   UNL     1      -6.607 -13.244  16.768  0.00  0.00    +0.087 C 
ATOM     15  C   UNL     1      -2.239 -12.419  14.770  0.00  0.00    +0.074 C 
ATOM     16  C   UNL     1      -4.829 -10.599  15.076  0.00  0.00    +0.232 C 
ATOM     17  C   UNL     1      -2.378 -10.989  15.330  0.00  0.00    +0.123 C 
ATOM     20  C   UNL     1      -3.240 -14.599  14.385  0.00  0.00    +0.105 C 
ATOM     35  H   UNL     1      -3.348  -9.557  14.086  0.00  0.00    +0.149 HD
ENDROOT
BRANCH  15  18
ATOM     18  C   UNL     1      -1.565 -12.312  13.386  0.00  0.00    +0.029 C 
BRANCH  18  21
ATOM     21  C   UNL     1      -2.581 -12.136  12.274  0.00  0.00    +0.097 C 
BRANCH  21  23
ATOM      3  O   UNL     1      -1.588 -10.000  12.028  0.00  0.00    -0.276 OA
ATOM     10  N   UNL     1      -3.403 -10.462  10.653  0.00  0.00    -0.301 N 
ATOM     23  C   UNL     1      -2.472 -10.770  11.645  0.00  0.00    +0.216 C 
ATOM     24  C   UNL     1      -3.332  -9.171   9.964  0.00  0.00    +0.110 C 
ATOM     25  C   UNL     1      -4.466 -11.358  10.178  0.00  0.00    +0.110 C 
ATOM     26  C   UNL     1      -4.671  -8.443  10.032  0.00  0.00    +0.050 C 
ATOM     27  C   UNL     1      -5.825 -10.668  10.250  0.00  0.00    +0.050 C 
ATOM     28  C   UNL     1      -5.808  -9.327   9.517  0.00  0.00    +0.118 C 
BRANCH  28   4
ATOM      4  O   UNL     1      -7.055  -8.676   9.722  0.00  0.00    -0.392 OA
ATOM     36  H   UNL     1      -6.930  -8.019  10.429  0.00  0.00    +0.210 HD
ENDBRANCH  28   4
ENDBRANCH  21  23
ENDBRANCH  18  21
ENDBRANCH  15  18
BRANCH   8  19
ATOM     19  C   UNL     1      -6.938 -10.960  17.490  0.00  0.00    +0.120 C 
BRANCH  19  22
ATOM     22  C   UNL     1      -8.105 -10.141  17.006  0.00  0.00    -0.033 A 
ATOM     29  C   UNL     1      -9.020 -10.692  16.109  0.00  0.00    +0.007 A 
ATOM     30  C   UNL     1      -8.273  -8.832  17.456  0.00  0.00    +0.007 A 
ATOM     31  C   UNL     1     -10.102  -9.934  15.662  0.00  0.00    +0.027 A 
ATOM     32  C   UNL     1      -9.354  -8.073  17.010  0.00  0.00    +0.027 A 
ATOM     33  C   UNL     1     -10.268  -8.625  16.112  0.00  0.00    +0.088 A 
BRANCH  33   1
ATOM      1  S   UNL     1     -11.624  -7.677  15.554  0.00  0.00    -0.006 S 
ATOM      5  O   UNL     1     -11.673  -7.732  14.099  0.00  0.00    -0.170 OA
ATOM      6  O   UNL     1     -12.793  -8.065  16.331  0.00  0.00    -0.170 OA
ATOM     34  C   UNL     1     -11.207  -6.005  15.994  0.00  0.00    +0.200 C 
ENDBRANCH  33   1
ENDBRANCH  19  22
ENDBRANCH   8  19
TORSDOF 7
ENDMDL
MODEL 9
REMARK VINA RESULT:      -6.5     30.963     36.062
REMARK  Name = 45361212
REMARK  9 active torsions:
REMARK  status: ('A' for Active; 'I' for Inactive)
REMARK    1  A    between atoms: S_1  and  C_33
REMARK    2  A    between atoms: S_1  and  C_34
REMARK    3  A    between atoms: O_4  and  C_28
REMARK    4  A    between atoms: N_7  and  C_20
REMARK    5  A    between atoms: N_8  and  C_19
REMARK    6  A    between atoms: C_15  and  C_18
REMARK    7  A    between atoms: C_18  and  C_21
REMARK    8  A    between atoms: C_19  and  C_22
REMARK    9  A    between atoms: C_21  and  C_23
REMARK                            x       y       z     vdW  Elec       q    Type
REMARK                         _______ _______ _______ _____ _____    ______ ____
ROOT
ATOM      2  O   UNL     1      11.195   5.849  -0.854  0.00  0.00    -0.274 OA
ATOM      7  N   UNL     1      12.721   6.674   2.607  0.00  0.00    -0.296 NA
ATOM      8  N   UNL     1      13.182   4.206  -0.055  0.00  0.00    -0.286 NA
ATOM      9  N   UNL     1      10.262   6.064   1.225  0.00  0.00    -0.312 N 
ATOM     11  C   UNL     1      13.140   5.356   2.082  0.00  0.00    +0.084 C 
ATOM     12  C   UNL     1      12.259   4.676   0.994  0.00  0.00    +0.161 C 
ATOM     13  C   UNL     1      14.527   5.361   1.412  0.00  0.00    +0.036 C 
ATOM     14  C   UNL     1      14.507   4.118   0.549  0.00  0.00    +0.087 C 
ATOM     15  C   UNL     1      11.420   6.663   3.331  0.00  0.00    +0.074 C 
ATOM     16  C   UNL     1      11.216   5.585   0.347  0.00  0.00    +0.232 C 
ATOM     17  C   UNL     1      10.307   5.837   2.656  0.00  0.00    +0.123 C 
ATOM     20  C   UNL     1      13.773   7.258   3.456  0.00  0.00    +0.105 C 
ATOM     35  H   UNL     1       9.497   6.611   0.844  0.00  0.00    +0.149 HD
ENDROOT
BRANCH  15  18
ATOM     18  C   UNL     1      10.888   8.101   3.509  0.00  0.00    +0.029 C 
BRANCH  18  21
ATOM     21  C   UNL     1       9.483   8.120   4.079  0.00  0.00    +0.097 C 
BRANCH  21  23
ATOM      3  O   UNL     1       9.806   9.391   6.051  0.00  0.00    -0.276 OA
ATOM     10  N   UNL     1       9.178   7.173   6.340  0.00  0.00    -0.301 N 
ATOM     23  C   UNL     1       9.504   8.294   5.577  0.00  0.00    +0.216 C 
ATOM     24  C   UNL     1       9.131   7.276   7.801  0.00  0.00    +0.110 C 
ATOM     25  C   UNL     1       8.815   5.855   5.803  0.00  0.00    +0.110 C 
ATOM     26  C   UNL     1      10.009   6.211   8.450  0.00  0.00    +0.050 C 
ATOM     27  C   UNL     1       9.687   4.764   6.417  0.00  0.00    +0.050 C 
ATOM     28  C   UNL     1       9.647   4.813   7.945  0.00  0.00    +0.118 C 
BRANCH  28   4
ATOM      4  O   UNL     1      10.569   3.861   8.459  0.00  0.00    -0.392 OA
ATOM     36  H   UNL     1      11.198   4.339   9.025  0.00  0.00    +0.210 HD
ENDBRANCH  28   4
ENDBRANCH  21  23
ENDBRANCH  18  21
ENDBRANCH  15  18
BRANCH   8  19
ATOM     19  C   UNL     1      12.773   2.946  -0.663  0.00  0.00    +0.120 C 
BRANCH  19  22
ATOM     22  C   UNL     1      12.398   3.117  -2.111  0.00  0.00    -0.033 A 
ATOM     29  C   UNL     1      13.298   3.706  -2.999  0.00  0.00    +0.007 A 
ATOM     30  C   UNL     1      11.152   2.685  -2.565  0.00  0.00    +0.007 A 
ATOM     31  C   UNL     1      12.952   3.864  -4.341  0.00  0.00    +0.027 A 
ATOM     32  C   UNL     1      10.806   2.842  -3.906  0.00  0.00    +0.027 A 
ATOM     33  C   UNL     1      11.705   3.432  -4.794  0.00  0.00    +0.088 A 
BRANCH  33   1
ATOM      1  S   UNL     1      11.273   3.627  -6.475  0.00  0.00    -0.006 S 
ATOM      5  O   UNL     1      10.708   4.956  -6.666  0.00  0.00    -0.170 OA
ATOM      6  O   UNL     1      12.407   3.201  -7.282  0.00  0.00    -0.170 OA
ATOM     34  C   UNL     1       9.953   2.463  -6.730  0.00  0.00    +0.200 C 
ENDBRANCH  33   1
ENDBRANCH  19  22
ENDBRANCH   8  19
TORSDOF 7
ENDMDL
MODEL 10
REMARK VINA RESULT:      -6.4     20.488     23.483
REMARK  Name = 45361212
REMARK  9 active torsions:
REMARK  status: ('A' for Active; 'I' for Inactive)
REMARK    1  A    between atoms: S_1  and  C_33
REMARK    2  A    between atoms: S_1  and  C_34
REMARK    3  A    between atoms: O_4  and  C_28
REMARK    4  A    between atoms: N_7  and  C_20
REMARK    5  A    between atoms: N_8  and  C_19
REMARK    6  A    between atoms: C_15  and  C_18
REMARK    7  A    between atoms: C_18  and  C_21
REMARK    8  A    between atoms: C_19  and  C_22
REMARK    9  A    between atoms: C_21  and  C_23
REMARK                            x       y       z     vdW  Elec       q    Type
REMARK                         _______ _______ _______ _____ _____    ______ ____
ROOT
ATOM      2  O   UNL     1      -6.187  -9.240  12.553  0.00  0.00    -0.274 OA
ATOM      7  N   UNL     1      -5.052 -11.207   9.417  0.00  0.00    -0.296 NA
ATOM      8  N   UNL     1      -4.575 -11.350  13.042  0.00  0.00    -0.286 NA
ATOM      9  N   UNL     1      -5.102  -8.596  10.644  0.00  0.00    -0.312 N 
ATOM     11  C   UNL     1      -4.307 -11.577  10.641  0.00  0.00    +0.084 C 
ATOM     12  C   UNL     1      -4.281 -10.569  11.826  0.00  0.00    +0.161 C 
ATOM     13  C   UNL     1      -4.820 -12.859  11.322  0.00  0.00    +0.036 C 
ATOM     14  C   UNL     1      -4.286 -12.746  12.734  0.00  0.00    +0.087 C 
ATOM     15  C   UNL     1      -4.512 -10.017   8.703  0.00  0.00    +0.074 C 
ATOM     16  C   UNL     1      -5.294  -9.431  11.729  0.00  0.00    +0.232 C 
ATOM     17  C   UNL     1      -4.112  -8.839   9.614  0.00  0.00    +0.123 C 
ATOM     20  C   UNL     1      -5.149 -12.353   8.498  0.00  0.00    +0.105 C 
ATOM     35  H   UNL     1      -5.694  -7.775  10.564  0.00  0.00    +0.149 HD
ENDROOT
BRANCH  15  18
ATOM     18  C   UNL     1      -5.540  -9.486   7.682  0.00  0.00    +0.029 C 
BRANCH  18  21
ATOM     21  C   UNL     1      -6.965  -9.802   8.097  0.00  0.00    +0.097 C 
BRANCH  21  23
ATOM      3  O   UNL     1      -7.792  -8.253   9.686  0.00  0.00    -0.276 OA
ATOM     10  N   UNL     1      -8.265  -7.801   7.457  0.00  0.00    -0.301 N 
ATOM     23  C   UNL     1      -7.708  -8.551   8.493  0.00  0.00    +0.216 C 
ATOM     24  C   UNL     1      -8.962  -6.549   7.758  0.00  0.00    +0.110 C 
ATOM     25  C   UNL     1      -8.180  -8.132   6.028  0.00  0.00    +0.110 C 
ATOM     26  C   UNL     1     -10.365  -6.548   7.159  0.00  0.00    +0.050 C 
ATOM     27  C   UNL     1      -9.569  -8.159   5.397  0.00  0.00    +0.050 C 
ATOM     28  C   UNL     1     -10.326  -6.857   5.662  0.00  0.00    +0.118 C 
BRANCH  28   4
ATOM      4  O   UNL     1     -11.650  -6.987   5.161  0.00  0.00    -0.392 OA
ATOM     36  H   UNL     1     -11.790  -7.924   4.943  0.00  0.00    +0.210 HD
ENDBRANCH  28   4
ENDBRANCH  21  23
ENDBRANCH  18  21
ENDBRANCH  15  18
BRANCH   8  19
ATOM     19  C   UNL     1      -3.847 -10.887  14.217  0.00  0.00    +0.120 C 
BRANCH  19  22
ATOM     22  C   UNL     1      -4.674 -10.999  15.470  0.00  0.00    -0.033 A 
ATOM     29  C   UNL     1      -4.131 -10.626  16.700  0.00  0.00    +0.007 A 
ATOM     30  C   UNL     1      -5.984 -11.475  15.402  0.00  0.00    +0.007 A 
ATOM     31  C   UNL     1      -4.897 -10.729  17.861  0.00  0.00    +0.027 A 
ATOM     32  C   UNL     1      -6.750 -11.578  16.562  0.00  0.00    +0.027 A 
ATOM     33  C   UNL     1      -6.206 -11.206  17.792  0.00  0.00    +0.088 A 
BRANCH  33   1
ATOM      1  S   UNL     1      -7.166 -11.332  19.245  0.00  0.00    -0.006 S 
ATOM      5  O   UNL     1      -7.413 -12.740  19.528  0.00  0.00    -0.170 OA
ATOM      6  O   UNL     1      -6.555 -10.487  20.261  0.00  0.00    -0.170 OA
ATOM     34  C   UNL     1      -8.732 -10.611  18.805  0.00  0.00    +0.200 C 
ENDBRANCH  33   1
ENDBRANCH  19  22
ENDBRANCH   8  19
TORSDOF 7
ENDMDL
