REMARK  Name = 9423973
REMARK  5 active torsions:
REMARK  status: ('A' for Active; 'I' for Inactive)
REMARK    1  A    between atoms: O_5  and  C_22
REMARK    2  A    between atoms: O_5  and  C_27
REMARK    3  A    between atoms: N_7  and  C_10
REMARK    4  A    between atoms: C_17  and  C_22
REMARK    5  A    between atoms: C_20  and  C_23
REMARK                            x       y       z     vdW  Elec       q    Type
REMARK                         _______ _______ _______ _____ _____    ______ ____
ROOT
ATOM      2  O   UNL     1      -2.342   1.800  -0.825  0.00  0.00    -0.273 OA
ATOM      3  O   UNL     1       0.784  -1.931   1.325  0.00  0.00    -0.270 OA
ATOM      6  N   UNL     1      -0.753  -1.054  -0.143  0.00  0.00    -0.284 N 
ATOM      8  N   UNL     1      -0.127   1.825  -0.314  0.00  0.00    -0.283 N 
ATOM      9  C   UNL     1      -1.108  -0.220  -1.273  0.00  0.00    +0.164 C 
ATOM     10  C   UNL     1      -3.014  -1.564  -0.622  0.00  0.00    +0.093 C 
ATOM     11  C   UNL     1      -2.395  -0.845  -1.824  0.00  0.00    +0.055 C 
ATOM     12  C   UNL     1      -1.790  -2.036   0.151  0.00  0.00    +0.131 C 
ATOM     13  C   UNL     1      -1.271   1.194  -0.752  0.00  0.00    +0.238 C 
ATOM     14  C   UNL     1       0.477  -1.091   0.478  0.00  0.00    +0.249 C 
ATOM     15  C   UNL     1       1.478  -0.052   0.123  0.00  0.00    +0.059 A 
ATOM     16  C   UNL     1       1.169   1.292  -0.145  0.00  0.00    +0.046 A 
ATOM     18  C   UNL     1       2.826  -0.440   0.238  0.00  0.00    +0.024 A 
ATOM     19  C   UNL     1       2.218   2.225  -0.226  0.00  0.00    +0.024 A 
ATOM     20  C   UNL     1       3.855   0.492   0.108  0.00  0.00    -0.010 A 
ATOM     21  C   UNL     1       3.550   1.828  -0.112  0.00  0.00    +0.011 A 
ATOM     29  H   UNL     1      -0.210   2.831  -0.186  0.00  0.00    +0.155 HD
ENDROOT
BRANCH  20  23
ATOM      1  S   UNL     1       6.077  -0.397  -1.188  0.00  0.00    -0.097 S 
ATOM     23  C   UNL     1       5.230   0.073   0.225  0.00  0.00    +0.019 A 
ATOM     24  C   UNL     1       6.019  -0.014   1.351  0.00  0.00    +0.016 A 
ATOM     25  C   UNL     1       7.334  -0.473   1.050  0.00  0.00    +0.008 A 
ATOM     26  C   UNL     1       7.501  -0.719  -0.295  0.00  0.00    +0.046 A 
ENDBRANCH  20  23
BRANCH  10   7
ATOM      4  O   UNL     1      -5.871  -1.142  -0.858  0.00  0.00    -0.273 OA
ATOM      7  N   UNL     1      -3.835  -0.683   0.171  0.00  0.00    -0.309 N 
ATOM     17  C   UNL     1      -5.204  -0.546  -0.016  0.00  0.00    +0.239 C 
ATOM     28  H   UNL     1      -3.377  -0.102   0.868  0.00  0.00    +0.149 HD
BRANCH  17  22
ATOM     22  C   UNL     1      -5.809   0.444   0.957  0.00  0.00    +0.255 C 
BRANCH  22   5
ATOM      5  O   UNL     1      -7.202   0.554   0.755  0.00  0.00    -0.374 OA
ATOM     27  C   UNL     1      -7.798   1.480   1.659  0.00  0.00    +0.194 C 
ENDBRANCH  22   5
ENDBRANCH  17  22
ENDBRANCH  10   7
TORSDOF 4
