REMARK  Name = 38029325
REMARK  13 active torsions:
REMARK  status: ('A' for Active; 'I' for Inactive)
REMARK    1  A    between atoms: N_3  and  C_14
REMARK    2  A    between atoms: N_4  and  C_21
REMARK    3  A    between atoms: N_5  and  C_23
REMARK    4  A    between atoms: C_7  and  C_11
REMARK    5  A    between atoms: C_8  and  C_14
REMARK    6  A    between atoms: C_10  and  C_15
REMARK    7  A    between atoms: C_11  and  C_16
REMARK    8  A    between atoms: C_11  and  C_17
REMARK    9  A    between atoms: C_12  and  C_18
REMARK   10  A    between atoms: C_15  and  C_19
REMARK   11  A    between atoms: C_21  and  C_22
REMARK   12  A    between atoms: C_23  and  C_26
REMARK   13  A    between atoms: C_29  and  C_30
REMARK                            x       y       z     vdW  Elec       q    Type
REMARK                         _______ _______ _______ _____ _____    ______ ____
ROOT
ATOM      7  C   UNL     1       1.561   0.317  -1.388  0.00  0.00    +0.000 C 
ATOM      8  C   UNL     1       3.066   0.056  -1.647  0.00  0.00    +0.032 C 
ATOM      9  C   UNL     1       1.309   1.815  -1.154  0.00  0.00    +0.012 C 
ATOM     10  C   UNL     1       2.112   2.360   0.042  0.00  0.00    +0.023 C 
ATOM     12  C   UNL     1       3.560   1.916  -0.003  0.00  0.00    -0.073 C 
ATOM     13  C   UNL     1       3.970   0.893  -0.773  0.00  0.00    -0.022 C 
ATOM     18  C   UNL     1       4.536   2.705   0.826  0.00  0.00    +0.039 C 
ENDROOT
BRANCH   7  11
ATOM     11  C   UNL     1       0.690  -0.180  -2.546  0.00  0.00    -0.013 C 
ATOM     16  C   UNL     1      -0.726  -0.473  -2.059  0.00  0.00    +0.007 C 
ATOM     17  C   UNL     1       0.672   0.844  -3.676  0.00  0.00    +0.007 C 
ENDBRANCH   7  11
BRANCH   8  14
ATOM     14  C   UNL     1       3.409  -1.427  -1.465  0.00  0.00    +0.113 C 
BRANCH  14   3
ATOM      2  O   UNL     1       1.631  -3.466  -0.461  0.00  0.00    -0.253 OA
ATOM      3  N   UNL     1       3.236  -1.824  -0.103  0.00  0.00    -0.299 N 
ATOM      5  N   UNL     1       2.380  -3.011   1.688  0.00  0.00    -0.300 N 
ATOM     20  C   UNL     1       2.349  -2.827   0.308  0.00  0.00    +0.300 C 
ATOM     31  H   UNL     1       3.833  -1.405   0.604  0.00  0.00    +0.150 HD
ATOM     33  H   UNL     1       2.995  -2.426   2.244  0.00  0.00    +0.150 HD
BRANCH   5  23
ATOM     23  C   UNL     1       1.558  -3.986   2.366  0.00  0.00    +0.102 C 
ATOM     26  C   UNL     1       0.144  -3.481   2.561  0.00  0.00    +0.024 C 
ENDBRANCH   5  23
ENDBRANCH  14   3
ENDBRANCH   8  14
BRANCH  10  15
ATOM     15  C   UNL     1       1.459   1.967   1.372  0.00  0.00    +0.103 C 
BRANCH  15  19
ATOM      1  O   UNL     1      -0.447   3.368   0.861  0.00  0.00    -0.276 OA
ATOM      4  N   UNL     1      -0.728   1.505   2.221  0.00  0.00    -0.311 N 
ATOM     19  C   UNL     1       0.006   2.381   1.435  0.00  0.00    +0.214 C 
ATOM     32  H   UNL     1      -0.263   0.712   2.654  0.00  0.00    +0.149 HD
BRANCH   4  21
ATOM     21  C   UNL     1      -2.144   1.656   2.460  0.00  0.00    +0.139 C 
BRANCH  21  22
ATOM     22  C   UNL     1      -2.968   0.937   1.432  0.00  0.00    -0.030 A 
ATOM     24  C   UNL     1      -3.871   1.647   0.640  0.00  0.00    +0.006 A 
ATOM     25  C   UNL     1      -2.831  -0.441   1.267  0.00  0.00    +0.006 A 
ATOM     27  C   UNL     1      -4.636   0.979  -0.316  0.00  0.00    +0.019 A 
ATOM     28  C   UNL     1      -3.596  -1.109   0.311  0.00  0.00    +0.019 A 
ATOM     29  C   UNL     1      -4.498  -0.399  -0.480  0.00  0.00    +0.052 A 
BRANCH  29  30
ATOM      6  N   UNL     1      -5.919  -1.639  -2.256  0.00  0.00    -0.191 NA
ATOM     30  C   UNL     1      -5.282  -1.083  -1.460  0.00  0.00    +0.099 C 
ENDBRANCH  29  30
ENDBRANCH  21  22
ENDBRANCH   4  21
ENDBRANCH  15  19
ENDBRANCH  10  15
TORSDOF 9
