MODEL 1
REMARK VINA RESULT:      -6.9      0.000      0.000
REMARK  Name = 25313223
REMARK  10 active torsions:
REMARK  status: ('A' for Active; 'I' for Inactive)
REMARK    1  A    between atoms: O_2  and  C_24
REMARK    2  A    between atoms: O_4  and  C_26
REMARK    3  A    between atoms: O_4  and  C_31
REMARK    4  A    between atoms: N_6  and  C_19
REMARK    5  A    between atoms: N_7  and  C_25
REMARK    6  A    between atoms: C_8  and  C_16
REMARK    7  A    between atoms: C_9  and  C_18
REMARK    8  A    between atoms: C_10  and  C_17
REMARK    9  A    between atoms: C_16  and  C_19
REMARK   10  A    between atoms: C_18  and  C_24
REMARK                            x       y       z     vdW  Elec       q    Type
REMARK                         _______ _______ _______ _____ _____    ______ ____
ROOT
ATOM      1  O   UNL     1      13.264   9.085  15.149  0.00  0.00    -0.275 OA
ATOM      5  N   UNL     1      12.808   9.477  17.398  0.00  0.00    -0.301 N 
ATOM      8  C   UNL     1      13.343   9.211  19.809  0.00  0.00    +0.011 C 
ATOM      9  C   UNL     1      12.186   8.186  19.914  0.00  0.00    +0.006 C 
ATOM     11  C   UNL     1      13.070  10.190  18.654  0.00  0.00    +0.111 C 
ATOM     12  C   UNL     1      11.914   7.498  18.565  0.00  0.00    +0.023 C 
ATOM     15  C   UNL     1      11.703   8.522  17.453  0.00  0.00    +0.108 C 
ATOM     17  C   UNL     1      13.505   9.668  16.202  0.00  0.00    +0.219 C 
ENDROOT
BRANCH  17  10
ATOM     10  C   UNL     1      14.627  10.657  16.212  0.00  0.00    +0.075 C 
ATOM     13  C   UNL     1      14.420  12.003  15.582  0.00  0.00    +0.013 C 
ATOM     14  C   UNL     1      15.315  10.994  14.923  0.00  0.00    +0.013 C 
ENDBRANCH  17  10
BRANCH   8  16
ATOM     16  C   UNL     1      14.729   8.573  19.648  0.00  0.00    +0.020 C 
BRANCH  16  19
ATOM     19  C   UNL     1      15.585   8.817  20.883  0.00  0.00    +0.085 C 
BRANCH  19   6
ATOM      6  N   UNL     1      16.927   8.275  20.671  0.00  0.00    -0.299 NA
ATOM      7  N   UNL     1      19.310   6.865  21.372  0.00  0.00    -0.325 N 
ATOM     20  C   UNL     1      16.916   6.812  20.793  0.00  0.00    +0.103 C 
ATOM     21  C   UNL     1      17.873   8.850  21.635  0.00  0.00    +0.103 C 
ATOM     22  C   UNL     1      18.304   6.227  20.518  0.00  0.00    +0.120 C 
ATOM     23  C   UNL     1      19.292   8.333  21.388  0.00  0.00    +0.120 C 
BRANCH   7  25
ATOM     25  C   UNL     1      20.530   6.220  21.609  0.00  0.00    +0.072 A 
ATOM     26  C   UNL     1      21.019   6.081  22.907  0.00  0.00    +0.141 A 
ATOM     27  C   UNL     1      21.257   5.715  20.532  0.00  0.00    +0.027 A 
ATOM     28  C   UNL     1      22.235   5.437  23.129  0.00  0.00    +0.047 A 
ATOM     29  C   UNL     1      22.474   5.069  20.753  0.00  0.00    +0.002 A 
ATOM     30  C   UNL     1      22.963   4.930  22.052  0.00  0.00    +0.004 A 
BRANCH  26   4
ATOM      4  O   UNL     1      20.323   6.568  23.974  0.00  0.00    -0.493 OA
ATOM     31  C   UNL     1      21.069   6.859  25.155  0.00  0.00    +0.277 C 
ENDBRANCH  26   4
ENDBRANCH   7  25
ENDBRANCH  19   6
ENDBRANCH  16  19
ENDBRANCH   8  16
BRANCH   9  18
ATOM     18  C   UNL     1      12.402   7.146  21.014  0.00  0.00    +0.124 C 
BRANCH  18  24
ATOM      3  O   UNL     1      10.219   7.145  22.098  0.00  0.00    -0.251 OA
ATOM     24  C   UNL     1      11.101   6.559  21.487  0.00  0.00    +0.305 C 
BRANCH  24   2
ATOM      2  O   UNL     1      11.034   5.250  21.134  0.00  0.00    -0.481 OA
ATOM     32  H   UNL     1      11.683   5.028  20.432  0.00  0.00    +0.295 HD
ENDBRANCH  24   2
ENDBRANCH  18  24
ENDBRANCH   9  18
TORSDOF 9
ENDMDL
MODEL 2
REMARK VINA RESULT:      -6.6     27.008     30.511
REMARK  Name = 25313223
REMARK  10 active torsions:
REMARK  status: ('A' for Active; 'I' for Inactive)
REMARK    1  A    between atoms: O_2  and  C_24
REMARK    2  A    between atoms: O_4  and  C_26
REMARK    3  A    between atoms: O_4  and  C_31
REMARK    4  A    between atoms: N_6  and  C_19
REMARK    5  A    between atoms: N_7  and  C_25
REMARK    6  A    between atoms: C_8  and  C_16
REMARK    7  A    between atoms: C_9  and  C_18
REMARK    8  A    between atoms: C_10  and  C_17
REMARK    9  A    between atoms: C_16  and  C_19
REMARK   10  A    between atoms: C_18  and  C_24
REMARK                            x       y       z     vdW  Elec       q    Type
REMARK                         _______ _______ _______ _____ _____    ______ ____
ROOT
ATOM      1  O   UNL     1      -1.471 -10.039  12.389  0.00  0.00    -0.275 OA
ATOM      5  N   UNL     1      -2.753 -11.278  13.888  0.00  0.00    -0.301 N 
ATOM      8  C   UNL     1      -4.658 -11.493  15.465  0.00  0.00    +0.011 C 
ATOM      9  C   UNL     1      -3.648 -11.413  16.638  0.00  0.00    +0.006 C 
ATOM     11  C   UNL     1      -3.961 -12.046  14.211  0.00  0.00    +0.111 C 
ATOM     12  C   UNL     1      -2.378 -10.641  16.239  0.00  0.00    +0.023 C 
ATOM     15  C   UNL     1      -1.763 -11.206  14.962  0.00  0.00    +0.108 C 
ATOM     17  C   UNL     1      -2.495 -10.660  12.660  0.00  0.00    +0.219 C 
ENDROOT
BRANCH  17  10
ATOM     10  C   UNL     1      -3.547 -10.768  11.604  0.00  0.00    +0.075 C 
ATOM     13  C   UNL     1      -3.387  -9.990  10.331  0.00  0.00    +0.013 C 
ATOM     14  C   UNL     1      -4.431  -9.587  11.331  0.00  0.00    +0.013 C 
ENDBRANCH  17  10
BRANCH   8  16
ATOM     16  C   UNL     1      -5.349 -10.160  15.146  0.00  0.00    +0.020 C 
BRANCH  16  19
ATOM     19  C   UNL     1      -6.593 -10.384  14.298  0.00  0.00    +0.085 C 
BRANCH  19   6
ATOM      6  N   UNL     1      -7.783  -9.980  15.047  0.00  0.00    -0.299 NA
ATOM      7  N   UNL     1      -9.642 -10.035  17.215  0.00  0.00    -0.325 N 
ATOM     20  C   UNL     1      -7.406  -9.448  16.363  0.00  0.00    +0.103 C 
ATOM     21  C   UNL     1      -8.698 -11.116  15.211  0.00  0.00    +0.103 C 
ATOM     22  C   UNL     1      -8.638  -8.969  17.135  0.00  0.00    +0.120 C 
ATOM     23  C   UNL     1      -9.973 -10.693  15.944  0.00  0.00    +0.120 C 
BRANCH   7  25
ATOM     25  C   UNL     1     -10.628  -9.988  18.207  0.00  0.00    +0.072 A 
ATOM     26  C   UNL     1     -10.353 -10.420  19.503  0.00  0.00    +0.141 A 
ATOM     27  C   UNL     1     -11.896  -9.502  17.888  0.00  0.00    +0.027 A 
ATOM     28  C   UNL     1     -11.345 -10.367  20.482  0.00  0.00    +0.047 A 
ATOM     29  C   UNL     1     -12.889  -9.448  18.866  0.00  0.00    +0.002 A 
ATOM     30  C   UNL     1     -12.613  -9.881  20.164  0.00  0.00    +0.004 A 
BRANCH  26   4
ATOM      4  O   UNL     1      -9.120 -10.899  19.836  0.00  0.00    -0.493 OA
ATOM     31  C   UNL     1      -8.944 -12.314  19.801  0.00  0.00    +0.277 C 
ENDBRANCH  26   4
ENDBRANCH   7  25
ENDBRANCH  19   6
ENDBRANCH  16  19
ENDBRANCH   8  16
BRANCH   9  18
ATOM     18  C   UNL     1      -4.254 -10.830  17.915  0.00  0.00    +0.124 C 
BRANCH  18  24
ATOM      3  O   UNL     1      -5.568 -11.798  19.725  0.00  0.00    -0.251 OA
ATOM     24  C   UNL     1      -4.722 -11.910  18.851  0.00  0.00    +0.305 C 
BRANCH  24   2
ATOM      2  O   UNL     1      -4.057 -13.064  18.586  0.00  0.00    -0.481 OA
ATOM     32  H   UNL     1      -4.668 -13.828  18.513  0.00  0.00    +0.295 HD
ENDBRANCH  24   2
ENDBRANCH  18  24
ENDBRANCH   9  18
TORSDOF 9
ENDMDL
MODEL 3
REMARK VINA RESULT:      -6.4     13.691     18.475
REMARK  Name = 25313223
REMARK  10 active torsions:
REMARK  status: ('A' for Active; 'I' for Inactive)
REMARK    1  A    between atoms: O_2  and  C_24
REMARK    2  A    between atoms: O_4  and  C_26
REMARK    3  A    between atoms: O_4  and  C_31
REMARK    4  A    between atoms: N_6  and  C_19
REMARK    5  A    between atoms: N_7  and  C_25
REMARK    6  A    between atoms: C_8  and  C_16
REMARK    7  A    between atoms: C_9  and  C_18
REMARK    8  A    between atoms: C_10  and  C_17
REMARK    9  A    between atoms: C_16  and  C_19
REMARK   10  A    between atoms: C_18  and  C_24
REMARK                            x       y       z     vdW  Elec       q    Type
REMARK                         _______ _______ _______ _____ _____    ______ ____
ROOT
ATOM      1  O   UNL     1       9.401  10.710   5.720  0.00  0.00    -0.275 OA
ATOM      5  N   UNL     1      10.503   8.995   6.846  0.00  0.00    -0.301 N 
ATOM      8  C   UNL     1      11.128   6.605   7.100  0.00  0.00    +0.011 C 
ATOM      9  C   UNL     1      10.107   6.501   8.261  0.00  0.00    +0.006 C 
ATOM     11  C   UNL     1      11.624   8.056   6.968  0.00  0.00    +0.111 C 
ATOM     12  C   UNL     1       8.978   7.535   8.117  0.00  0.00    +0.023 C 
ATOM     15  C   UNL     1       9.535   8.945   7.940  0.00  0.00    +0.108 C 
ATOM     17  C   UNL     1      10.329   9.911   5.803  0.00  0.00    +0.219 C 
ENDROOT
BRANCH  17  10
ATOM     10  C   UNL     1      11.352   9.910   4.713  0.00  0.00    +0.075 C 
ATOM     13  C   UNL     1      12.346  11.032   4.643  0.00  0.00    +0.013 C 
ATOM     14  C   UNL     1      11.254  10.933   3.619  0.00  0.00    +0.013 C 
ENDBRANCH  17  10
BRANCH   8  16
ATOM     16  C   UNL     1      10.592   6.102   5.753  0.00  0.00    +0.020 C 
BRANCH  16  19
ATOM     19  C   UNL     1      11.651   6.227   4.667  0.00  0.00    +0.085 C 
BRANCH  19   6
ATOM      6  N   UNL     1      11.054   5.961   3.358  0.00  0.00    -0.299 NA
ATOM      7  N   UNL     1      10.982   4.982   0.675  0.00  0.00    -0.325 N 
ATOM     20  C   UNL     1      11.017   4.516   3.094  0.00  0.00    +0.103 C 
ATOM     21  C   UNL     1      11.807   6.643   2.299  0.00  0.00    +0.103 C 
ATOM     22  C   UNL     1      10.343   4.220   1.752  0.00  0.00    +0.120 C 
ATOM     23  C   UNL     1      11.160   6.418   0.932  0.00  0.00    +0.120 C 
BRANCH   7  25
ATOM     25  C   UNL     1      10.837   4.565  -0.653  0.00  0.00    +0.072 A 
ATOM     26  C   UNL     1      11.718   3.637  -1.206  0.00  0.00    +0.141 A 
ATOM     27  C   UNL     1       9.799   5.087  -1.423  0.00  0.00    +0.027 A 
ATOM     28  C   UNL     1      11.561   3.230  -2.531  0.00  0.00    +0.047 A 
ATOM     29  C   UNL     1       9.641   4.680  -2.748  0.00  0.00    +0.002 A 
ATOM     30  C   UNL     1      10.522   3.751  -3.302  0.00  0.00    +0.004 A 
BRANCH  26   4
ATOM      4  O   UNL     1      12.739   3.115  -0.469  0.00  0.00    -0.493 OA
ATOM     31  C   UNL     1      14.017   3.735  -0.603  0.00  0.00    +0.277 C 
ENDBRANCH  26   4
ENDBRANCH   7  25
ENDBRANCH  19   6
ENDBRANCH  16  19
ENDBRANCH   8  16
BRANCH   9  18
ATOM     18  C   UNL     1       9.532   5.095   8.431  0.00  0.00    +0.124 C 
BRANCH  18  24
ATOM      3  O   UNL     1       8.372   4.280  10.415  0.00  0.00    -0.251 OA
ATOM     24  C   UNL     1       9.376   4.730   9.882  0.00  0.00    +0.305 C 
BRANCH  24   2
ATOM      2  O   UNL     1      10.536   4.976  10.543  0.00  0.00    -0.481 OA
ATOM     32  H   UNL     1      10.938   5.828  10.269  0.00  0.00    +0.295 HD
ENDBRANCH  24   2
ENDBRANCH  18  24
ENDBRANCH   9  18
TORSDOF 9
ENDMDL
MODEL 4
REMARK VINA RESULT:      -6.3     27.093     29.417
REMARK  Name = 25313223
REMARK  10 active torsions:
REMARK  status: ('A' for Active; 'I' for Inactive)
REMARK    1  A    between atoms: O_2  and  C_24
REMARK    2  A    between atoms: O_4  and  C_26
REMARK    3  A    between atoms: O_4  and  C_31
REMARK    4  A    between atoms: N_6  and  C_19
REMARK    5  A    between atoms: N_7  and  C_25
REMARK    6  A    between atoms: C_8  and  C_16
REMARK    7  A    between atoms: C_9  and  C_18
REMARK    8  A    between atoms: C_10  and  C_17
REMARK    9  A    between atoms: C_16  and  C_19
REMARK   10  A    between atoms: C_18  and  C_24
REMARK                            x       y       z     vdW  Elec       q    Type
REMARK                         _______ _______ _______ _____ _____    ______ ____
ROOT
ATOM      1  O   UNL     1      -9.780   9.359  18.219  0.00  0.00    -0.275 OA
ATOM      5  N   UNL     1     -11.898   8.714  18.941  0.00  0.00    -0.301 N 
ATOM      8  C   UNL     1     -13.657   8.579  20.688  0.00  0.00    +0.011 C 
ATOM      9  C   UNL     1     -13.310   7.079  20.868  0.00  0.00    +0.006 C 
ATOM     11  C   UNL     1     -13.294   9.032  19.263  0.00  0.00    +0.111 C 
ATOM     12  C   UNL     1     -11.853   6.784  20.473  0.00  0.00    +0.023 C 
ATOM     15  C   UNL     1     -11.542   7.302  19.071  0.00  0.00    +0.108 C 
ATOM     17  C   UNL     1     -10.940   9.637  18.511  0.00  0.00    +0.219 C 
ENDROOT
BRANCH  17  10
ATOM     10  C   UNL     1     -11.365  11.066  18.400  0.00  0.00    +0.075 C 
ATOM     13  C   UNL     1     -11.389  11.719  17.049  0.00  0.00    +0.013 C 
ATOM     14  C   UNL     1     -10.343  12.107  18.053  0.00  0.00    +0.013 C 
ENDBRANCH  17  10
BRANCH   8  16
ATOM     16  C   UNL     1     -12.998   9.500  21.723  0.00  0.00    +0.020 C 
BRANCH  16  19
ATOM     19  C   UNL     1     -13.821  10.764  21.926  0.00  0.00    +0.085 C 
BRANCH  19   6
ATOM      6  N   UNL     1     -13.858  11.109  23.347  0.00  0.00    -0.299 NA
ATOM      7  N   UNL     1     -13.161  10.870  26.107  0.00  0.00    -0.325 N 
ATOM     20  C   UNL     1     -12.523  11.507  23.815  0.00  0.00    +0.103 C 
ATOM     21  C   UNL     1     -14.347   9.975  24.140  0.00  0.00    +0.103 C 
ATOM     22  C   UNL     1     -12.558  11.925  25.287  0.00  0.00    +0.120 C 
ATOM     23  C   UNL     1     -14.443  10.342  25.623  0.00  0.00    +0.120 C 
BRANCH   7  25
ATOM     25  C   UNL     1     -12.914  10.834  27.484  0.00  0.00    +0.072 A 
ATOM     26  C   UNL     1     -11.819  10.134  27.992  0.00  0.00    +0.141 A 
ATOM     27  C   UNL     1     -13.774  11.506  28.351  0.00  0.00    +0.027 A 
ATOM     28  C   UNL     1     -11.585  10.107  29.366  0.00  0.00    +0.047 A 
ATOM     29  C   UNL     1     -13.541  11.480  29.726  0.00  0.00    +0.002 A 
ATOM     30  C   UNL     1     -12.445  10.780  30.234  0.00  0.00    +0.004 A 
BRANCH  26   4
ATOM      4  O   UNL     1     -10.966   9.470  27.161  0.00  0.00    -0.493 OA
ATOM     31  C   UNL     1      -9.741  10.124  26.835  0.00  0.00    +0.277 C 
ENDBRANCH  26   4
ENDBRANCH   7  25
ENDBRANCH  19   6
ENDBRANCH  16  19
ENDBRANCH   8  16
BRANCH   9  18
ATOM     18  C   UNL     1     -13.602   6.560  22.276  0.00  0.00    +0.124 C 
BRANCH  18  24
ATOM      3  O   UNL     1     -14.700   4.425  21.850  0.00  0.00    -0.251 OA
ATOM     24  C   UNL     1     -13.758   5.064  22.295  0.00  0.00    +0.305 C 
BRANCH  24   2
ATOM      2  O   UNL     1     -12.677   4.499  22.892  0.00  0.00    -0.481 OA
ATOM     32  H   UNL     1     -11.838   4.907  22.589  0.00  0.00    +0.295 HD
ENDBRANCH  24   2
ENDBRANCH  18  24
ENDBRANCH   9  18
TORSDOF 9
ENDMDL
MODEL 5
REMARK VINA RESULT:      -6.3     13.809     18.583
REMARK  Name = 25313223
REMARK  10 active torsions:
REMARK  status: ('A' for Active; 'I' for Inactive)
REMARK    1  A    between atoms: O_2  and  C_24
REMARK    2  A    between atoms: O_4  and  C_26
REMARK    3  A    between atoms: O_4  and  C_31
REMARK    4  A    between atoms: N_6  and  C_19
REMARK    5  A    between atoms: N_7  and  C_25
REMARK    6  A    between atoms: C_8  and  C_16
REMARK    7  A    between atoms: C_9  and  C_18
REMARK    8  A    between atoms: C_10  and  C_17
REMARK    9  A    between atoms: C_16  and  C_19
REMARK   10  A    between atoms: C_18  and  C_24
REMARK                            x       y       z     vdW  Elec       q    Type
REMARK                         _______ _______ _______ _____ _____    ______ ____
ROOT
ATOM      1  O   UNL     1       8.696  10.344   5.429  0.00  0.00    -0.275 OA
ATOM      5  N   UNL     1      10.066   8.936   6.678  0.00  0.00    -0.301 N 
ATOM      8  C   UNL     1      11.149   6.736   7.072  0.00  0.00    +0.011 C 
ATOM      9  C   UNL     1      10.116   6.471   8.197  0.00  0.00    +0.006 C 
ATOM     11  C   UNL     1      11.347   8.250   6.890  0.00  0.00    +0.111 C 
ATOM     12  C   UNL     1       8.809   7.247   7.959  0.00  0.00    +0.023 C 
ATOM     15  C   UNL     1       9.078   8.732   7.735  0.00  0.00    +0.108 C 
ATOM     17  C   UNL     1       9.761   9.754   5.586  0.00  0.00    +0.219 C 
ENDROOT
BRANCH  17  10
ATOM     10  C   UNL     1      10.814   9.920   4.538  0.00  0.00    +0.075 C 
ATOM     13  C   UNL     1      10.684  11.034   3.542  0.00  0.00    +0.013 C 
ATOM     14  C   UNL     1      10.475   9.613   3.109  0.00  0.00    +0.013 C 
ENDBRANCH  17  10
BRANCH   8  16
ATOM     16  C   UNL     1      10.791   6.081   5.731  0.00  0.00    +0.020 C 
BRANCH  16  19
ATOM     19  C   UNL     1      11.681   6.608   4.615  0.00  0.00    +0.085 C 
BRANCH  19   6
ATOM      6  N   UNL     1      11.752   5.627   3.532  0.00  0.00    -0.299 NA
ATOM      7  N   UNL     1      11.562   4.702   0.836  0.00  0.00    -0.325 N 
ATOM     20  C   UNL     1      12.750   6.034   2.534  0.00  0.00    +0.103 C 
ATOM     21  C   UNL     1      10.441   5.471   2.892  0.00  0.00    +0.103 C 
ATOM     22  C   UNL     1      12.875   4.988   1.423  0.00  0.00    +0.120 C 
ATOM     23  C   UNL     1      10.489   4.407   1.794  0.00  0.00    +0.120 C 
BRANCH   7  25
ATOM     25  C   UNL     1      11.481   4.130  -0.439  0.00  0.00    +0.072 A 
ATOM     26  C   UNL     1      10.563   4.607  -1.373  0.00  0.00    +0.141 A 
ATOM     27  C   UNL     1      12.330   3.075  -0.770  0.00  0.00    +0.027 A 
ATOM     28  C   UNL     1      10.493   4.028  -2.641  0.00  0.00    +0.047 A 
ATOM     29  C   UNL     1      12.261   2.495  -2.037  0.00  0.00    +0.002 A 
ATOM     30  C   UNL     1      11.342   2.972  -2.973  0.00  0.00    +0.004 A 
BRANCH  26   4
ATOM      4  O   UNL     1       9.725   5.638  -1.070  0.00  0.00    -0.493 OA
ATOM     31  C   UNL     1       8.914   6.147  -2.127  0.00  0.00    +0.277 C 
ENDBRANCH  26   4
ENDBRANCH   7  25
ENDBRANCH  19   6
ENDBRANCH  16  19
ENDBRANCH   8  16
BRANCH   9  18
ATOM     18  C   UNL     1       9.829   4.985   8.412  0.00  0.00    +0.124 C 
BRANCH  18  24
ATOM      3  O   UNL     1       8.396   4.305  10.264  0.00  0.00    -0.251 OA
ATOM     24  C   UNL     1       9.478   4.689   9.845  0.00  0.00    +0.305 C 
BRANCH  24   2
ATOM      2  O   UNL     1      10.558   4.913  10.636  0.00  0.00    -0.481 OA
ATOM     32  H   UNL     1      11.332   5.224  10.118  0.00  0.00    +0.295 HD
ENDBRANCH  24   2
ENDBRANCH  18  24
ENDBRANCH   9  18
TORSDOF 9
ENDMDL
MODEL 6
REMARK VINA RESULT:      -6.2     13.534     15.262
REMARK  Name = 25313223
REMARK  10 active torsions:
REMARK  status: ('A' for Active; 'I' for Inactive)
REMARK    1  A    between atoms: O_2  and  C_24
REMARK    2  A    between atoms: O_4  and  C_26
REMARK    3  A    between atoms: O_4  and  C_31
REMARK    4  A    between atoms: N_6  and  C_19
REMARK    5  A    between atoms: N_7  and  C_25
REMARK    6  A    between atoms: C_8  and  C_16
REMARK    7  A    between atoms: C_9  and  C_18
REMARK    8  A    between atoms: C_10  and  C_17
REMARK    9  A    between atoms: C_16  and  C_19
REMARK   10  A    between atoms: C_18  and  C_24
REMARK                            x       y       z     vdW  Elec       q    Type
REMARK                         _______ _______ _______ _____ _____    ______ ____
ROOT
ATOM      1  O   UNL     1       8.454   7.720   2.752  0.00  0.00    -0.275 OA
ATOM      5  N   UNL     1       8.538   8.004   5.062  0.00  0.00    -0.301 N 
ATOM      8  C   UNL     1       9.804   8.174   7.191  0.00  0.00    +0.011 C 
ATOM      9  C   UNL     1       9.332   6.740   7.542  0.00  0.00    +0.006 C 
ATOM     11  C   UNL     1       8.793   8.839   6.242  0.00  0.00    +0.111 C 
ATOM     12  C   UNL     1       9.031   5.918   6.277  0.00  0.00    +0.023 C 
ATOM     15  C   UNL     1       8.063   6.653   5.354  0.00  0.00    +0.108 C 
ATOM     17  C   UNL     1       8.692   8.417   3.734  0.00  0.00    +0.219 C 
ENDROOT
BRANCH  17  10
ATOM     10  C   UNL     1       9.184   9.809   3.502  0.00  0.00    +0.075 C 
ATOM     13  C   UNL     1       9.724  10.177   2.151  0.00  0.00    +0.013 C 
ATOM     14  C   UNL     1      10.655  10.043   3.320  0.00  0.00    +0.013 C 
ENDBRANCH  17  10
BRANCH   8  16
ATOM     16  C   UNL     1      11.216   8.237   6.594  0.00  0.00    +0.020 C 
BRANCH  16  19
ATOM     19  C   UNL     1      11.934   9.506   7.031  0.00  0.00    +0.085 C 
BRANCH  19   6
ATOM      6  N   UNL     1      13.380   9.284   7.026  0.00  0.00    -0.299 NA
ATOM      7  N   UNL     1      15.952   8.882   5.851  0.00  0.00    -0.325 N 
ATOM     20  C   UNL     1      14.067  10.389   6.346  0.00  0.00    +0.103 C 
ATOM     21  C   UNL     1      13.704   8.013   6.367  0.00  0.00    +0.103 C 
ATOM     22  C   UNL     1      15.586  10.198   6.384  0.00  0.00    +0.120 C 
ATOM     23  C   UNL     1      15.209   7.743   6.406  0.00  0.00    +0.120 C 
BRANCH   7  25
ATOM     25  C   UNL     1      17.255   8.656   5.391  0.00  0.00    +0.072 A 
ATOM     26  C   UNL     1      17.498   8.404   4.042  0.00  0.00    +0.141 A 
ATOM     27  C   UNL     1      18.314   8.686   6.298  0.00  0.00    +0.027 A 
ATOM     28  C   UNL     1      18.801   8.181   3.598  0.00  0.00    +0.047 A 
ATOM     29  C   UNL     1      19.618   8.464   5.855  0.00  0.00    +0.002 A 
ATOM     30  C   UNL     1      19.862   8.211   4.504  0.00  0.00    +0.004 A 
BRANCH  26   4
ATOM      4  O   UNL     1      16.476   8.371   3.140  0.00  0.00    -0.493 OA
ATOM     31  C   UNL     1      16.806   8.003   1.802  0.00  0.00    +0.277 C 
ENDBRANCH  26   4
ENDBRANCH   7  25
ENDBRANCH  19   6
ENDBRANCH  16  19
ENDBRANCH   8  16
BRANCH   9  18
ATOM     18  C   UNL     1      10.308   5.991   8.451  0.00  0.00    +0.124 C 
BRANCH  18  24
ATOM      3  O   UNL     1       8.809   4.653   9.831  0.00  0.00    -0.251 OA
ATOM     24  C   UNL     1       9.700   4.729   8.998  0.00  0.00    +0.305 C 
BRANCH  24   2
ATOM      2  O   UNL     1      10.293   3.650   8.425  0.00  0.00    -0.481 OA
ATOM     32  H   UNL     1      10.544   2.976   9.092  0.00  0.00    +0.295 HD
ENDBRANCH  24   2
ENDBRANCH  18  24
ENDBRANCH   9  18
TORSDOF 9
ENDMDL
MODEL 7
REMARK VINA RESULT:      -6.1      3.118      8.948
REMARK  Name = 25313223
REMARK  10 active torsions:
REMARK  status: ('A' for Active; 'I' for Inactive)
REMARK    1  A    between atoms: O_2  and  C_24
REMARK    2  A    between atoms: O_4  and  C_26
REMARK    3  A    between atoms: O_4  and  C_31
REMARK    4  A    between atoms: N_6  and  C_19
REMARK    5  A    between atoms: N_7  and  C_25
REMARK    6  A    between atoms: C_8  and  C_16
REMARK    7  A    between atoms: C_9  and  C_18
REMARK    8  A    between atoms: C_10  and  C_17
REMARK    9  A    between atoms: C_16  and  C_19
REMARK   10  A    between atoms: C_18  and  C_24
REMARK                            x       y       z     vdW  Elec       q    Type
REMARK                         _______ _______ _______ _____ _____    ______ ____
ROOT
ATOM      1  O   UNL     1      20.322   9.662  23.673  0.00  0.00    -0.275 OA
ATOM      5  N   UNL     1      20.980   8.240  21.949  0.00  0.00    -0.301 N 
ATOM      8  C   UNL     1      20.600   6.273  20.482  0.00  0.00    +0.011 C 
ATOM      9  C   UNL     1      21.653   5.497  21.314  0.00  0.00    +0.006 C 
ATOM     11  C   UNL     1      20.884   7.783  20.558  0.00  0.00    +0.111 C 
ATOM     12  C   UNL     1      21.754   6.041  22.749  0.00  0.00    +0.023 C 
ATOM     15  C   UNL     1      21.985   7.550  22.756  0.00  0.00    +0.108 C 
ATOM     17  C   UNL     1      20.219   9.269  22.514  0.00  0.00    +0.219 C 
ENDROOT
BRANCH  17  10
ATOM     10  C   UNL     1      19.206   9.933  21.638  0.00  0.00    +0.075 C 
ATOM     13  C   UNL     1      19.582  11.191  20.911  0.00  0.00    +0.013 C 
ATOM     14  C   UNL     1      18.622  11.247  22.063  0.00  0.00    +0.013 C 
ENDBRANCH  17  10
BRANCH   8  16
ATOM     16  C   UNL     1      19.149   5.984  20.889  0.00  0.00    +0.020 C 
BRANCH  16  19
ATOM     19  C   UNL     1      18.198   6.252  19.731  0.00  0.00    +0.085 C 
BRANCH  19   6
ATOM      6  N   UNL     1      16.822   6.322  20.225  0.00  0.00    -0.299 NA
ATOM      7  N   UNL     1      14.340   7.585  20.857  0.00  0.00    -0.325 N 
ATOM     20  C   UNL     1      15.912   6.750  19.155  0.00  0.00    +0.103 C 
ATOM     21  C   UNL     1      16.729   7.248  21.360  0.00  0.00    +0.103 C 
ATOM     22  C   UNL     1      14.462   6.772  19.643  0.00  0.00    +0.120 C 
ATOM     23  C   UNL     1      15.306   7.286  21.922  0.00  0.00    +0.120 C 
BRANCH   7  25
ATOM     25  C   UNL     1      13.091   8.098  21.228  0.00  0.00    +0.072 A 
ATOM     26  C   UNL     1      12.852   9.471  21.206  0.00  0.00    +0.141 A 
ATOM     27  C   UNL     1      12.081   7.220  21.621  0.00  0.00    +0.027 A 
ATOM     28  C   UNL     1      11.603   9.968  21.578  0.00  0.00    +0.047 A 
ATOM     29  C   UNL     1      10.832   7.716  21.993  0.00  0.00    +0.002 A 
ATOM     30  C   UNL     1      10.592   9.091  21.971  0.00  0.00    +0.004 A 
BRANCH  26   4
ATOM      4  O   UNL     1      13.826  10.346  20.825  0.00  0.00    -0.493 OA
ATOM     31  C   UNL     1      13.453  11.717  20.705  0.00  0.00    +0.277 C 
ENDBRANCH  26   4
ENDBRANCH   7  25
ENDBRANCH  19   6
ENDBRANCH  16  19
ENDBRANCH   8  16
BRANCH   9  18
ATOM     18  C   UNL     1      21.415   3.987  21.327  0.00  0.00    +0.124 C 
BRANCH  18  24
ATOM      3  O   UNL     1      23.796   3.513  21.544  0.00  0.00    -0.251 OA
ATOM     24  C   UNL     1      22.692   3.222  21.110  0.00  0.00    +0.305 C 
BRANCH  24   2
ATOM      2  O   UNL     1      22.445   2.129  20.344  0.00  0.00    -0.481 OA
ATOM     32  H   UNL     1      21.522   2.117  20.011  0.00  0.00    +0.295 HD
ENDBRANCH  24   2
ENDBRANCH  18  24
ENDBRANCH   9  18
TORSDOF 9
ENDMDL
MODEL 8
REMARK VINA RESULT:      -6.1     27.602     30.408
REMARK  Name = 25313223
REMARK  10 active torsions:
REMARK  status: ('A' for Active; 'I' for Inactive)
REMARK    1  A    between atoms: O_2  and  C_24
REMARK    2  A    between atoms: O_4  and  C_26
REMARK    3  A    between atoms: O_4  and  C_31
REMARK    4  A    between atoms: N_6  and  C_19
REMARK    5  A    between atoms: N_7  and  C_25
REMARK    6  A    between atoms: C_8  and  C_16
REMARK    7  A    between atoms: C_9  and  C_18
REMARK    8  A    between atoms: C_10  and  C_17
REMARK    9  A    between atoms: C_16  and  C_19
REMARK   10  A    between atoms: C_18  and  C_24
REMARK                            x       y       z     vdW  Elec       q    Type
REMARK                         _______ _______ _______ _____ _____    ______ ____
ROOT
ATOM      1  O   UNL     1      -1.846 -10.186  14.306  0.00  0.00    -0.275 OA
ATOM      5  N   UNL     1      -3.796 -11.261  14.985  0.00  0.00    -0.301 N 
ATOM      8  C   UNL     1      -6.232 -11.255  15.468  0.00  0.00    +0.011 C 
ATOM      9  C   UNL     1      -5.894 -11.250  16.981  0.00  0.00    +0.006 C 
ATOM     11  C   UNL     1      -5.081 -11.901  14.677  0.00  0.00    +0.111 C 
ATOM     12  C   UNL     1      -4.520 -10.615  17.251  0.00  0.00    +0.023 C 
ATOM     15  C   UNL     1      -3.431 -11.264  16.401  0.00  0.00    +0.108 C 
ATOM     17  C   UNL     1      -2.930 -10.697  14.043  0.00  0.00    +0.219 C 
ENDROOT
BRANCH  17  10
ATOM     10  C   UNL     1      -3.363 -10.723  12.612  0.00  0.00    +0.075 C 
ATOM     13  C   UNL     1      -2.732 -11.712  11.676  0.00  0.00    +0.013 C 
ATOM     14  C   UNL     1      -2.412 -10.251  11.553  0.00  0.00    +0.013 C 
ENDBRANCH  17  10
BRANCH   8  16
ATOM     16  C   UNL     1      -6.558  -9.869  14.898  0.00  0.00    +0.020 C 
BRANCH  16  19
ATOM     19  C   UNL     1      -7.937  -9.857  14.254  0.00  0.00    +0.085 C 
BRANCH  19   6
ATOM      6  N   UNL     1      -7.805  -9.788  12.799  0.00  0.00    -0.299 NA
ATOM      7  N   UNL     1      -6.629 -10.354  10.258  0.00  0.00    -0.325 N 
ATOM     20  C   UNL     1      -7.922 -11.127  12.207  0.00  0.00    +0.103 C 
ATOM     21  C   UNL     1      -6.518  -9.189  12.427  0.00  0.00    +0.103 C 
ATOM     22  C   UNL     1      -7.842 -11.062  10.680  0.00  0.00    +0.120 C 
ATOM     23  C   UNL     1      -6.391  -9.059  10.908  0.00  0.00    +0.120 C 
BRANCH   7  25
ATOM     25  C   UNL     1      -6.129 -10.543   8.964  0.00  0.00    +0.072 A 
ATOM     26  C   UNL     1      -6.682  -9.858   7.883  0.00  0.00    +0.141 A 
ATOM     27  C   UNL     1      -5.068 -11.425   8.763  0.00  0.00    +0.027 A 
ATOM     28  C   UNL     1      -6.174 -10.055   6.599  0.00  0.00    +0.047 A 
ATOM     29  C   UNL     1      -4.559 -11.623   7.480  0.00  0.00    +0.002 A 
ATOM     30  C   UNL     1      -5.112 -10.937   6.397  0.00  0.00    +0.004 A 
BRANCH  26   4
ATOM      4  O   UNL     1      -7.719  -8.991   8.058  0.00  0.00    -0.493 OA
ATOM     31  C   UNL     1      -8.517  -8.695   6.913  0.00  0.00    +0.277 C 
ENDBRANCH  26   4
ENDBRANCH   7  25
ENDBRANCH  19   6
ENDBRANCH  16  19
ENDBRANCH   8  16
BRANCH   9  18
ATOM     18  C   UNL     1      -6.973 -10.584  17.835  0.00  0.00    +0.124 C 
BRANCH  18  24
ATOM      3  O   UNL     1      -7.094 -12.168  19.685  0.00  0.00    -0.251 OA
ATOM     24  C   UNL     1      -6.902 -11.035  19.269  0.00  0.00    +0.305 C 
BRANCH  24   2
ATOM      2  O   UNL     1      -6.588  -9.982  20.065  0.00  0.00    -0.481 OA
ATOM     32  H   UNL     1      -7.055  -9.164  19.789  0.00  0.00    +0.295 HD
ENDBRANCH  24   2
ENDBRANCH  18  24
ENDBRANCH   9  18
TORSDOF 9
ENDMDL
MODEL 9
REMARK VINA RESULT:      -6.1     13.847     17.792
REMARK  Name = 25313223
REMARK  10 active torsions:
REMARK  status: ('A' for Active; 'I' for Inactive)
REMARK    1  A    between atoms: O_2  and  C_24
REMARK    2  A    between atoms: O_4  and  C_26
REMARK    3  A    between atoms: O_4  and  C_31
REMARK    4  A    between atoms: N_6  and  C_19
REMARK    5  A    between atoms: N_7  and  C_25
REMARK    6  A    between atoms: C_8  and  C_16
REMARK    7  A    between atoms: C_9  and  C_18
REMARK    8  A    between atoms: C_10  and  C_17
REMARK    9  A    between atoms: C_16  and  C_19
REMARK   10  A    between atoms: C_18  and  C_24
REMARK                            x       y       z     vdW  Elec       q    Type
REMARK                         _______ _______ _______ _____ _____    ______ ____
ROOT
ATOM      1  O   UNL     1       9.801  11.340   5.801  0.00  0.00    -0.275 OA
ATOM      5  N   UNL     1      10.653   9.366   6.694  0.00  0.00    -0.301 N 
ATOM      8  C   UNL     1      10.756   6.886   6.794  0.00  0.00    +0.011 C 
ATOM      9  C   UNL     1       9.936   6.943   8.108  0.00  0.00    +0.006 C 
ATOM     11  C   UNL     1      11.538   8.198   6.609  0.00  0.00    +0.111 C 
ATOM     12  C   UNL     1       9.060   8.206   8.175  0.00  0.00    +0.023 C 
ATOM     15  C   UNL     1       9.885   9.467   7.934  0.00  0.00    +0.108 C 
ATOM     17  C   UNL     1      10.526  10.354   5.713  0.00  0.00    +0.219 C 
ENDROOT
BRANCH  17  10
ATOM     10  C   UNL     1      11.336  10.190   4.467  0.00  0.00    +0.075 C 
ATOM     13  C   UNL     1      11.020  11.043   3.273  0.00  0.00    +0.013 C 
ATOM     14  C   UNL     1      10.697   9.578   3.256  0.00  0.00    +0.013 C 
ENDBRANCH  17  10
BRANCH   8  16
ATOM     16  C   UNL     1       9.913   6.589   5.547  0.00  0.00    +0.020 C 
BRANCH  16  19
ATOM     19  C   UNL     1      10.155   5.169   5.055  0.00  0.00    +0.085 C 
BRANCH  19   6
ATOM      6  N   UNL     1      10.716   5.201   3.704  0.00  0.00    -0.299 NA
ATOM      7  N   UNL     1      12.707   4.791   1.698  0.00  0.00    -0.325 N 
ATOM     20  C   UNL     1      11.049   3.843   3.253  0.00  0.00    +0.103 C 
ATOM     21  C   UNL     1      11.914   6.048   3.663  0.00  0.00    +0.103 C 
ATOM     22  C   UNL     1      11.585   3.856   1.819  0.00  0.00    +0.120 C 
ATOM     23  C   UNL     1      12.477   6.135   2.244  0.00  0.00    +0.120 C 
BRANCH   7  25
ATOM     25  C   UNL     1      13.610   4.658   0.636  0.00  0.00    +0.072 A 
ATOM     26  C   UNL     1      13.201   4.887  -0.677  0.00  0.00    +0.141 A 
ATOM     27  C   UNL     1      14.930   4.294   0.902  0.00  0.00    +0.027 A 
ATOM     28  C   UNL     1      14.111   4.752  -1.725  0.00  0.00    +0.047 A 
ATOM     29  C   UNL     1      15.841   4.158  -0.145  0.00  0.00    +0.002 A 
ATOM     30  C   UNL     1      15.432   4.387  -1.459  0.00  0.00    +0.004 A 
BRANCH  26   4
ATOM      4  O   UNL     1      11.916   5.244  -0.958  0.00  0.00    -0.493 OA
ATOM     31  C   UNL     1      11.208   4.433  -1.894  0.00  0.00    +0.277 C 
ENDBRANCH  26   4
ENDBRANCH   7  25
ENDBRANCH  19   6
ENDBRANCH  16  19
ENDBRANCH   8  16
BRANCH   9  18
ATOM     18  C   UNL     1       9.093   5.690   8.345  0.00  0.00    +0.124 C 
BRANCH  18  24
ATOM      3  O   UNL     1      10.038   4.695  10.360  0.00  0.00    -0.251 OA
ATOM     24  C   UNL     1       9.838   4.664   9.155  0.00  0.00    +0.305 C 
BRANCH  24   2
ATOM      2  O   UNL     1      10.272   3.668   8.342  0.00  0.00    -0.481 OA
ATOM     32  H   UNL     1       9.538   3.272   7.825  0.00  0.00    +0.295 HD
ENDBRANCH  24   2
ENDBRANCH  18  24
ENDBRANCH   9  18
TORSDOF 9
ENDMDL
MODEL 10
REMARK VINA RESULT:      -5.9     29.694     32.735
REMARK  Name = 25313223
REMARK  10 active torsions:
REMARK  status: ('A' for Active; 'I' for Inactive)
REMARK    1  A    between atoms: O_2  and  C_24
REMARK    2  A    between atoms: O_4  and  C_26
REMARK    3  A    between atoms: O_4  and  C_31
REMARK    4  A    between atoms: N_6  and  C_19
REMARK    5  A    between atoms: N_7  and  C_25
REMARK    6  A    between atoms: C_8  and  C_16
REMARK    7  A    between atoms: C_9  and  C_18
REMARK    8  A    between atoms: C_10  and  C_17
REMARK    9  A    between atoms: C_16  and  C_19
REMARK   10  A    between atoms: C_18  and  C_24
REMARK                            x       y       z     vdW  Elec       q    Type
REMARK                         _______ _______ _______ _____ _____    ______ ____
ROOT
ATOM      1  O   UNL     1      -8.724   8.918  36.137  0.00  0.00    -0.275 OA
ATOM      5  N   UNL     1     -10.481   9.831  34.911  0.00  0.00    -0.301 N 
ATOM      8  C   UNL     1     -12.512   9.590  33.502  0.00  0.00    +0.011 C 
ATOM      9  C   UNL     1     -11.656   9.978  32.270  0.00  0.00    +0.006 C 
ATOM     11  C   UNL     1     -11.896  10.195  34.776  0.00  0.00    +0.111 C 
ATOM     12  C   UNL     1     -10.174   9.623  32.475  0.00  0.00    +0.023 C 
ATOM     15  C   UNL     1      -9.638  10.208  33.778  0.00  0.00    +0.108 C 
ATOM     17  C   UNL     1      -9.914   9.197  36.021  0.00  0.00    +0.219 C 
ENDROOT
BRANCH  17  10
ATOM     10  C   UNL     1     -10.830   8.834  37.146  0.00  0.00    +0.075 C 
ATOM     13  C   UNL     1     -10.453   7.707  38.061  0.00  0.00    +0.013 C 
ATOM     14  C   UNL     1     -11.581   7.538  37.086  0.00  0.00    +0.013 C 
ENDBRANCH  17  10
BRANCH   8  16
ATOM     16  C   UNL     1     -12.709   8.078  33.673  0.00  0.00    +0.020 C 
BRANCH  16  19
ATOM     19  C   UNL     1     -14.179   7.705  33.542  0.00  0.00    +0.085 C 
BRANCH  19   6
ATOM      6  N   UNL     1     -14.311   6.256  33.395  0.00  0.00    -0.299 NA
ATOM      7  N   UNL     1     -14.635   3.797  31.977  0.00  0.00    -0.325 N 
ATOM     20  C   UNL     1     -13.215   5.719  32.578  0.00  0.00    +0.103 C 
ATOM     21  C   UNL     1     -15.602   5.915  32.785  0.00  0.00    +0.103 C 
ATOM     22  C   UNL     1     -13.310   4.195  32.464  0.00  0.00    +0.120 C 
ATOM     23  C   UNL     1     -15.777   4.399  32.678  0.00  0.00    +0.120 C 
BRANCH   7  25
ATOM     25  C   UNL     1     -14.811   2.537  31.395  0.00  0.00    +0.072 A 
ATOM     26  C   UNL     1     -15.012   2.411  30.021  0.00  0.00    +0.141 A 
ATOM     27  C   UNL     1     -14.784   1.401  32.203  0.00  0.00    +0.027 A 
ATOM     28  C   UNL     1     -15.186   1.148  29.454  0.00  0.00    +0.047 A 
ATOM     29  C   UNL     1     -14.958   0.138  31.637  0.00  0.00    +0.002 A 
ATOM     30  C   UNL     1     -15.159   0.011  30.262  0.00  0.00    +0.004 A 
BRANCH  26   4
ATOM      4  O   UNL     1     -15.042   3.509  29.214  0.00  0.00    -0.493 OA
ATOM     31  C   UNL     1     -16.316   3.910  28.713  0.00  0.00    +0.277 C 
ENDBRANCH  26   4
ENDBRANCH   7  25
ENDBRANCH  19   6
ENDBRANCH  16  19
ENDBRANCH   8  16
BRANCH   9  18
ATOM     18  C   UNL     1     -12.177   9.378  30.964  0.00  0.00    +0.124 C 
BRANCH  18  24
ATOM      3  O   UNL     1     -11.537   9.969  28.687  0.00  0.00    -0.251 OA
ATOM     24  C   UNL     1     -11.935  10.294  29.796  0.00  0.00    +0.305 C 
BRANCH  24   2
ATOM      2  O   UNL     1     -12.226  11.572  30.149  0.00  0.00    -0.481 OA
ATOM     32  H   UNL     1     -13.179  11.774  30.035  0.00  0.00    +0.295 HD
ENDBRANCH  24   2
ENDBRANCH  18  24
ENDBRANCH   9  18
TORSDOF 9
ENDMDL
