MODEL 1
REMARK VINA RESULT:      -6.2      0.000      0.000
REMARK  Name = 7156248
REMARK  8 active torsions:
REMARK  status: ('A' for Active; 'I' for Inactive)
REMARK    1  A    between atoms: S_1  and  C_24
REMARK    2  A    between atoms: S_1  and  C_26
REMARK    3  A    between atoms: O_4  and  C_22
REMARK    4  A    between atoms: O_4  and  C_25
REMARK    5  A    between atoms: N_8  and  C_19
REMARK    6  A    between atoms: C_18  and  C_21
REMARK    7  A    between atoms: C_21  and  C_22
REMARK    8  A    between atoms: C_23  and  C_24
REMARK                            x       y       z     vdW  Elec       q    Type
REMARK                         _______ _______ _______ _____ _____    ______ ____
ROOT
ATOM      2  O   UNL     1      13.274   9.010  15.454  0.00  0.00    -0.266 OA
ATOM      3  O   UNL     1      10.797   7.976  20.088  0.00  0.00    -0.276 OA
ATOM      6  N   UNL     1      13.076   8.280  20.421  0.00  0.00    -0.300 N 
ATOM      7  N   UNL     1      14.287   9.033  17.559  0.00  0.00    -0.310 N 
ATOM      9  C   UNL     1      14.592   6.921  18.973  0.00  0.00    +0.027 C 
ATOM     10  C   UNL     1      15.357   9.091  19.840  0.00  0.00    +0.054 C 
ATOM     11  C   UNL     1      15.792   7.654  19.559  0.00  0.00    +0.018 C 
ATOM     12  C   UNL     1      13.416   6.931  19.966  0.00  0.00    +0.113 C 
ATOM     13  C   UNL     1      14.221   7.567  17.633  0.00  0.00    +0.130 C 
ATOM     14  C   UNL     1      14.215   9.092  20.876  0.00  0.00    +0.117 C 
ATOM     15  C   UNL     1      14.899   9.782  18.569  0.00  0.00    +0.027 A 
ATOM     16  C   UNL     1      15.053  11.109  18.427  0.00  0.00    +0.024 A 
ATOM     17  C   UNL     1      13.802   9.629  16.378  0.00  0.00    +0.273 A 
ATOM     18  C   UNL     1      11.739   8.672  20.476  0.00  0.00    +0.218 C 
ATOM     19  C   UNL     1      13.971  11.114  16.270  0.00  0.00    +0.099 A 
ATOM     20  C   UNL     1      14.579  11.785  17.254  0.00  0.00    +0.030 A 
ENDROOT
BRANCH  19   8
ATOM      5  O   UNL     1      15.441  11.598  13.862  0.00  0.00    -0.275 OA
ATOM      8  N   UNL     1      13.503  11.731  15.147  0.00  0.00    -0.281 N 
ATOM     23  C   UNL     1      14.265  11.931  14.006  0.00  0.00    +0.227 C 
ATOM     27  H   UNL     1      12.637  12.256  15.244  0.00  0.00    +0.155 HD
BRANCH  23  24
ATOM     24  C   UNL     1      13.503  12.639  12.910  0.00  0.00    +0.164 C 
BRANCH  24   1
ATOM      1  S   UNL     1      11.764  12.148  12.995  0.00  0.00    -0.155 S 
ATOM     26  C   UNL     1      11.412  12.097  11.221  0.00  0.00    +0.085 C 
ENDBRANCH  24   1
ENDBRANCH  23  24
ENDBRANCH  19   8
BRANCH  18  21
ATOM     21  C   UNL     1      11.459  10.041  21.044  0.00  0.00    +0.124 C 
BRANCH  21  22
ATOM     22  C   UNL     1      10.887   9.903  22.438  0.00  0.00    +0.168 C 
BRANCH  22   4
ATOM      4  O   UNL     1      11.652  10.688  23.345  0.00  0.00    -0.382 OA
ATOM     25  C   UNL     1      10.831  11.590  24.074  0.00  0.00    +0.194 C 
ENDBRANCH  22   4
ENDBRANCH  21  22
ENDBRANCH  18  21
TORSDOF 6
ENDMDL
MODEL 2
REMARK VINA RESULT:      -6.1      1.629      2.020
REMARK  Name = 7156248
REMARK  8 active torsions:
REMARK  status: ('A' for Active; 'I' for Inactive)
REMARK    1  A    between atoms: S_1  and  C_24
REMARK    2  A    between atoms: S_1  and  C_26
REMARK    3  A    between atoms: O_4  and  C_22
REMARK    4  A    between atoms: O_4  and  C_25
REMARK    5  A    between atoms: N_8  and  C_19
REMARK    6  A    between atoms: C_18  and  C_21
REMARK    7  A    between atoms: C_21  and  C_22
REMARK    8  A    between atoms: C_23  and  C_24
REMARK                            x       y       z     vdW  Elec       q    Type
REMARK                         _______ _______ _______ _____ _____    ______ ____
ROOT
ATOM      2  O   UNL     1      12.108   9.165  16.902  0.00  0.00    -0.266 OA
ATOM      3  O   UNL     1      10.487   9.339  22.003  0.00  0.00    -0.276 OA
ATOM      6  N   UNL     1      12.657   8.523  21.855  0.00  0.00    -0.300 N 
ATOM      7  N   UNL     1      13.438   8.667  18.757  0.00  0.00    -0.310 N 
ATOM      9  C   UNL     1      13.017   6.636  20.258  0.00  0.00    +0.027 C 
ATOM     10  C   UNL     1      14.870   8.169  20.770  0.00  0.00    +0.054 C 
ATOM     11  C   UNL     1      14.515   6.703  20.532  0.00  0.00    +0.018 C 
ATOM     12  C   UNL     1      12.224   7.183  21.458  0.00  0.00    +0.113 C 
ATOM     13  C   UNL     1      12.714   7.406  18.967  0.00  0.00    +0.130 C 
ATOM     14  C   UNL     1      14.111   8.691  22.006  0.00  0.00    +0.117 C 
ATOM     15  C   UNL     1      14.527   9.018  19.560  0.00  0.00    +0.027 A 
ATOM     16  C   UNL     1      15.248  10.117  19.278  0.00  0.00    +0.024 A 
ATOM     17  C   UNL     1      13.047   9.444  17.648  0.00  0.00    +0.273 A 
ATOM     18  C   UNL     1      11.704   9.500  22.138  0.00  0.00    +0.218 C 
ATOM     19  C   UNL     1      13.861  10.673  17.383  0.00  0.00    +0.099 A 
ATOM     20  C   UNL     1      14.905  10.959  18.168  0.00  0.00    +0.030 A 
ENDROOT
BRANCH  19   8
ATOM      5  O   UNL     1      14.769  10.396  14.684  0.00  0.00    -0.275 OA
ATOM      8  N   UNL     1      13.506  11.460  16.327  0.00  0.00    -0.281 N 
ATOM     23  C   UNL     1      13.977  11.270  15.036  0.00  0.00    +0.227 C 
ATOM     27  H   UNL     1      13.058  12.346  16.549  0.00  0.00    +0.155 HD
BRANCH  23  24
ATOM     24  C   UNL     1      13.427  12.281  14.058  0.00  0.00    +0.164 C 
BRANCH  24   1
ATOM      1  S   UNL     1      13.815  13.944  14.655  0.00  0.00    -0.155 S 
ATOM     26  C   UNL     1      15.615  13.877  14.485  0.00  0.00    +0.085 C 
ENDBRANCH  24   1
ENDBRANCH  23  24
ENDBRANCH  19   8
BRANCH  18  21
ATOM     21  C   UNL     1      12.221  10.828  22.632  0.00  0.00    +0.124 C 
BRANCH  21  22
ATOM     22  C   UNL     1      11.091  11.606  23.268  0.00  0.00    +0.168 C 
BRANCH  22   4
ATOM      4  O   UNL     1      11.050  11.333  24.663  0.00  0.00    -0.382 OA
ATOM     25  C   UNL     1      10.847  12.517  25.421  0.00  0.00    +0.194 C 
ENDBRANCH  22   4
ENDBRANCH  21  22
ENDBRANCH  18  21
TORSDOF 6
ENDMDL
MODEL 3
REMARK VINA RESULT:      -5.9      2.482      4.329
REMARK  Name = 7156248
REMARK  8 active torsions:
REMARK  status: ('A' for Active; 'I' for Inactive)
REMARK    1  A    between atoms: S_1  and  C_24
REMARK    2  A    between atoms: S_1  and  C_26
REMARK    3  A    between atoms: O_4  and  C_22
REMARK    4  A    between atoms: O_4  and  C_25
REMARK    5  A    between atoms: N_8  and  C_19
REMARK    6  A    between atoms: C_18  and  C_21
REMARK    7  A    between atoms: C_21  and  C_22
REMARK    8  A    between atoms: C_23  and  C_24
REMARK                            x       y       z     vdW  Elec       q    Type
REMARK                         _______ _______ _______ _____ _____    ______ ____
ROOT
ATOM      2  O   UNL     1      14.122  11.891  18.310  0.00  0.00    -0.266 OA
ATOM      3  O   UNL     1      15.624   8.457  22.135  0.00  0.00    -0.276 OA
ATOM      6  N   UNL     1      13.650   7.759  21.129  0.00  0.00    -0.300 N 
ATOM      7  N   UNL     1      13.058   9.869  18.800  0.00  0.00    -0.310 N 
ATOM      9  C   UNL     1      11.819   9.454  21.001  0.00  0.00    +0.027 C 
ATOM     10  C   UNL     1      11.946   7.668  19.316  0.00  0.00    +0.054 C 
ATOM     11  C   UNL     1      10.984   8.476  20.185  0.00  0.00    +0.018 C 
ATOM     12  C   UNL     1      12.823   8.697  21.889  0.00  0.00    +0.113 C 
ATOM     13  C   UNL     1      12.516  10.430  20.045  0.00  0.00    +0.130 C 
ATOM     14  C   UNL     1      12.911   6.872  20.216  0.00  0.00    +0.117 C 
ATOM     15  C   UNL     1      12.735   8.573  18.389  0.00  0.00    +0.027 A 
ATOM     16  C   UNL     1      13.146   8.122  17.191  0.00  0.00    +0.024 A 
ATOM     17  C   UNL     1      13.827  10.737  17.999  0.00  0.00    +0.273 A 
ATOM     18  C   UNL     1      15.022   7.702  21.365  0.00  0.00    +0.218 C 
ATOM     19  C   UNL     1      14.287  10.187  16.683  0.00  0.00    +0.099 A 
ATOM     20  C   UNL     1      13.938   8.947  16.324  0.00  0.00    +0.030 A 
ENDROOT
BRANCH  19   8
ATOM      5  O   UNL     1      13.427  11.489  14.284  0.00  0.00    -0.275 OA
ATOM      8  N   UNL     1      15.045  10.991  15.883  0.00  0.00    -0.281 N 
ATOM     23  C   UNL     1      14.567  11.601  14.733  0.00  0.00    +0.227 C 
ATOM     27  H   UNL     1      16.052  10.953  16.024  0.00  0.00    +0.155 HD
BRANCH  23  24
ATOM     24  C   UNL     1      15.615  12.436  14.035  0.00  0.00    +0.164 C 
BRANCH  24   1
ATOM      1  S   UNL     1      15.809  11.835  12.340  0.00  0.00    -0.155 S 
ATOM     26  C   UNL     1      14.774  13.058  11.501  0.00  0.00    +0.085 C 
ENDBRANCH  24   1
ENDBRANCH  23  24
ENDBRANCH  19   8
BRANCH  18  21
ATOM     21  C   UNL     1      15.796   6.647  20.614  0.00  0.00    +0.124 C 
BRANCH  21  22
ATOM     22  C   UNL     1      17.242   6.668  21.058  0.00  0.00    +0.168 C 
BRANCH  22   4
ATOM      4  O   UNL     1      18.088   6.471  19.932  0.00  0.00    -0.382 OA
ATOM     25  C   UNL     1      17.466   5.655  18.949  0.00  0.00    +0.194 C 
ENDBRANCH  22   4
ENDBRANCH  21  22
ENDBRANCH  18  21
TORSDOF 6
ENDMDL
MODEL 4
REMARK VINA RESULT:      -5.6     27.592     29.613
REMARK  Name = 7156248
REMARK  8 active torsions:
REMARK  status: ('A' for Active; 'I' for Inactive)
REMARK    1  A    between atoms: S_1  and  C_24
REMARK    2  A    between atoms: S_1  and  C_26
REMARK    3  A    between atoms: O_4  and  C_22
REMARK    4  A    between atoms: O_4  and  C_25
REMARK    5  A    between atoms: N_8  and  C_19
REMARK    6  A    between atoms: C_18  and  C_21
REMARK    7  A    between atoms: C_21  and  C_22
REMARK    8  A    between atoms: C_23  and  C_24
REMARK                            x       y       z     vdW  Elec       q    Type
REMARK                         _______ _______ _______ _____ _____    ______ ____
ROOT
ATOM      2  O   UNL     1      -5.361 -13.491  15.933  0.00  0.00    -0.266 OA
ATOM      3  O   UNL     1      -9.783 -10.489  15.609  0.00  0.00    -0.276 OA
ATOM      6  N   UNL     1      -9.410 -11.174  17.798  0.00  0.00    -0.300 N 
ATOM      7  N   UNL     1      -6.656 -12.799  17.750  0.00  0.00    -0.310 N 
ATOM      9  C   UNL     1      -9.048 -13.621  18.140  0.00  0.00    +0.027 C 
ATOM     10  C   UNL     1      -8.042 -12.011  19.701  0.00  0.00    +0.054 C 
ATOM     11  C   UNL     1      -8.750 -13.362  19.611  0.00  0.00    +0.018 C 
ATOM     12  C   UNL     1      -9.951 -12.514  17.568  0.00  0.00    +0.113 C 
ATOM     13  C   UNL     1      -7.723 -13.737  17.377  0.00  0.00    +0.130 C 
ATOM     14  C   UNL     1      -8.975 -10.902  19.177  0.00  0.00    +0.117 C 
ATOM     15  C   UNL     1      -6.750 -12.017  18.905  0.00  0.00    +0.027 A 
ATOM     16  C   UNL     1      -5.714 -11.253  19.291  0.00  0.00    +0.024 A 
ATOM     17  C   UNL     1      -5.498 -12.807  16.948  0.00  0.00    +0.273 A 
ATOM     18  C   UNL     1      -9.416 -10.241  16.761  0.00  0.00    +0.218 C 
ATOM     19  C   UNL     1      -4.375 -11.923  17.398  0.00  0.00    +0.099 A 
ATOM     20  C   UNL     1      -4.505 -11.207  18.520  0.00  0.00    +0.030 A 
ENDROOT
BRANCH  19   8
ATOM      5  O   UNL     1      -3.953 -10.359  15.039  0.00  0.00    -0.275 OA
ATOM      8  N   UNL     1      -3.241 -11.892  16.641  0.00  0.00    -0.281 N 
ATOM     23  C   UNL     1      -3.095 -11.105  15.508  0.00  0.00    +0.227 C 
ATOM     27  H   UNL     1      -2.570 -12.642  16.795  0.00  0.00    +0.155 HD
BRANCH  23  24
ATOM     24  C   UNL     1      -1.740 -11.261  14.858  0.00  0.00    +0.164 C 
BRANCH  24   1
ATOM      1  S   UNL     1      -1.732 -12.782  13.878  0.00  0.00    -0.155 S 
ATOM     26  C   UNL     1      -2.451 -12.123  12.354  0.00  0.00    +0.085 C 
ENDBRANCH  24   1
ENDBRANCH  23  24
ENDBRANCH  19   8
BRANCH  18  21
ATOM     21  C   UNL     1      -8.929  -8.853  17.097  0.00  0.00    +0.124 C 
BRANCH  21  22
ATOM     22  C   UNL     1     -10.108  -7.907  17.161  0.00  0.00    +0.168 C 
BRANCH  22   4
ATOM      4  O   UNL     1     -10.015  -6.959  16.105  0.00  0.00    -0.382 OA
ATOM     25  C   UNL     1     -11.172  -6.137  16.039  0.00  0.00    +0.194 C 
ENDBRANCH  22   4
ENDBRANCH  21  22
ENDBRANCH  18  21
TORSDOF 6
ENDMDL
MODEL 5
REMARK VINA RESULT:      -5.5     13.202     18.415
REMARK  Name = 7156248
REMARK  8 active torsions:
REMARK  status: ('A' for Active; 'I' for Inactive)
REMARK    1  A    between atoms: S_1  and  C_24
REMARK    2  A    between atoms: S_1  and  C_26
REMARK    3  A    between atoms: O_4  and  C_22
REMARK    4  A    between atoms: O_4  and  C_25
REMARK    5  A    between atoms: N_8  and  C_19
REMARK    6  A    between atoms: C_18  and  C_21
REMARK    7  A    between atoms: C_21  and  C_22
REMARK    8  A    between atoms: C_23  and  C_24
REMARK                            x       y       z     vdW  Elec       q    Type
REMARK                         _______ _______ _______ _____ _____    ______ ____
ROOT
ATOM      2  O   UNL     1      12.387   7.503   3.462  0.00  0.00    -0.266 OA
ATOM      3  O   UNL     1      12.091   6.692  -1.822  0.00  0.00    -0.276 OA
ATOM      6  N   UNL     1      12.847   4.783  -0.736  0.00  0.00    -0.300 N 
ATOM      7  N   UNL     1      12.783   5.468   2.387  0.00  0.00    -0.310 N 
ATOM      9  C   UNL     1      14.774   5.092   0.822  0.00  0.00    +0.027 C 
ATOM     10  C   UNL     1      13.170   3.271   1.215  0.00  0.00    +0.054 C 
ATOM     11  C   UNL     1      14.654   3.633   1.246  0.00  0.00    +0.018 C 
ATOM     12  C   UNL     1      14.212   5.291  -0.596  0.00  0.00    +0.113 C 
ATOM     13  C   UNL     1      14.058   5.970   1.855  0.00  0.00    +0.130 C 
ATOM     14  C   UNL     1      12.630   3.422  -0.221  0.00  0.00    +0.117 C 
ATOM     15  C   UNL     1      12.373   4.151   2.159  0.00  0.00    +0.027 A 
ATOM     16  C   UNL     1      11.263   3.677   2.751  0.00  0.00    +0.024 A 
ATOM     17  C   UNL     1      12.056   6.343   3.218  0.00  0.00    +0.273 A 
ATOM     18  C   UNL     1      11.890   5.550  -1.399  0.00  0.00    +0.218 C 
ATOM     19  C   UNL     1      10.812   5.784   3.838  0.00  0.00    +0.099 A 
ATOM     20  C   UNL     1      10.469   4.512   3.606  0.00  0.00    +0.030 A 
ENDROOT
BRANCH  19   8
ATOM      5  O   UNL     1       8.658   7.474   3.006  0.00  0.00    -0.275 OA
ATOM      8  N   UNL     1      10.072   6.603   4.639  0.00  0.00    -0.281 N 
ATOM     23  C   UNL     1       9.033   7.396   4.175  0.00  0.00    +0.227 C 
ATOM     27  H   UNL     1      10.450   6.799   5.564  0.00  0.00    +0.155 HD
BRANCH  23  24
ATOM     24  C   UNL     1       8.381   8.206   5.272  0.00  0.00    +0.164 C 
BRANCH  24   1
ATOM      1  S   UNL     1       9.620   8.586   6.535  0.00  0.00    -0.155 S 
ATOM     26  C   UNL     1       8.872   7.695   7.920  0.00  0.00    +0.085 C 
ENDBRANCH  24   1
ENDBRANCH  23  24
ENDBRANCH  19   8
BRANCH  18  21
ATOM     21  C   UNL     1      10.531   4.923  -1.587  0.00  0.00    +0.124 C 
BRANCH  21  22
ATOM     22  C   UNL     1      10.468   4.251  -2.941  0.00  0.00    +0.168 C 
BRANCH  22   4
ATOM      4  O   UNL     1      10.096   2.888  -2.779  0.00  0.00    -0.382 OA
ATOM     25  C   UNL     1       9.439   2.386  -3.935  0.00  0.00    +0.194 C 
ENDBRANCH  22   4
ENDBRANCH  21  22
ENDBRANCH  18  21
TORSDOF 6
ENDMDL
MODEL 6
REMARK VINA RESULT:      -5.5     26.957     28.904
REMARK  Name = 7156248
REMARK  8 active torsions:
REMARK  status: ('A' for Active; 'I' for Inactive)
REMARK    1  A    between atoms: S_1  and  C_24
REMARK    2  A    between atoms: S_1  and  C_26
REMARK    3  A    between atoms: O_4  and  C_22
REMARK    4  A    between atoms: O_4  and  C_25
REMARK    5  A    between atoms: N_8  and  C_19
REMARK    6  A    between atoms: C_18  and  C_21
REMARK    7  A    between atoms: C_21  and  C_22
REMARK    8  A    between atoms: C_23  and  C_24
REMARK                            x       y       z     vdW  Elec       q    Type
REMARK                         _______ _______ _______ _____ _____    ______ ____
ROOT
ATOM      2  O   UNL     1      -6.307 -10.146  14.980  0.00  0.00    -0.266 OA
ATOM      3  O   UNL     1      -4.904 -14.628  12.406  0.00  0.00    -0.276 OA
ATOM      6  N   UNL     1      -3.215 -13.038  12.274  0.00  0.00    -0.300 N 
ATOM      7  N   UNL     1      -4.222 -10.544  14.005  0.00  0.00    -0.310 N 
ATOM      9  C   UNL     1      -3.896 -10.771  11.476  0.00  0.00    +0.027 C 
ATOM     10  C   UNL     1      -1.966 -11.004  12.980  0.00  0.00    +0.054 C 
ATOM     11  C   UNL     1      -2.487 -10.261  11.751  0.00  0.00    +0.018 C 
ATOM     12  C   UNL     1      -3.880 -12.287  11.208  0.00  0.00    +0.113 C 
ATOM     13  C   UNL     1      -4.798 -10.404  12.660  0.00  0.00    +0.130 C 
ATOM     14  C   UNL     1      -1.902 -12.515  12.683  0.00  0.00    +0.117 C 
ATOM     15  C   UNL     1      -2.851 -10.753  14.187  0.00  0.00    +0.027 A 
ATOM     16  C   UNL     1      -2.327 -10.762  15.424  0.00  0.00    +0.024 A 
ATOM     17  C   UNL     1      -5.098 -10.352  15.091  0.00  0.00    +0.273 A 
ATOM     18  C   UNL     1      -3.799 -14.206  12.761  0.00  0.00    +0.218 C 
ATOM     19  C   UNL     1      -4.478 -10.393  16.455  0.00  0.00    +0.099 A 
ATOM     20  C   UNL     1      -3.160 -10.578  16.578  0.00  0.00    +0.030 A 
ENDROOT
BRANCH  19   8
ATOM      5  O   UNL     1      -4.545 -12.029  18.801  0.00  0.00    -0.275 OA
ATOM      8  N   UNL     1      -5.295 -10.225  17.534  0.00  0.00    -0.281 N 
ATOM     23  C   UNL     1      -5.275 -11.051  18.648  0.00  0.00    +0.227 C 
ATOM     27  H   UNL     1      -6.093  -9.606  17.409  0.00  0.00    +0.155 HD
BRANCH  23  24
ATOM     24  C   UNL     1      -6.282 -10.641  19.698  0.00  0.00    +0.164 C 
BRANCH  24   1
ATOM      1  S   UNL     1      -7.939 -11.082  19.123  0.00  0.00    -0.155 S 
ATOM     26  C   UNL     1      -8.012 -12.766  19.779  0.00  0.00    +0.085 C 
ENDBRANCH  24   1
ENDBRANCH  23  24
ENDBRANCH  19   8
BRANCH  18  21
ATOM     21  C   UNL     1      -3.013 -14.978  13.792  0.00  0.00    +0.124 C 
BRANCH  21  22
ATOM     22  C   UNL     1      -3.846 -15.143  15.044  0.00  0.00    +0.168 C 
BRANCH  22   4
ATOM      4  O   UNL     1      -4.269 -13.866  15.506  0.00  0.00    -0.382 OA
ATOM     25  C   UNL     1      -5.581 -13.916  16.048  0.00  0.00    +0.194 C 
ENDBRANCH  22   4
ENDBRANCH  21  22
ENDBRANCH  18  21
TORSDOF 6
ENDMDL
MODEL 7
REMARK VINA RESULT:      -5.4     26.964     28.894
REMARK  Name = 7156248
REMARK  8 active torsions:
REMARK  status: ('A' for Active; 'I' for Inactive)
REMARK    1  A    between atoms: S_1  and  C_24
REMARK    2  A    between atoms: S_1  and  C_26
REMARK    3  A    between atoms: O_4  and  C_22
REMARK    4  A    between atoms: O_4  and  C_25
REMARK    5  A    between atoms: N_8  and  C_19
REMARK    6  A    between atoms: C_18  and  C_21
REMARK    7  A    between atoms: C_21  and  C_22
REMARK    8  A    between atoms: C_23  and  C_24
REMARK                            x       y       z     vdW  Elec       q    Type
REMARK                         _______ _______ _______ _____ _____    ______ ____
ROOT
ATOM      2  O   UNL     1      -6.701  -9.837  13.843  0.00  0.00    -0.266 OA
ATOM      3  O   UNL     1      -4.694 -14.659  12.665  0.00  0.00    -0.276 OA
ATOM      6  N   UNL     1      -2.993 -13.156  13.157  0.00  0.00    -0.300 N 
ATOM      7  N   UNL     1      -4.444 -10.426  13.972  0.00  0.00    -0.310 N 
ATOM      9  C   UNL     1      -3.040 -10.992  11.908  0.00  0.00    +0.027 C 
ATOM     10  C   UNL     1      -2.019 -11.088  14.143  0.00  0.00    +0.054 C 
ATOM     11  C   UNL     1      -1.866 -10.496  12.743  0.00  0.00    +0.018 C 
ATOM     12  C   UNL     1      -3.039 -12.529  11.834  0.00  0.00    +0.113 C 
ATOM     13  C   UNL     1      -4.341 -10.444  12.507  0.00  0.00    +0.130 C 
ATOM     14  C   UNL     1      -1.962 -12.626  14.064  0.00  0.00    +0.117 C 
ATOM     15  C   UNL     1      -3.326 -10.653  14.780  0.00  0.00    +0.027 A 
ATOM     16  C   UNL     1      -3.416 -10.516  16.114  0.00  0.00    +0.024 A 
ATOM     17  C   UNL     1      -5.694 -10.064  14.514  0.00  0.00    +0.273 A 
ATOM     18  C   UNL     1      -3.834 -14.230  13.440  0.00  0.00    +0.218 C 
ATOM     19  C   UNL     1      -5.759  -9.947  16.006  0.00  0.00    +0.099 A 
ATOM     20  C   UNL     1      -4.658 -10.156  16.736  0.00  0.00    +0.030 A 
ENDROOT
BRANCH  19   8
ATOM      5  O   UNL     1      -7.802 -11.763  16.851  0.00  0.00    -0.275 OA
ATOM      8  N   UNL     1      -6.955  -9.612  16.570  0.00  0.00    -0.281 N 
ATOM     23  C   UNL     1      -7.904 -10.543  16.966  0.00  0.00    +0.227 C 
ATOM     27  H   UNL     1      -7.241  -8.639  16.487  0.00  0.00    +0.155 HD
BRANCH  23  24
ATOM     24  C   UNL     1      -9.137  -9.904  17.561  0.00  0.00    +0.164 C 
BRANCH  24   1
ATOM      1  S   UNL     1      -9.358  -8.264  16.828  0.00  0.00    -0.155 S 
ATOM     26  C   UNL     1     -10.286  -8.752  15.354  0.00  0.00    +0.085 C 
ENDBRANCH  24   1
ENDBRANCH  23  24
ENDBRANCH  19   8
BRANCH  18  21
ATOM     21  C   UNL     1      -3.665 -14.885  14.788  0.00  0.00    +0.124 C 
BRANCH  21  22
ATOM     22  C   UNL     1      -4.986 -14.874  15.525  0.00  0.00    +0.168 C 
BRANCH  22   4
ATOM      4  O   UNL     1      -5.183 -13.602  16.131  0.00  0.00    -0.382 OA
ATOM     25  C   UNL     1      -4.970 -13.656  17.535  0.00  0.00    +0.194 C 
ENDBRANCH  22   4
ENDBRANCH  21  22
ENDBRANCH  18  21
TORSDOF 6
ENDMDL
MODEL 8
REMARK VINA RESULT:      -5.4     12.719     15.997
REMARK  Name = 7156248
REMARK  8 active torsions:
REMARK  status: ('A' for Active; 'I' for Inactive)
REMARK    1  A    between atoms: S_1  and  C_24
REMARK    2  A    between atoms: S_1  and  C_26
REMARK    3  A    between atoms: O_4  and  C_22
REMARK    4  A    between atoms: O_4  and  C_25
REMARK    5  A    between atoms: N_8  and  C_19
REMARK    6  A    between atoms: C_18  and  C_21
REMARK    7  A    between atoms: C_21  and  C_22
REMARK    8  A    between atoms: C_23  and  C_24
REMARK                            x       y       z     vdW  Elec       q    Type
REMARK                         _______ _______ _______ _____ _____    ______ ____
ROOT
ATOM      2  O   UNL     1      10.097   7.504   1.483  0.00  0.00    -0.266 OA
ATOM      3  O   UNL     1      11.951   9.434   6.121  0.00  0.00    -0.276 OA
ATOM      6  N   UNL     1      10.485   7.670   6.489  0.00  0.00    -0.300 N 
ATOM      7  N   UNL     1       9.653   6.603   3.592  0.00  0.00    -0.310 N 
ATOM      9  C   UNL     1       8.264   7.829   5.358  0.00  0.00    +0.027 C 
ATOM     10  C   UNL     1       9.215   5.621   5.870  0.00  0.00    +0.054 C 
ATOM     11  C   UNL     1       7.920   6.431   5.857  0.00  0.00    +0.018 C 
ATOM     12  C   UNL     1       9.294   8.496   6.286  0.00  0.00    +0.113 C 
ATOM     13  C   UNL     1       8.767   7.730   3.913  0.00  0.00    +0.130 C 
ATOM     14  C   UNL     1      10.220   6.267   6.844  0.00  0.00    +0.117 C 
ATOM     15  C   UNL     1       9.822   5.538   4.482  0.00  0.00    +0.027 A 
ATOM     16  C   UNL     1      10.543   4.463   4.122  0.00  0.00    +0.024 A 
ATOM     17  C   UNL     1      10.232   6.600   2.307  0.00  0.00    +0.273 A 
ATOM     18  C   UNL     1      11.749   8.254   6.422  0.00  0.00    +0.218 C 
ATOM     19  C   UNL     1      11.048   5.394   1.953  0.00  0.00    +0.099 A 
ATOM     20  C   UNL     1      11.167   4.393   2.832  0.00  0.00    +0.030 A 
ENDROOT
BRANCH  19   8
ATOM      5  O   UNL     1       9.906   4.328  -0.444  0.00  0.00    -0.275 OA
ATOM      8  N   UNL     1      11.638   5.359   0.724  0.00  0.00    -0.281 N 
ATOM     23  C   UNL     1      11.027   4.833  -0.405  0.00  0.00    +0.227 C 
ATOM     27  H   UNL     1      12.642   5.523   0.695  0.00  0.00    +0.155 HD
BRANCH  23  24
ATOM     24  C   UNL     1      11.901   4.918  -1.636  0.00  0.00    +0.164 C 
BRANCH  24   1
ATOM      1  S   UNL     1      13.079   3.545  -1.615  0.00  0.00    -0.155 S 
ATOM     26  C   UNL     1      12.045   2.292  -2.410  0.00  0.00    +0.085 C 
ENDBRANCH  24   1
ENDBRANCH  23  24
ENDBRANCH  19   8
BRANCH  18  21
ATOM     21  C   UNL     1      12.925   7.362   6.735  0.00  0.00    +0.124 C 
BRANCH  21  22
ATOM     22  C   UNL     1      13.863   7.329   5.549  0.00  0.00    +0.168 C 
BRANCH  22   4
ATOM      4  O   UNL     1      13.130   7.019   4.370  0.00  0.00    -0.382 OA
ATOM     25  C   UNL     1      13.815   7.450   3.202  0.00  0.00    +0.194 C 
ENDBRANCH  22   4
ENDBRANCH  21  22
ENDBRANCH  18  21
TORSDOF 6
ENDMDL
MODEL 9
REMARK VINA RESULT:      -5.2     24.952     27.652
REMARK  Name = 7156248
REMARK  8 active torsions:
REMARK  status: ('A' for Active; 'I' for Inactive)
REMARK    1  A    between atoms: S_1  and  C_24
REMARK    2  A    between atoms: S_1  and  C_26
REMARK    3  A    between atoms: O_4  and  C_22
REMARK    4  A    between atoms: O_4  and  C_25
REMARK    5  A    between atoms: N_8  and  C_19
REMARK    6  A    between atoms: C_18  and  C_21
REMARK    7  A    between atoms: C_21  and  C_22
REMARK    8  A    between atoms: C_23  and  C_24
REMARK                            x       y       z     vdW  Elec       q    Type
REMARK                         _______ _______ _______ _____ _____    ______ ____
ROOT
ATOM      2  O   UNL     1     -14.050   9.541  21.826  0.00  0.00    -0.266 OA
ATOM      3  O   UNL     1     -14.709  10.280  16.563  0.00  0.00    -0.276 OA
ATOM      6  N   UNL     1     -12.482   9.843  17.062  0.00  0.00    -0.300 N 
ATOM      7  N   UNL     1     -12.382   9.287  20.210  0.00  0.00    -0.310 N 
ATOM      9  C   UNL     1     -11.458  11.251  18.853  0.00  0.00    +0.027 C 
ATOM     10  C   UNL     1     -10.604   8.981  18.450  0.00  0.00    +0.054 C 
ATOM     11  C   UNL     1     -10.187  10.415  18.769  0.00  0.00    +0.018 C 
ATOM     12  C   UNL     1     -12.221  11.209  17.517  0.00  0.00    +0.113 C 
ATOM     13  C   UNL     1     -12.311  10.743  20.020  0.00  0.00    +0.130 C 
ATOM     14  C   UNL     1     -11.319   8.942  17.085  0.00  0.00    +0.117 C 
ATOM     15  C   UNL     1     -11.519   8.426  19.526  0.00  0.00    +0.027 A 
ATOM     16  C   UNL     1     -11.520   7.110  19.800  0.00  0.00    +0.024 A 
ATOM     17  C   UNL     1     -13.284   8.820  21.186  0.00  0.00    +0.273 A 
ATOM     18  C   UNL     1     -13.744   9.510  16.573  0.00  0.00    +0.218 C 
ATOM     19  C   UNL     1     -13.272   7.344  21.444  0.00  0.00    +0.099 A 
ATOM     20  C   UNL     1     -12.416   6.562  20.778  0.00  0.00    +0.030 A 
ENDROOT
BRANCH  19   8
ATOM      5  O   UNL     1     -15.715   5.954  20.908  0.00  0.00    -0.275 OA
ATOM      8  N   UNL     1     -14.140   6.849  22.372  0.00  0.00    -0.281 N 
ATOM     23  C   UNL     1     -15.309   6.176  22.048  0.00  0.00    +0.227 C 
ATOM     27  H   UNL     1     -14.029   7.187  23.325  0.00  0.00    +0.155 HD
BRANCH  23  24
ATOM     24  C   UNL     1     -16.087   5.735  23.266  0.00  0.00    +0.164 C 
BRANCH  24   1
ATOM      1  S   UNL     1     -15.256   4.308  24.006  0.00  0.00    -0.155 S 
ATOM     26  C   UNL     1     -16.541   3.069  23.714  0.00  0.00    +0.085 C 
ENDBRANCH  24   1
ENDBRANCH  23  24
ENDBRANCH  19   8
BRANCH  18  21
ATOM     21  C   UNL     1     -13.914   8.111  16.035  0.00  0.00    +0.124 C 
BRANCH  21  22
ATOM     22  C   UNL     1     -13.947   8.151  14.523  0.00  0.00    +0.168 C 
BRANCH  22   4
ATOM      4  O   UNL     1     -12.687   7.739  14.008  0.00  0.00    -0.382 OA
ATOM     25  C   UNL     1     -12.033   8.798  13.322  0.00  0.00    +0.194 C 
ENDBRANCH  22   4
ENDBRANCH  21  22
ENDBRANCH  18  21
TORSDOF 6
ENDMDL
MODEL 10
REMARK VINA RESULT:      -5.1     24.295     26.230
REMARK  Name = 7156248
REMARK  8 active torsions:
REMARK  status: ('A' for Active; 'I' for Inactive)
REMARK    1  A    between atoms: S_1  and  C_24
REMARK    2  A    between atoms: S_1  and  C_26
REMARK    3  A    between atoms: O_4  and  C_22
REMARK    4  A    between atoms: O_4  and  C_25
REMARK    5  A    between atoms: N_8  and  C_19
REMARK    6  A    between atoms: C_18  and  C_21
REMARK    7  A    between atoms: C_21  and  C_22
REMARK    8  A    between atoms: C_23  and  C_24
REMARK                            x       y       z     vdW  Elec       q    Type
REMARK                         _______ _______ _______ _____ _____    ______ ____
ROOT
ATOM      2  O   UNL     1     -14.812   8.401  16.331  0.00  0.00    -0.266 OA
ATOM      3  O   UNL     1     -12.985  12.234  19.593  0.00  0.00    -0.276 OA
ATOM      6  N   UNL     1     -11.579  10.385  19.625  0.00  0.00    -0.300 N 
ATOM      7  N   UNL     1     -12.791   8.326  17.500  0.00  0.00    -0.310 N 
ATOM      9  C   UNL     1     -12.671   8.179  20.052  0.00  0.00    +0.027 C 
ATOM     10  C   UNL     1     -10.596   8.278  18.737  0.00  0.00    +0.054 C 
ATOM     11  C   UNL     1     -11.337   7.483  19.811  0.00  0.00    +0.018 C 
ATOM     12  C   UNL     1     -12.447   9.626  20.527  0.00  0.00    +0.113 C 
ATOM     13  C   UNL     1     -13.504   8.115  18.767  0.00  0.00    +0.130 C 
ATOM     14  C   UNL     1     -10.329   9.709  19.243  0.00  0.00    +0.117 C 
ATOM     15  C   UNL     1     -11.394   8.328  17.447  0.00  0.00    +0.027 A 
ATOM     16  C   UNL     1     -10.762   8.405  16.264  0.00  0.00    +0.024 A 
ATOM     17  C   UNL     1     -13.581   8.417  16.337  0.00  0.00    +0.273 A 
ATOM     18  C   UNL     1     -11.930  11.685  19.263  0.00  0.00    +0.218 C 
ATOM     19  C   UNL     1     -12.839   8.526  15.040  0.00  0.00    +0.099 A 
ATOM     20  C   UNL     1     -11.502   8.506  15.038  0.00  0.00    +0.030 A 
ENDROOT
BRANCH  19   8
ATOM      5  O   UNL     1     -13.473   6.397  13.236  0.00  0.00    -0.275 OA
ATOM      8  N   UNL     1     -13.568   8.630  13.892  0.00  0.00    -0.281 N 
ATOM     23  C   UNL     1     -13.848   7.556  13.060  0.00  0.00    +0.227 C 
ATOM     27  H   UNL     1     -13.714   9.569  13.529  0.00  0.00    +0.155 HD
BRANCH  23  24
ATOM     24  C   UNL     1     -14.673   7.948  11.856  0.00  0.00    +0.164 C 
BRANCH  24   1
ATOM      1  S   UNL     1     -16.203   6.983  11.856  0.00  0.00    -0.155 S 
ATOM     26  C   UNL     1     -15.763   5.782  10.577  0.00  0.00    +0.085 C 
ENDBRANCH  24   1
ENDBRANCH  23  24
ENDBRANCH  19   8
BRANCH  18  21
ATOM     21  C   UNL     1     -10.942  12.439  18.409  0.00  0.00    +0.124 C 
BRANCH  21  22
ATOM     22  C   UNL     1     -11.302  12.268  16.949  0.00  0.00    +0.168 C 
BRANCH  22   4
ATOM      4  O   UNL     1     -10.137  11.926  16.209  0.00  0.00    -0.382 OA
ATOM     25  C   UNL     1      -8.972  12.520  16.765  0.00  0.00    +0.194 C 
ENDBRANCH  22   4
ENDBRANCH  21  22
ENDBRANCH  18  21
TORSDOF 6
ENDMDL
