REMARK  Name = 40779355
REMARK  10 active torsions:
REMARK  status: ('A' for Active; 'I' for Inactive)
REMARK    1  A    between atoms: O_3  and  C_29
REMARK    2  A    between atoms: N_6  and  C_20
REMARK    3  A    between atoms: N_7  and  C_17
REMARK    4  A    between atoms: C_10  and  C_16
REMARK    5  A    between atoms: C_11  and  C_17
REMARK    6  A    between atoms: C_19  and  C_22
REMARK    7  A    between atoms: C_21  and  C_23
REMARK    8  A    between atoms: C_23  and  C_24
REMARK    9  A    between atoms: C_24  and  C_26
REMARK   10  A    between atoms: C_26  and  C_29
REMARK                            x       y       z     vdW  Elec       q    Type
REMARK                         _______ _______ _______ _____ _____    ______ ____
ROOT
ATOM      5  N   UNL     1      -1.192  -2.986   1.597  0.00  0.00    -0.297 NA
ATOM      9  C   UNL     1      -0.739  -2.333  -0.883  0.00  0.00    +0.002 C 
ATOM     10  C   UNL     1       0.599  -2.568  -0.130  0.00  0.00    +0.055 C 
ATOM     11  C   UNL     1      -1.964  -1.765   1.244  0.00  0.00    +0.074 C 
ATOM     12  C   UNL     1      -1.552  -1.245  -0.150  0.00  0.00    +0.024 C 
ATOM     13  C   UNL     1      -1.544  -3.646  -0.782  0.00  0.00    +0.019 C 
ATOM     14  C   UNL     1       0.257  -2.752   1.376  0.00  0.00    +0.094 C 
ATOM     15  C   UNL     1      -1.628  -4.077   0.693  0.00  0.00    +0.085 C 
ENDROOT
BRANCH  10  16
ATOM      6  N   UNL     1       2.660  -1.711  -1.337  0.00  0.00    -0.270 N 
ATOM      8  N   UNL     1       3.577  -0.729  -1.361  0.00  0.00    -0.171 NA
ATOM     16  C   UNL     1       1.731  -1.575  -0.348  0.00  0.00    +0.044 A 
ATOM     18  C   UNL     1       2.063  -0.423   0.323  0.00  0.00    +0.053 A 
ATOM     19  C   UNL     1       3.207   0.055  -0.344  0.00  0.00    +0.100 A 
ATOM     20  C   UNL     1       2.738  -2.771  -2.316  0.00  0.00    +0.172 C 
BRANCH  19  22
ATOM      1  S   UNL     1       5.339   1.816  -0.847  0.00  0.00    -0.095 S 
ATOM     22  C   UNL     1       3.950   1.280   0.001  0.00  0.00    +0.039 A 
ATOM     25  C   UNL     1       3.617   2.127   1.035  0.00  0.00    +0.018 A 
ATOM     27  C   UNL     1       4.513   3.231   1.133  0.00  0.00    +0.008 A 
ATOM     28  C   UNL     1       5.497   3.185   0.170  0.00  0.00    +0.046 A 
ENDBRANCH  19  22
ENDBRANCH  10  16
BRANCH  11  17
ATOM     17  C   UNL     1      -1.855  -0.676   2.314  0.00  0.00    +0.123 C 
BRANCH  17   7
ATOM      2  O   UNL     1      -1.023   2.036   1.882  0.00  0.00    -0.276 OA
ATOM      7  N   UNL     1      -2.700   0.434   1.999  0.00  0.00    -0.314 N 
ATOM     21  C   UNL     1      -2.208   1.725   1.805  0.00  0.00    +0.213 C 
ATOM     30  H   UNL     1      -3.703   0.276   1.987  0.00  0.00    +0.149 HD
BRANCH  21  23
ATOM     23  C   UNL     1      -3.317   2.721   1.512  0.00  0.00    +0.096 C 
BRANCH  23  24
ATOM     24  C   UNL     1      -4.125   2.391   0.259  0.00  0.00    +0.020 C 
BRANCH  24  26
ATOM     26  C   UNL     1      -3.260   2.366  -1.002  0.00  0.00    +0.121 C 
BRANCH  26  29
ATOM      4  O   UNL     1      -5.280   1.849  -2.260  0.00  0.00    -0.251 OA
ATOM     29  C   UNL     1      -4.073   2.044  -2.236  0.00  0.00    +0.305 C 
BRANCH  29   3
ATOM      3  O   UNL     1      -3.291   1.995  -3.346  0.00  0.00    -0.481 OA
ATOM     31  H   UNL     1      -3.812   1.787  -4.151  0.00  0.00    +0.295 HD
ENDBRANCH  29   3
ENDBRANCH  26  29
ENDBRANCH  24  26
ENDBRANCH  23  24
ENDBRANCH  21  23
ENDBRANCH  17   7
ENDBRANCH  11  17
TORSDOF 9
