REMARK  Name = 11913137
REMARK  6 active torsions:
REMARK  status: ('A' for Active; 'I' for Inactive)
REMARK    1  A    between atoms: O_6  and  C_31
REMARK    2  A    between atoms: O_6  and  C_35
REMARK    3  A    between atoms: N_9  and  C_15
REMARK    4  A    between atoms: C_11  and  C_16
REMARK    5  A    between atoms: C_19  and  C_23
REMARK    6  A    between atoms: C_22  and  C_24
REMARK                            x       y       z     vdW  Elec       q    Type
REMARK                         _______ _______ _______ _____ _____    ______ ____
ROOT
ATOM      3  O   UNL     1      -2.287   4.100  -0.736  0.00  0.00    -0.270 OA
ATOM      5  O   UNL     1       4.347   1.905  -1.670  0.00  0.00    -0.270 OA
ATOM      7  N   UNL     1      -0.528   2.589  -0.401  0.00  0.00    -0.283 N 
ATOM      8  N   UNL     1       2.306   1.901  -0.535  0.00  0.00    -0.294 N 
ATOM     11  C   UNL     1      -0.028   1.336   0.182  0.00  0.00    +0.179 C 
ATOM     12  C   UNL     1       1.455   1.403   0.556  0.00  0.00    +0.140 C 
ATOM     13  C   UNL     1       0.471   3.524  -0.922  0.00  0.00    +0.128 C 
ATOM     14  C   UNL     1       1.689   2.816  -1.494  0.00  0.00    +0.127 C 
ATOM     19  C   UNL     1      -1.866   3.005  -0.365  0.00  0.00    +0.247 C 
ATOM     22  C   UNL     1       3.639   1.525  -0.738  0.00  0.00    +0.247 C 
ENDROOT
BRANCH  22  24
ATOM      1  F   UNL     1       4.709  -2.961   0.766  0.00  0.00    -0.205 F 
ATOM     24  C   UNL     1       4.260   0.610   0.232  0.00  0.00    +0.040 A 
ATOM     27  C   UNL     1       4.189  -0.769   0.035  0.00  0.00    +0.051 A 
ATOM     28  C   UNL     1       4.921   1.122   1.349  0.00  0.00    +0.013 A 
ATOM     32  C   UNL     1       4.778  -1.637   0.955  0.00  0.00    +0.124 A 
ATOM     33  C   UNL     1       5.511   0.254   2.268  0.00  0.00    +0.004 A 
ATOM     34  C   UNL     1       5.439  -1.125   2.071  0.00  0.00    +0.038 A 
ENDBRANCH  22  24
BRANCH  19  23
ATOM     23  C   UNL     1      -2.867   2.068   0.159  0.00  0.00    +0.037 A 
ATOM     25  C   UNL     1      -3.175   2.065   1.519  0.00  0.00    +0.016 A 
ATOM     26  C   UNL     1      -3.511   1.181  -0.704  0.00  0.00    +0.016 A 
ATOM     29  C   UNL     1      -4.127   1.176   2.017  0.00  0.00    +0.046 A 
ATOM     30  C   UNL     1      -4.463   0.292  -0.206  0.00  0.00    +0.046 A 
ATOM     31  C   UNL     1      -4.771   0.289   1.154  0.00  0.00    +0.120 A 
BRANCH  31   6
ATOM      6  O   UNL     1      -5.702  -0.578   1.639  0.00  0.00    -0.495 OA
ATOM     35  C   UNL     1      -6.322  -1.457   0.702  0.00  0.00    +0.277 C 
ENDBRANCH  31   6
ENDBRANCH  19  23
BRANCH  11  16
ATOM      2  O   UNL     1      -0.227   0.438  -2.023  0.00  0.00    -0.274 OA
ATOM      9  N   UNL     1      -0.515  -0.980  -0.200  0.00  0.00    -0.302 N 
ATOM     16  C   UNL     1      -0.256   0.234  -0.812  0.00  0.00    +0.236 C 
ATOM     36  H   UNL     1      -0.485  -1.036   0.815  0.00  0.00    +0.150 HD
BRANCH   9  15
ATOM      4  O   UNL     1      -2.712  -2.445   0.506  0.00  0.00    -0.274 OA
ATOM     10  N   UNL     1      -1.762  -4.363  -0.291  0.00  0.00    -0.314 N 
ATOM     15  C   UNL     1      -0.790  -2.189  -0.931  0.00  0.00    +0.159 C 
ATOM     17  C   UNL     1       0.497  -2.943  -1.235  0.00  0.00    +0.033 C 
ATOM     18  C   UNL     1       0.164  -4.293  -1.849  0.00  0.00    +0.021 C 
ATOM     20  C   UNL     1      -0.649  -5.103  -0.856  0.00  0.00    +0.104 C 
ATOM     21  C   UNL     1      -1.818  -2.992  -0.142  0.00  0.00    +0.233 C 
ATOM     37  H   UNL     1      -2.478  -4.905   0.183  0.00  0.00    +0.149 HD
ENDBRANCH   9  15
ENDBRANCH  11  16
TORSDOF 5
