REMARK  Name = 40778256
REMARK  11 active torsions:
REMARK  status: ('A' for Active; 'I' for Inactive)
REMARK    1  A    between atoms: O_2  and  C_8
REMARK    2  A    between atoms: O_3  and  C_9
REMARK    3  A    between atoms: N_5  and  C_12
REMARK    4  A    between atoms: N_5  and  C_15
REMARK    5  A    between atoms: N_6  and  C_16
REMARK    6  A    between atoms: C_10  and  C_12
REMARK    7  A    between atoms: C_11  and  C_13
REMARK    8  A    between atoms: C_13  and  C_14
REMARK    9  A    between atoms: C_15  and  C_17
REMARK   10  A    between atoms: C_16  and  C_18
REMARK   11  A    between atoms: C_16  and  C_19
REMARK                            x       y       z     vdW  Elec       q    Type
REMARK                         _______ _______ _______ _____ _____    ______ ____
ROOT
ATOM      1  O   UNL     1      -1.272   0.247  -1.023  0.00  0.00    -0.366 OA
ATOM      8  C   UNL     1       0.249   1.879  -0.198  0.00  0.00    +0.175 C 
ATOM      9  C   UNL     1      -0.873   1.687   0.801  0.00  0.00    +0.175 C 
ATOM     10  C   UNL     1       0.122   0.630  -1.062  0.00  0.00    +0.163 C 
ATOM     11  C   UNL     1      -1.958   1.081  -0.073  0.00  0.00    +0.158 C 
ENDROOT
BRANCH   8   2
ATOM      2  O   UNL     1      -0.010   3.016  -1.021  0.00  0.00    -0.387 OA
ATOM     24  H   UNL     1       0.716   3.080  -1.665  0.00  0.00    +0.210 HD
ENDBRANCH   8   2
BRANCH   9   3
ATOM      3  O   UNL     1      -1.293   2.890   1.409  0.00  0.00    -0.387 OA
ATOM     25  H   UNL     1      -0.520   3.277   1.853  0.00  0.00    +0.210 HD
ENDBRANCH   9   3
BRANCH  10  12
ATOM     12  C   UNL     1       0.942  -0.542  -0.540  0.00  0.00    +0.115 C 
BRANCH  12   5
ATOM      5  N   UNL     1       2.356  -0.200  -0.467  0.00  0.00    -0.308 NA
ATOM     26  H   UNL     1       2.687   0.060  -1.396  0.00  0.00    +0.122 HD
BRANCH   5  15
ATOM     15  C   UNL     1       3.137  -1.319   0.043  0.00  0.00    +0.136 C 
BRANCH  15  17
ATOM      7  N   UNL     1       5.085  -0.723   1.373  0.00  0.00    -0.259 NA
ATOM     17  C   UNL     1       4.602  -0.983   0.138  0.00  0.00    +0.055 A 
ATOM     20  C   UNL     1       5.368  -0.958  -1.016  0.00  0.00    +0.024 A 
ATOM     21  C   UNL     1       6.718  -0.646  -0.894  0.00  0.00    +0.003 A 
ATOM     22  C   UNL     1       6.401  -0.423   1.452  0.00  0.00    +0.111 A 
ATOM     23  C   UNL     1       7.252  -0.372   0.360  0.00  0.00    +0.020 A 
ENDBRANCH  15  17
ENDBRANCH   5  15
ENDBRANCH  12   5
ENDBRANCH  10  12
BRANCH  11  13
ATOM     13  C   UNL     1      -2.964   0.251   0.704  0.00  0.00    +0.130 C 
BRANCH  13  14
ATOM      4  O   UNL     1      -4.420   0.410  -1.221  0.00  0.00    -0.276 OA
ATOM      6  N   UNL     1      -5.119  -0.809   0.630  0.00  0.00    -0.313 N 
ATOM     14  C   UNL     1      -4.229  -0.023  -0.088  0.00  0.00    +0.216 C 
ATOM     27  H   UNL     1      -4.836  -1.164   1.540  0.00  0.00    +0.149 HD
BRANCH   6  16
ATOM     16  C   UNL     1      -6.404  -1.219   0.113  0.00  0.00    +0.067 C 
ATOM     18  C   UNL     1      -7.413  -1.349   1.246  0.00  0.00    +0.027 C 
ATOM     19  C   UNL     1      -6.277  -2.523  -0.664  0.00  0.00    +0.027 C 
ENDBRANCH   6  16
ENDBRANCH  13  14
ENDBRANCH  11  13
TORSDOF 9
