MODEL 1
REMARK VINA RESULT:      -6.5      0.000      0.000
REMARK  Name = 45784091
REMARK  12 active torsions:
REMARK  status: ('A' for Active; 'I' for Inactive)
REMARK    1  A    between atoms: N_2  and  C_15
REMARK    2  A    between atoms: N_2  and  C_21
REMARK    3  A    between atoms: N_5  and  C_31
REMARK    4  A    between atoms: C_8  and  C_12
REMARK    5  A    between atoms: C_9  and  C_15
REMARK    6  A    between atoms: C_11  and  C_16
REMARK    7  A    between atoms: C_12  and  C_17
REMARK    8  A    between atoms: C_12  and  C_18
REMARK    9  A    between atoms: C_13  and  C_19
REMARK   10  A    between atoms: C_16  and  C_20
REMARK   11  A    between atoms: C_21  and  C_22
REMARK   12  A    between atoms: C_23  and  C_26
REMARK                            x       y       z     vdW  Elec       q    Type
REMARK                         _______ _______ _______ _____ _____    ______ ____
ROOT
ATOM      8  C   UNL     1     -12.296   8.550  18.295  0.00  0.00    +0.000 C 
ATOM      9  C   UNL     1     -11.656   9.748  19.034  0.00  0.00    +0.029 C 
ATOM     10  C   UNL     1     -12.318   7.310  19.198  0.00  0.00    +0.012 C 
ATOM     11  C   UNL     1     -13.055   7.541  20.535  0.00  0.00    +0.024 C 
ATOM     13  C   UNL     1     -12.780   8.911  21.138  0.00  0.00    -0.073 C 
ATOM     14  C   UNL     1     -12.143   9.879  20.455  0.00  0.00    -0.023 C 
ATOM     19  C   UNL     1     -13.302   9.177  22.523  0.00  0.00    +0.039 C 
ENDROOT
BRANCH   8  12
ATOM     12  C   UNL     1     -13.703   8.894  17.788  0.00  0.00    -0.013 C 
ATOM     17  C   UNL     1     -13.840  10.398  17.574  0.00  0.00    +0.007 C 
ATOM     18  C   UNL     1     -14.004   8.135  16.499  0.00  0.00    +0.007 C 
ENDBRANCH   8  12
BRANCH   9  15
ATOM     15  C   UNL     1     -10.126   9.663  19.033  0.00  0.00    +0.089 C 
BRANCH  15   2
ATOM      2  N   UNL     1      -9.626   9.429  17.689  0.00  0.00    -0.311 NA
ATOM     32  H   UNL     1     -10.023   8.573  17.303  0.00  0.00    +0.122 HD
BRANCH   2  21
ATOM     21  C   UNL     1      -9.927  10.556  16.814  0.00  0.00    +0.117 C 
BRANCH  21  22
ATOM      6  N   UNL     1     -12.130  10.689  13.738  0.00  0.00    -0.263 NA
ATOM     22  C   UNL     1     -10.664  10.121  15.574  0.00  0.00    -0.016 A 
ATOM     24  C   UNL     1     -10.584   8.812  15.116  0.00  0.00    +0.008 A 
ATOM     25  C   UNL     1     -11.443  11.014  14.856  0.00  0.00    +0.115 A 
ATOM     27  C   UNL     1     -11.277   8.439  13.968  0.00  0.00    +0.020 A 
ATOM     29  C   UNL     1     -12.029   9.406  13.322  0.00  0.00    +0.111 A 
ENDBRANCH  21  22
ENDBRANCH   2  21
ENDBRANCH  15   2
ENDBRANCH   9  15
BRANCH  11  16
ATOM     16  C   UNL     1     -12.711   6.390  21.490  0.00  0.00    +0.105 C 
BRANCH  16  20
ATOM      1  O   UNL     1     -14.127   5.502  23.267  0.00  0.00    -0.419 OA
ATOM      3  N   UNL     1     -14.897   5.114  21.203  0.00  0.00    -0.112 NA
ATOM      4  N   UNL     1     -15.789   4.562  22.103  0.00  0.00    -0.106 NA
ATOM     20  C   UNL     1     -13.944   5.652  21.927  0.00  0.00    +0.218 A 
ATOM     23  C   UNL     1     -15.300   4.812  23.295  0.00  0.00    +0.266 A 
BRANCH  23  26
ATOM      5  N   UNL     1     -16.892   5.116  25.155  0.00  0.00    -0.329 N 
ATOM      7  N   UNL     1     -16.576   3.272  26.350  0.00  0.00    -0.243 NA
ATOM     26  C   UNL     1     -15.930   4.403  24.495  0.00  0.00    +0.125 A 
ATOM     28  C   UNL     1     -15.753   3.269  25.252  0.00  0.00    +0.143 A 
ATOM     30  C   UNL     1     -17.248   4.398  26.261  0.00  0.00    +0.199 A 
ATOM     31  C   UNL     1     -17.445   6.395  24.774  0.00  0.00    +0.150 C 
ENDBRANCH  23  26
ENDBRANCH  16  20
ENDBRANCH  11  16
TORSDOF 8
ENDMDL
MODEL 2
REMARK VINA RESULT:      -6.2     24.747     27.468
REMARK  Name = 45784091
REMARK  12 active torsions:
REMARK  status: ('A' for Active; 'I' for Inactive)
REMARK    1  A    between atoms: N_2  and  C_15
REMARK    2  A    between atoms: N_2  and  C_21
REMARK    3  A    between atoms: N_5  and  C_31
REMARK    4  A    between atoms: C_8  and  C_12
REMARK    5  A    between atoms: C_9  and  C_15
REMARK    6  A    between atoms: C_11  and  C_16
REMARK    7  A    between atoms: C_12  and  C_17
REMARK    8  A    between atoms: C_12  and  C_18
REMARK    9  A    between atoms: C_13  and  C_19
REMARK   10  A    between atoms: C_16  and  C_20
REMARK   11  A    between atoms: C_21  and  C_22
REMARK   12  A    between atoms: C_23  and  C_26
REMARK                            x       y       z     vdW  Elec       q    Type
REMARK                         _______ _______ _______ _____ _____    ______ ____
ROOT
ATOM      8  C   UNL     1      14.129   8.473  19.705  0.00  0.00    +0.000 C 
ATOM      9  C   UNL     1      13.111   7.426  19.196  0.00  0.00    +0.029 C 
ATOM     10  C   UNL     1      13.401   9.687  20.298  0.00  0.00    +0.012 C 
ATOM     11  C   UNL     1      12.429   9.319  21.439  0.00  0.00    +0.024 C 
ATOM     13  C   UNL     1      11.661   8.031  21.176  0.00  0.00    -0.073 C 
ATOM     14  C   UNL     1      11.975   7.205  20.161  0.00  0.00    -0.023 C 
ATOM     19  C   UNL     1      10.561   7.671  22.136  0.00  0.00    +0.039 C 
ENDROOT
BRANCH   8  12
ATOM     12  C   UNL     1      15.102   7.858  20.720  0.00  0.00    -0.013 C 
ATOM     17  C   UNL     1      15.626   6.519  20.211  0.00  0.00    +0.007 C 
ATOM     18  C   UNL     1      16.254   8.818  21.001  0.00  0.00    +0.007 C 
ENDBRANCH   8  12
BRANCH   9  15
ATOM     15  C   UNL     1      12.540   7.811  17.826  0.00  0.00    +0.089 C 
BRANCH  15   2
ATOM      2  N   UNL     1      13.610   8.060  16.876  0.00  0.00    -0.311 NA
ATOM     32  H   UNL     1      13.806   7.222  16.330  0.00  0.00    +0.122 HD
BRANCH   2  21
ATOM     21  C   UNL     1      13.275   9.167  15.988  0.00  0.00    +0.117 C 
BRANCH  21  22
ATOM      6  N   UNL     1      16.117  11.401  14.863  0.00  0.00    -0.263 NA
ATOM     22  C   UNL     1      14.332  10.240  16.008  0.00  0.00    -0.016 A 
ATOM     24  C   UNL     1      14.516  11.043  17.127  0.00  0.00    +0.008 A 
ATOM     25  C   UNL     1      15.150  10.458  14.911  0.00  0.00    +0.115 A 
ATOM     27  C   UNL     1      15.501  12.025  17.117  0.00  0.00    +0.020 A 
ATOM     29  C   UNL     1      16.267  12.163  15.971  0.00  0.00    +0.111 A 
ENDBRANCH  21  22
ENDBRANCH   2  21
ENDBRANCH  15   2
ENDBRANCH   9  15
BRANCH  11  16
ATOM     16  C   UNL     1      11.508  10.517  21.704  0.00  0.00    +0.105 C 
BRANCH  16  20
ATOM      1  O   UNL     1      12.465  11.876  23.491  0.00  0.00    -0.419 OA
ATOM      3  N   UNL     1      10.819  10.515  24.157  0.00  0.00    -0.112 NA
ATOM      4  N   UNL     1      11.266  11.218  25.261  0.00  0.00    -0.106 NA
ATOM     20  C   UNL     1      11.548  10.931  23.148  0.00  0.00    +0.218 A 
ATOM     23  C   UNL     1      12.226  11.999  24.826  0.00  0.00    +0.266 A 
BRANCH  23  26
ATOM      5  N   UNL     1      14.160  12.615  26.229  0.00  0.00    -0.329 N 
ATOM      7  N   UNL     1      13.621  14.662  26.899  0.00  0.00    -0.243 NA
ATOM     26  C   UNL     1      12.945  12.887  25.662  0.00  0.00    +0.125 A 
ATOM     28  C   UNL     1      12.634  14.155  26.090  0.00  0.00    +0.143 A 
ATOM     30  C   UNL     1      14.525  13.709  26.961  0.00  0.00    +0.199 A 
ATOM     31  C   UNL     1      14.935  11.403  26.094  0.00  0.00    +0.150 C 
ENDBRANCH  23  26
ENDBRANCH  16  20
ENDBRANCH  11  16
TORSDOF 8
ENDMDL
MODEL 3
REMARK VINA RESULT:      -6.2     26.263     30.159
REMARK  Name = 45784091
REMARK  12 active torsions:
REMARK  status: ('A' for Active; 'I' for Inactive)
REMARK    1  A    between atoms: N_2  and  C_15
REMARK    2  A    between atoms: N_2  and  C_21
REMARK    3  A    between atoms: N_5  and  C_31
REMARK    4  A    between atoms: C_8  and  C_12
REMARK    5  A    between atoms: C_9  and  C_15
REMARK    6  A    between atoms: C_11  and  C_16
REMARK    7  A    between atoms: C_12  and  C_17
REMARK    8  A    between atoms: C_12  and  C_18
REMARK    9  A    between atoms: C_13  and  C_19
REMARK   10  A    between atoms: C_16  and  C_20
REMARK   11  A    between atoms: C_21  and  C_22
REMARK   12  A    between atoms: C_23  and  C_26
REMARK                            x       y       z     vdW  Elec       q    Type
REMARK                         _______ _______ _______ _____ _____    ______ ____
ROOT
ATOM      8  C   UNL     1       9.299   6.085   7.282  0.00  0.00    +0.000 C 
ATOM      9  C   UNL     1       9.953   7.418   7.715  0.00  0.00    +0.029 C 
ATOM     10  C   UNL     1       9.350   5.931   5.756  0.00  0.00    +0.012 C 
ATOM     11  C   UNL     1      10.782   6.011   5.182  0.00  0.00    +0.024 C 
ATOM     13  C   UNL     1      11.640   7.065   5.865  0.00  0.00    -0.073 C 
ATOM     14  C   UNL     1      11.246   7.691   6.989  0.00  0.00    -0.023 C 
ATOM     19  C   UNL     1      12.991   7.352   5.271  0.00  0.00    +0.039 C 
ENDROOT
BRANCH   8  12
ATOM     12  C   UNL     1       9.953   4.888   7.984  0.00  0.00    -0.013 C 
ATOM     17  C   UNL     1       9.488   4.800   9.434  0.00  0.00    +0.007 C 
ATOM     18  C   UNL     1       9.637   3.596   7.236  0.00  0.00    +0.007 C 
ENDBRANCH   8  12
BRANCH   9  15
ATOM     15  C   UNL     1       9.005   8.605   7.517  0.00  0.00    +0.089 C 
BRANCH  15   2
ATOM      2  N   UNL     1       9.707   9.730   6.924  0.00  0.00    -0.311 NA
ATOM     32  H   UNL     1      10.552   9.415   6.449  0.00  0.00    +0.122 HD
BRANCH   2  21
ATOM     21  C   UNL     1       8.849  10.452   5.992  0.00  0.00    +0.117 C 
BRANCH  21  22
ATOM      6  N   UNL     1      10.221   9.690   2.547  0.00  0.00    -0.263 NA
ATOM     22  C   UNL     1       8.953   9.901   4.594  0.00  0.00    -0.016 A 
ATOM     24  C   UNL     1       7.936   9.124   4.054  0.00  0.00    +0.008 A 
ATOM     25  C   UNL     1      10.065  10.153   3.807  0.00  0.00    +0.115 A 
ATOM     27  C   UNL     1       8.059   8.629   2.759  0.00  0.00    +0.020 A 
ATOM     29  C   UNL     1       9.210   8.938   2.054  0.00  0.00    +0.111 A 
ENDBRANCH  21  22
ENDBRANCH   2  21
ENDBRANCH  15   2
ENDBRANCH   9  15
BRANCH  11  16
ATOM     16  C   UNL     1      10.689   6.210   3.663  0.00  0.00    +0.105 C 
BRANCH  16  20
ATOM      1  O   UNL     1      12.507   5.520   2.189  0.00  0.00    -0.419 OA
ATOM      3  N   UNL     1      11.195   3.842   2.870  0.00  0.00    -0.112 NA
ATOM      4  N   UNL     1      12.173   3.313   2.049  0.00  0.00    -0.106 NA
ATOM     20  C   UNL     1      11.429   5.132   2.923  0.00  0.00    +0.218 A 
ATOM     23  C   UNL     1      12.915   4.328   1.674  0.00  0.00    +0.266 A 
BRANCH  23  26
ATOM      5  N   UNL     1      14.021   4.444  -0.529  0.00  0.00    -0.329 N 
ATOM      7  N   UNL     1      16.098   3.826  -0.045  0.00  0.00    -0.243 NA
ATOM     26  C   UNL     1      14.034   4.197   0.816  0.00  0.00    +0.125 A 
ATOM     28  C   UNL     1      15.326   3.818   1.091  0.00  0.00    +0.143 A 
ATOM     30  C   UNL     1      15.281   4.208  -1.001  0.00  0.00    +0.199 A 
ATOM     31  C   UNL     1      12.897   4.875  -1.326  0.00  0.00    +0.150 C 
ENDBRANCH  23  26
ENDBRANCH  16  20
ENDBRANCH  11  16
TORSDOF 8
ENDMDL
MODEL 4
REMARK VINA RESULT:      -6.2     20.302     22.831
REMARK  Name = 45784091
REMARK  12 active torsions:
REMARK  status: ('A' for Active; 'I' for Inactive)
REMARK    1  A    between atoms: N_2  and  C_15
REMARK    2  A    between atoms: N_2  and  C_21
REMARK    3  A    between atoms: N_5  and  C_31
REMARK    4  A    between atoms: C_8  and  C_12
REMARK    5  A    between atoms: C_9  and  C_15
REMARK    6  A    between atoms: C_11  and  C_16
REMARK    7  A    between atoms: C_12  and  C_17
REMARK    8  A    between atoms: C_12  and  C_18
REMARK    9  A    between atoms: C_13  and  C_19
REMARK   10  A    between atoms: C_16  and  C_20
REMARK   11  A    between atoms: C_21  and  C_22
REMARK   12  A    between atoms: C_23  and  C_26
REMARK                            x       y       z     vdW  Elec       q    Type
REMARK                         _______ _______ _______ _____ _____    ______ ____
ROOT
ATOM      8  C   UNL     1      -3.709 -11.962  13.275  0.00  0.00    +0.000 C 
ATOM      9  C   UNL     1      -2.292 -11.368  13.099  0.00  0.00    +0.029 C 
ATOM     10  C   UNL     1      -4.776 -10.882  13.052  0.00  0.00    +0.012 C 
ATOM     11  C   UNL     1      -4.674 -10.197  11.672  0.00  0.00    +0.024 C 
ATOM     13  C   UNL     1      -3.238  -9.942  11.239  0.00  0.00    -0.073 C 
ATOM     14  C   UNL     1      -2.187 -10.464  11.897  0.00  0.00    -0.023 C 
ATOM     19  C   UNL     1      -3.023  -9.122   9.996  0.00  0.00    +0.039 C 
ENDROOT
BRANCH   8  12
ATOM     12  C   UNL     1      -3.931 -13.162  12.345  0.00  0.00    -0.013 C 
ATOM     17  C   UNL     1      -2.735 -14.107  12.399  0.00  0.00    +0.007 C 
ATOM     18  C   UNL     1      -5.216 -13.895  12.719  0.00  0.00    +0.007 C 
ENDBRANCH   8  12
BRANCH   9  15
ATOM     15  C   UNL     1      -1.841 -10.601  14.347  0.00  0.00    +0.089 C 
BRANCH  15   2
ATOM      2  N   UNL     1      -1.941 -11.439  15.529  0.00  0.00    -0.311 NA
ATOM     32  H   UNL     1      -1.020 -11.773  15.810  0.00  0.00    +0.122 HD
BRANCH   2  21
ATOM     21  C   UNL     1      -2.568 -10.718  16.631  0.00  0.00    +0.117 C 
BRANCH  21  22
ATOM      6  N   UNL     1      -6.309 -10.167  16.803  0.00  0.00    -0.263 NA
ATOM     22  C   UNL     1      -4.043 -11.006  16.721  0.00  0.00    -0.016 A 
ATOM     24  C   UNL     1      -4.515 -12.311  16.804  0.00  0.00    +0.008 A 
ATOM     25  C   UNL     1      -4.973  -9.978  16.724  0.00  0.00    +0.115 A 
ATOM     27  C   UNL     1      -5.884 -12.546  16.887  0.00  0.00    +0.020 A 
ATOM     29  C   UNL     1      -6.731 -11.450  16.883  0.00  0.00    +0.111 A 
ENDBRANCH  21  22
ENDBRANCH   2  21
ENDBRANCH  15   2
ENDBRANCH   9  15
BRANCH  11  16
ATOM     16  C   UNL     1      -5.525  -8.920  11.695  0.00  0.00    +0.105 C 
BRANCH  16  20
ATOM      1  O   UNL     1      -6.390  -8.425   9.468  0.00  0.00    -0.419 OA
ATOM      3  N   UNL     1      -7.835  -9.505  10.792  0.00  0.00    -0.112 NA
ATOM      4  N   UNL     1      -8.450  -9.290   9.572  0.00  0.00    -0.106 NA
ATOM     20  C   UNL     1      -6.635  -8.983  10.685  0.00  0.00    +0.218 A 
ATOM     23  C   UNL     1      -7.571  -8.657   8.832  0.00  0.00    +0.266 A 
BRANCH  23  26
ATOM      5  N   UNL     1      -7.242  -8.803   6.391  0.00  0.00    -0.329 N 
ATOM      7  N   UNL     1      -8.602  -7.219   5.637  0.00  0.00    -0.243 NA
ATOM     26  C   UNL     1      -7.825  -8.253   7.499  0.00  0.00    +0.125 A 
ATOM     28  C   UNL     1      -8.660  -7.278   7.008  0.00  0.00    +0.143 A 
ATOM     30  C   UNL     1      -7.739  -8.150   5.299  0.00  0.00    +0.199 A 
ATOM     31  C   UNL     1      -6.276  -9.877   6.355  0.00  0.00    +0.150 C 
ENDBRANCH  23  26
ENDBRANCH  16  20
ENDBRANCH  11  16
TORSDOF 8
ENDMDL
MODEL 5
REMARK VINA RESULT:      -6.1     20.434     21.955
REMARK  Name = 45784091
REMARK  12 active torsions:
REMARK  status: ('A' for Active; 'I' for Inactive)
REMARK    1  A    between atoms: N_2  and  C_15
REMARK    2  A    between atoms: N_2  and  C_21
REMARK    3  A    between atoms: N_5  and  C_31
REMARK    4  A    between atoms: C_8  and  C_12
REMARK    5  A    between atoms: C_9  and  C_15
REMARK    6  A    between atoms: C_11  and  C_16
REMARK    7  A    between atoms: C_12  and  C_17
REMARK    8  A    between atoms: C_12  and  C_18
REMARK    9  A    between atoms: C_13  and  C_19
REMARK   10  A    between atoms: C_16  and  C_20
REMARK   11  A    between atoms: C_21  and  C_22
REMARK   12  A    between atoms: C_23  and  C_26
REMARK                            x       y       z     vdW  Elec       q    Type
REMARK                         _______ _______ _______ _____ _____    ______ ____
ROOT
ATOM      8  C   UNL     1      -5.749 -10.473  10.429  0.00  0.00    +0.000 C 
ATOM      9  C   UNL     1      -4.925 -10.097   9.176  0.00  0.00    +0.029 C 
ATOM     10  C   UNL     1      -4.874 -11.223  11.443  0.00  0.00    +0.012 C 
ATOM     11  C   UNL     1      -3.619 -10.432  11.871  0.00  0.00    +0.024 C 
ATOM     13  C   UNL     1      -2.967  -9.680  10.720  0.00  0.00    -0.073 C 
ATOM     14  C   UNL     1      -3.562  -9.552   9.520  0.00  0.00    -0.023 C 
ATOM     19  C   UNL     1      -1.641  -9.021  10.984  0.00  0.00    +0.039 C 
ENDROOT
BRANCH   8  12
ATOM     12  C   UNL     1      -6.396  -9.235  11.064  0.00  0.00    -0.013 C 
ATOM     17  C   UNL     1      -7.415  -8.618  10.110  0.00  0.00    +0.007 C 
ATOM     18  C   UNL     1      -7.052  -9.600  12.393  0.00  0.00    +0.007 C 
ENDBRANCH   8  12
BRANCH   9  15
ATOM     15  C   UNL     1      -4.766 -11.288   8.225  0.00  0.00    +0.089 C 
BRANCH  15   2
ATOM      2  N   UNL     1      -5.079 -10.901   6.860  0.00  0.00    -0.311 NA
ATOM     32  H   UNL     1      -5.447 -11.695   6.338  0.00  0.00    +0.122 HD
BRANCH   2  21
ATOM     21  C   UNL     1      -6.034  -9.800   6.833  0.00  0.00    +0.117 C 
BRANCH  21  22
ATOM      6  N   UNL     1      -7.263 -10.633   3.351  0.00  0.00    -0.263 NA
ATOM     22  C   UNL     1      -6.676  -9.649   5.479  0.00  0.00    -0.016 A 
ATOM     24  C   UNL     1      -7.259  -8.448   5.094  0.00  0.00    +0.008 A 
ATOM     25  C   UNL     1      -6.704 -10.703   4.580  0.00  0.00    +0.115 A 
ATOM     27  C   UNL     1      -7.844  -8.337   3.836  0.00  0.00    +0.020 A 
ATOM     29  C   UNL     1      -7.820  -9.449   3.010  0.00  0.00    +0.111 A 
ENDBRANCH  21  22
ENDBRANCH   2  21
ENDBRANCH  15   2
ENDBRANCH   9  15
BRANCH  11  16
ATOM     16  C   UNL     1      -2.653 -11.392  12.579  0.00  0.00    +0.105 C 
BRANCH  16  20
ATOM      1  O   UNL     1      -3.711 -11.344  14.777  0.00  0.00    -0.419 OA
ATOM      3  N   UNL     1      -1.580 -10.663  14.772  0.00  0.00    -0.112 NA
ATOM      4  N   UNL     1      -2.051 -10.585  16.070  0.00  0.00    -0.106 NA
ATOM     20  C   UNL     1      -2.583 -11.110  14.053  0.00  0.00    +0.218 A 
ATOM     23  C   UNL     1      -3.298 -10.991  16.025  0.00  0.00    +0.266 A 
BRANCH  23  26
ATOM      5  N   UNL     1      -5.334 -10.414  17.293  0.00  0.00    -0.329 N 
ATOM      7  N   UNL     1      -5.034 -11.521  19.194  0.00  0.00    -0.243 NA
ATOM     26  C   UNL     1      -4.134 -11.057  17.166  0.00  0.00    +0.125 A 
ATOM     28  C   UNL     1      -3.971 -11.734  18.351  0.00  0.00    +0.143 A 
ATOM     30  C   UNL     1      -5.835 -10.722  18.526  0.00  0.00    +0.199 A 
ATOM     31  C   UNL     1      -5.974  -9.560  16.320  0.00  0.00    +0.150 C 
ENDBRANCH  23  26
ENDBRANCH  16  20
ENDBRANCH  11  16
TORSDOF 8
ENDMDL
MODEL 6
REMARK VINA RESULT:      -6.0      1.590      2.164
REMARK  Name = 45784091
REMARK  12 active torsions:
REMARK  status: ('A' for Active; 'I' for Inactive)
REMARK    1  A    between atoms: N_2  and  C_15
REMARK    2  A    between atoms: N_2  and  C_21
REMARK    3  A    between atoms: N_5  and  C_31
REMARK    4  A    between atoms: C_8  and  C_12
REMARK    5  A    between atoms: C_9  and  C_15
REMARK    6  A    between atoms: C_11  and  C_16
REMARK    7  A    between atoms: C_12  and  C_17
REMARK    8  A    between atoms: C_12  and  C_18
REMARK    9  A    between atoms: C_13  and  C_19
REMARK   10  A    between atoms: C_16  and  C_20
REMARK   11  A    between atoms: C_21  and  C_22
REMARK   12  A    between atoms: C_23  and  C_26
REMARK                            x       y       z     vdW  Elec       q    Type
REMARK                         _______ _______ _______ _____ _____    ______ ____
ROOT
ATOM      8  C   UNL     1     -12.300   8.575  18.204  0.00  0.00    +0.000 C 
ATOM      9  C   UNL     1     -11.602   9.784  18.872  0.00  0.00    +0.029 C 
ATOM     10  C   UNL     1     -12.329   7.376  19.161  0.00  0.00    +0.012 C 
ATOM     11  C   UNL     1     -13.016   7.685  20.509  0.00  0.00    +0.024 C 
ATOM     13  C   UNL     1     -12.682   9.070  21.043  0.00  0.00    -0.073 C 
ATOM     14  C   UNL     1     -12.039   9.989  20.300  0.00  0.00    -0.023 C 
ATOM     19  C   UNL     1     -13.151   9.410  22.431  0.00  0.00    +0.039 C 
ENDROOT
BRANCH   8  12
ATOM     12  C   UNL     1     -13.712   8.940  17.727  0.00  0.00    -0.013 C 
ATOM     17  C   UNL     1     -13.814  10.438  17.459  0.00  0.00    +0.007 C 
ATOM     18  C   UNL     1     -14.074   8.141  16.478  0.00  0.00    +0.007 C 
ENDBRANCH   8  12
BRANCH   9  15
ATOM     15  C   UNL     1     -10.076   9.652  18.826  0.00  0.00    +0.089 C 
BRANCH  15   2
ATOM      2  N   UNL     1      -9.627   9.340  17.480  0.00  0.00    -0.311 NA
ATOM     32  H   UNL     1     -10.034   8.461  17.162  0.00  0.00    +0.122 HD
BRANCH   2  21
ATOM     21  C   UNL     1      -9.968  10.411  16.552  0.00  0.00    +0.117 C 
BRANCH  21  22
ATOM      6  N   UNL     1     -12.190  10.325  13.489  0.00  0.00    -0.263 NA
ATOM     22  C   UNL     1     -10.699   9.893  15.342  0.00  0.00    -0.016 A 
ATOM     24  C   UNL     1     -10.586   8.564  14.952  0.00  0.00    +0.008 A 
ATOM     25  C   UNL     1     -11.507  10.726  14.583  0.00  0.00    +0.115 A 
ATOM     27  C   UNL     1     -11.275   8.113  13.830  0.00  0.00    +0.020 A 
ATOM     29  C   UNL     1     -12.056   9.025  13.140  0.00  0.00    +0.111 A 
ENDBRANCH  21  22
ENDBRANCH   2  21
ENDBRANCH  15   2
ENDBRANCH   9  15
BRANCH  11  16
ATOM     16  C   UNL     1     -12.674   6.565  21.500  0.00  0.00    +0.105 C 
BRANCH  16  20
ATOM      1  O   UNL     1     -15.037   6.049  21.183  0.00  0.00    -0.419 OA
ATOM      3  N   UNL     1     -14.017   4.768  22.707  0.00  0.00    -0.112 NA
ATOM      4  N   UNL     1     -15.339   4.370  22.631  0.00  0.00    -0.106 NA
ATOM     20  C   UNL     1     -13.887   5.749  21.846  0.00  0.00    +0.218 A 
ATOM     23  C   UNL     1     -15.896   5.145  21.730  0.00  0.00    +0.266 A 
BRANCH  23  26
ATOM      5  N   UNL     1     -18.309   5.475  22.129  0.00  0.00    -0.329 N 
ATOM      7  N   UNL     1     -19.209   4.654  20.273  0.00  0.00    -0.243 NA
ATOM     26  C   UNL     1     -17.260   5.051  21.360  0.00  0.00    +0.125 A 
ATOM     28  C   UNL     1     -17.841   4.549  20.220  0.00  0.00    +0.143 A 
ATOM     30  C   UNL     1     -19.457   5.215  21.434  0.00  0.00    +0.199 A 
ATOM     31  C   UNL     1     -18.242   6.086  23.436  0.00  0.00    +0.150 C 
ENDBRANCH  23  26
ENDBRANCH  16  20
ENDBRANCH  11  16
TORSDOF 8
ENDMDL
MODEL 7
REMARK VINA RESULT:      -6.0     26.013     30.241
REMARK  Name = 45784091
REMARK  12 active torsions:
REMARK  status: ('A' for Active; 'I' for Inactive)
REMARK    1  A    between atoms: N_2  and  C_15
REMARK    2  A    between atoms: N_2  and  C_21
REMARK    3  A    between atoms: N_5  and  C_31
REMARK    4  A    between atoms: C_8  and  C_12
REMARK    5  A    between atoms: C_9  and  C_15
REMARK    6  A    between atoms: C_11  and  C_16
REMARK    7  A    between atoms: C_12  and  C_17
REMARK    8  A    between atoms: C_12  and  C_18
REMARK    9  A    between atoms: C_13  and  C_19
REMARK   10  A    between atoms: C_16  and  C_20
REMARK   11  A    between atoms: C_21  and  C_22
REMARK   12  A    between atoms: C_23  and  C_26
REMARK                            x       y       z     vdW  Elec       q    Type
REMARK                         _______ _______ _______ _____ _____    ______ ____
ROOT
ATOM      8  C   UNL     1       9.330   9.150   2.532  0.00  0.00    +0.000 C 
ATOM      9  C   UNL     1       8.480   9.469   3.784  0.00  0.00    +0.029 C 
ATOM     10  C   UNL     1      10.400   8.101   2.861  0.00  0.00    +0.012 C 
ATOM     11  C   UNL     1       9.816   6.791   3.432  0.00  0.00    +0.024 C 
ATOM     13  C   UNL     1       8.663   7.024   4.397  0.00  0.00    -0.073 C 
ATOM     14  C   UNL     1       8.088   8.231   4.548  0.00  0.00    -0.023 C 
ATOM     19  C   UNL     1       8.135   5.833   5.148  0.00  0.00    +0.039 C 
ENDROOT
BRANCH   8  12
ATOM     12  C   UNL     1       8.449   8.697   1.359  0.00  0.00    -0.013 C 
ATOM     17  C   UNL     1       7.226   9.600   1.232  0.00  0.00    +0.007 C 
ATOM     18  C   UNL     1       9.253   8.690   0.062  0.00  0.00    +0.007 C 
ENDBRANCH   8  12
BRANCH   9  15
ATOM     15  C   UNL     1       9.203  10.436   4.728  0.00  0.00    +0.089 C 
BRANCH  15   2
ATOM      2  N   UNL     1       8.689  10.313   6.081  0.00  0.00    -0.311 NA
ATOM     32  H   UNL     1       8.044   9.527   6.149  0.00  0.00    +0.122 HD
BRANCH   2  21
ATOM     21  C   UNL     1       9.774  10.153   7.041  0.00  0.00    +0.117 C 
BRANCH  21  22
ATOM      6  N   UNL     1       9.130   6.692   8.432  0.00  0.00    -0.263 NA
ATOM     22  C   UNL     1       9.986   8.709   7.411  0.00  0.00    -0.016 A 
ATOM     24  C   UNL     1      11.174   8.057   7.101  0.00  0.00    +0.008 A 
ATOM     25  C   UNL     1       9.003   7.988   8.071  0.00  0.00    +0.115 A 
ATOM     27  C   UNL     1      11.342   6.722   7.456  0.00  0.00    +0.020 A 
ATOM     29  C   UNL     1      10.299   6.091   8.114  0.00  0.00    +0.111 A 
ENDBRANCH  21  22
ENDBRANCH   2  21
ENDBRANCH  15   2
ENDBRANCH   9  15
BRANCH  11  16
ATOM     16  C   UNL     1      10.958   5.976   4.053  0.00  0.00    +0.105 C 
BRANCH  16  20
ATOM      1  O   UNL     1      12.665   5.409   2.406  0.00  0.00    -0.419 OA
ATOM      3  N   UNL     1      11.133   3.810   2.723  0.00  0.00    -0.112 NA
ATOM      4  N   UNL     1      12.031   3.359   1.772  0.00  0.00    -0.106 NA
ATOM     20  C   UNL     1      11.543   5.009   3.064  0.00  0.00    +0.218 A 
ATOM     23  C   UNL     1      12.907   4.324   1.618  0.00  0.00    +0.266 A 
BRANCH  23  26
ATOM      5  N   UNL     1      13.932   4.527  -0.617  0.00  0.00    -0.329 N 
ATOM      7  N   UNL     1      16.041   3.955  -0.219  0.00  0.00    -0.243 NA
ATOM     26  C   UNL     1      13.998   4.247   0.720  0.00  0.00    +0.125 A 
ATOM     28  C   UNL     1      15.309   3.897   0.941  0.00  0.00    +0.143 A 
ATOM     30  C   UNL     1      15.181   4.338  -1.137  0.00  0.00    +0.199 A 
ATOM     31  C   UNL     1      12.769   4.946  -1.364  0.00  0.00    +0.150 C 
ENDBRANCH  23  26
ENDBRANCH  16  20
ENDBRANCH  11  16
TORSDOF 8
ENDMDL
MODEL 8
REMARK VINA RESULT:      -5.9     26.753     31.315
REMARK  Name = 45784091
REMARK  12 active torsions:
REMARK  status: ('A' for Active; 'I' for Inactive)
REMARK    1  A    between atoms: N_2  and  C_15
REMARK    2  A    between atoms: N_2  and  C_21
REMARK    3  A    between atoms: N_5  and  C_31
REMARK    4  A    between atoms: C_8  and  C_12
REMARK    5  A    between atoms: C_9  and  C_15
REMARK    6  A    between atoms: C_11  and  C_16
REMARK    7  A    between atoms: C_12  and  C_17
REMARK    8  A    between atoms: C_12  and  C_18
REMARK    9  A    between atoms: C_13  and  C_19
REMARK   10  A    between atoms: C_16  and  C_20
REMARK   11  A    between atoms: C_21  and  C_22
REMARK   12  A    between atoms: C_23  and  C_26
REMARK                            x       y       z     vdW  Elec       q    Type
REMARK                         _______ _______ _______ _____ _____    ______ ____
ROOT
ATOM      8  C   UNL     1      10.921   4.748  -1.550  0.00  0.00    +0.000 C 
ATOM      9  C   UNL     1      11.925   3.649  -1.970  0.00  0.00    +0.029 C 
ATOM     10  C   UNL     1      10.442   4.518  -0.111  0.00  0.00    +0.012 C 
ATOM     11  C   UNL     1      11.595   4.457   0.915  0.00  0.00    +0.024 C 
ATOM     13  C   UNL     1      12.815   3.710   0.395  0.00  0.00    -0.073 C 
ATOM     14  C   UNL     1      12.937   3.348  -0.895  0.00  0.00    -0.023 C 
ATOM     19  C   UNL     1      13.927   3.436   1.369  0.00  0.00    +0.039 C 
ENDROOT
BRANCH   8  12
ATOM     12  C   UNL     1      11.525   6.149  -1.718  0.00  0.00    -0.013 C 
ATOM     17  C   UNL     1      12.175   6.289  -3.091  0.00  0.00    +0.007 C 
ATOM     18  C   UNL     1      10.454   7.217  -1.516  0.00  0.00    +0.007 C 
ENDBRANCH   8  12
BRANCH   9  15
ATOM     15  C   UNL     1      11.211   2.352  -2.366  0.00  0.00    +0.089 C 
BRANCH  15   2
ATOM      2  N   UNL     1       9.858   2.628  -2.817  0.00  0.00    -0.311 NA
ATOM     32  H   UNL     1       9.556   3.549  -2.503  0.00  0.00    +0.122 HD
BRANCH   2  21
ATOM     21  C   UNL     1       9.759   2.538  -4.269  0.00  0.00    +0.117 C 
BRANCH  21  22
ATOM      6  N   UNL     1      10.809   5.415  -6.494  0.00  0.00    -0.263 NA
ATOM     22  C   UNL     1       9.783   3.897  -4.916  0.00  0.00    -0.016 A 
ATOM     24  C   UNL     1       8.853   4.871  -4.571  0.00  0.00    +0.008 A 
ATOM     25  C   UNL     1      10.732   4.216  -5.875  0.00  0.00    +0.115 A 
ATOM     27  C   UNL     1       8.900   6.119  -5.186  0.00  0.00    +0.020 A 
ATOM     29  C   UNL     1       9.888   6.338  -6.132  0.00  0.00    +0.111 A 
ENDBRANCH  21  22
ENDBRANCH   2  21
ENDBRANCH  15   2
ENDBRANCH   9  15
BRANCH  11  16
ATOM     16  C   UNL     1      11.053   3.873   2.226  0.00  0.00    +0.105 C 
BRANCH  16  20
ATOM      1  O   UNL     1      10.320   4.662   4.415  0.00  0.00    -0.419 OA
ATOM      3  N   UNL     1      11.888   5.940   3.459  0.00  0.00    -0.112 NA
ATOM      4  N   UNL     1      11.569   6.499   4.683  0.00  0.00    -0.106 NA
ATOM     20  C   UNL     1      11.135   4.871   3.346  0.00  0.00    +0.218 A 
ATOM     23  C   UNL     1      10.650   5.721   5.205  0.00  0.00    +0.266 A 
BRANCH  23  26
ATOM      5  N   UNL     1       9.268   7.033   6.773  0.00  0.00    -0.329 N 
ATOM      7  N   UNL     1       9.388   5.823   8.631  0.00  0.00    -0.243 NA
ATOM     26  C   UNL     1      10.057   5.958   6.469  0.00  0.00    +0.125 A 
ATOM     28  C   UNL     1      10.116   5.227   7.631  0.00  0.00    +0.143 A 
ATOM     30  C   UNL     1       8.891   6.908   8.080  0.00  0.00    +0.199 A 
ATOM     31  C   UNL     1       8.888   8.113   5.892  0.00  0.00    +0.150 C 
ENDBRANCH  23  26
ENDBRANCH  16  20
ENDBRANCH  11  16
TORSDOF 8
ENDMDL
MODEL 9
REMARK VINA RESULT:      -5.9     25.882     29.898
REMARK  Name = 45784091
REMARK  12 active torsions:
REMARK  status: ('A' for Active; 'I' for Inactive)
REMARK    1  A    between atoms: N_2  and  C_15
REMARK    2  A    between atoms: N_2  and  C_21
REMARK    3  A    between atoms: N_5  and  C_31
REMARK    4  A    between atoms: C_8  and  C_12
REMARK    5  A    between atoms: C_9  and  C_15
REMARK    6  A    between atoms: C_11  and  C_16
REMARK    7  A    between atoms: C_12  and  C_17
REMARK    8  A    between atoms: C_12  and  C_18
REMARK    9  A    between atoms: C_13  and  C_19
REMARK   10  A    between atoms: C_16  and  C_20
REMARK   11  A    between atoms: C_21  and  C_22
REMARK   12  A    between atoms: C_23  and  C_26
REMARK                            x       y       z     vdW  Elec       q    Type
REMARK                         _______ _______ _______ _____ _____    ______ ____
ROOT
ATOM      8  C   UNL     1       9.294   6.148   7.489  0.00  0.00    +0.000 C 
ATOM      9  C   UNL     1       9.976   7.467   7.924  0.00  0.00    +0.029 C 
ATOM     10  C   UNL     1       9.310   6.013   5.960  0.00  0.00    +0.012 C 
ATOM     11  C   UNL     1      10.729   6.081   5.356  0.00  0.00    +0.024 C 
ATOM     13  C   UNL     1      11.616   7.116   6.032  0.00  0.00    -0.073 C 
ATOM     14  C   UNL     1      11.256   7.732   7.173  0.00  0.00    -0.023 C 
ATOM     19  C   UNL     1      12.958   7.392   5.412  0.00  0.00    +0.039 C 
ENDROOT
BRANCH   8  12
ATOM     12  C   UNL     1       9.948   4.933   8.161  0.00  0.00    -0.013 C 
ATOM     17  C   UNL     1       9.454   4.788   9.597  0.00  0.00    +0.007 C 
ATOM     18  C   UNL     1       9.663   3.666   7.361  0.00  0.00    +0.007 C 
ENDBRANCH   8  12
BRANCH   9  15
ATOM     15  C   UNL     1       9.039   8.668   7.762  0.00  0.00    +0.089 C 
BRANCH  15   2
ATOM      2  N   UNL     1       9.597   9.633   6.830  0.00  0.00    -0.311 NA
ATOM     32  H   UNL     1       9.248   9.463   5.887  0.00  0.00    +0.122 HD
BRANCH   2  21
ATOM     21  C   UNL     1       9.287  10.997   7.239  0.00  0.00    +0.117 C 
BRANCH  21  22
ATOM      6  N   UNL     1      11.779  11.658  10.012  0.00  0.00    -0.263 NA
ATOM     22  C   UNL     1       9.846  11.314   8.601  0.00  0.00    -0.016 A 
ATOM     24  C   UNL     1       9.005  11.549   9.683  0.00  0.00    +0.008 A 
ATOM     25  C   UNL     1      11.213  11.380   8.816  0.00  0.00    +0.115 A 
ATOM     27  C   UNL     1       9.549  11.839  10.930  0.00  0.00    +0.020 A 
ATOM     29  C   UNL     1      10.929  11.881  11.040  0.00  0.00    +0.111 A 
ENDBRANCH  21  22
ENDBRANCH   2  21
ENDBRANCH  15   2
ENDBRANCH   9  15
BRANCH  11  16
ATOM     16  C   UNL     1      10.606   6.301   3.842  0.00  0.00    +0.105 C 
BRANCH  16  20
ATOM      1  O   UNL     1      12.435   5.558   2.408  0.00  0.00    -0.419 OA
ATOM      3  N   UNL     1      10.973   3.949   2.934  0.00  0.00    -0.112 NA
ATOM      4  N   UNL     1      11.947   3.393   2.124  0.00  0.00    -0.106 NA
ATOM     20  C   UNL     1      11.298   5.213   3.072  0.00  0.00    +0.218 A 
ATOM     23  C   UNL     1      12.779   4.368   1.842  0.00  0.00    +0.266 A 
BRANCH  23  26
ATOM      5  N   UNL     1      13.966   4.437  -0.320  0.00  0.00    -0.329 N 
ATOM      7  N   UNL     1      16.007   3.767   0.244  0.00  0.00    -0.243 NA
ATOM     26  C   UNL     1      13.924   4.201   1.027  0.00  0.00    +0.125 A 
ATOM     28  C   UNL     1      15.194   3.789   1.351  0.00  0.00    +0.143 A 
ATOM     30  C   UNL     1      15.236   4.163  -0.744  0.00  0.00    +0.199 A 
ATOM     31  C   UNL     1      12.883   4.892  -1.161  0.00  0.00    +0.150 C 
ENDBRANCH  23  26
ENDBRANCH  16  20
ENDBRANCH  11  16
TORSDOF 8
ENDMDL
MODEL 10
REMARK VINA RESULT:      -5.8     26.533     29.927
REMARK  Name = 45784091
REMARK  12 active torsions:
REMARK  status: ('A' for Active; 'I' for Inactive)
REMARK    1  A    between atoms: N_2  and  C_15
REMARK    2  A    between atoms: N_2  and  C_21
REMARK    3  A    between atoms: N_5  and  C_31
REMARK    4  A    between atoms: C_8  and  C_12
REMARK    5  A    between atoms: C_9  and  C_15
REMARK    6  A    between atoms: C_11  and  C_16
REMARK    7  A    between atoms: C_12  and  C_17
REMARK    8  A    between atoms: C_12  and  C_18
REMARK    9  A    between atoms: C_13  and  C_19
REMARK   10  A    between atoms: C_16  and  C_20
REMARK   11  A    between atoms: C_21  and  C_22
REMARK   12  A    between atoms: C_23  and  C_26
REMARK                            x       y       z     vdW  Elec       q    Type
REMARK                         _______ _______ _______ _____ _____    ______ ____
ROOT
ATOM      8  C   UNL     1       8.598   9.662   3.169  0.00  0.00    +0.000 C 
ATOM      9  C   UNL     1       7.913   9.701   4.555  0.00  0.00    +0.029 C 
ATOM     10  C   UNL     1       9.845   8.768   3.211  0.00  0.00    +0.012 C 
ATOM     11  C   UNL     1       9.548   7.327   3.679  0.00  0.00    +0.024 C 
ATOM     13  C   UNL     1       8.535   7.265   4.812  0.00  0.00    -0.073 C 
ATOM     14  C   UNL     1       7.823   8.340   5.196  0.00  0.00    -0.023 C 
ATOM     19  C   UNL     1       8.303   5.929   5.464  0.00  0.00    +0.039 C 
ENDROOT
BRANCH   8  12
ATOM     12  C   UNL     1       7.623   9.204   2.076  0.00  0.00    -0.013 C 
ATOM     17  C   UNL     1       6.311   9.976   2.176  0.00  0.00    +0.007 C 
ATOM     18  C   UNL     1       8.250   9.379   0.696  0.00  0.00    +0.007 C 
ENDBRANCH   8  12
BRANCH   9  15
ATOM     15  C   UNL     1       8.626  10.663   5.512  0.00  0.00    +0.089 C 
BRANCH  15   2
ATOM      2  N   UNL     1       9.004   9.980   6.737  0.00  0.00    -0.311 NA
ATOM     32  H   UNL     1       8.812   8.982   6.666  0.00  0.00    +0.122 HD
BRANCH   2  21
ATOM     21  C   UNL     1      10.413  10.196   7.044  0.00  0.00    +0.117 C 
BRANCH  21  22
ATOM      6  N   UNL     1      13.231   7.678   6.821  0.00  0.00    -0.263 NA
ATOM     22  C   UNL     1      11.169   8.897   7.145  0.00  0.00    -0.016 A 
ATOM     24  C   UNL     1      10.557   7.748   7.633  0.00  0.00    +0.008 A 
ATOM     25  C   UNL     1      12.497   8.810   6.756  0.00  0.00    +0.115 A 
ATOM     27  C   UNL     1      11.280   6.562   7.714  0.00  0.00    +0.020 A 
ATOM     29  C   UNL     1      12.602   6.580   7.300  0.00  0.00    +0.111 A 
ENDBRANCH  21  22
ENDBRANCH   2  21
ENDBRANCH  15   2
ENDBRANCH   9  15
BRANCH  11  16
ATOM     16  C   UNL     1      10.876   6.642   4.028  0.00  0.00    +0.105 C 
BRANCH  16  20
ATOM      1  O   UNL     1      11.604   5.658   1.918  0.00  0.00    -0.419 OA
ATOM      3  N   UNL     1      10.918   4.165   3.436  0.00  0.00    -0.112 NA
ATOM      4  N   UNL     1      11.299   3.475   2.299  0.00  0.00    -0.106 NA
ATOM     20  C   UNL     1      11.114   5.434   3.168  0.00  0.00    +0.218 A 
ATOM     23  C   UNL     1      11.691   4.386   1.440  0.00  0.00    +0.266 A 
BRANCH  23  26
ATOM      5  N   UNL     1      13.468   3.836  -0.182  0.00  0.00    -0.329 N 
ATOM      7  N   UNL     1      12.328   3.639  -2.077  0.00  0.00    -0.243 NA
ATOM     26  C   UNL     1      12.161   4.078   0.140  0.00  0.00    +0.125 A 
ATOM     28  C   UNL     1      11.478   3.950  -1.045  0.00  0.00    +0.143 A 
ATOM     30  C   UNL     1      13.518   3.578  -1.523  0.00  0.00    +0.199 A 
ATOM     31  C   UNL     1      14.603   3.846   0.711  0.00  0.00    +0.150 C 
ENDBRANCH  23  26
ENDBRANCH  16  20
ENDBRANCH  11  16
TORSDOF 8
ENDMDL
