MODEL 1
REMARK VINA RESULT:      -6.9      0.000      0.000
REMARK  Name = 7114682
REMARK  14 active torsions:
REMARK  status: ('A' for Active; 'I' for Inactive)
REMARK    1  A    between atoms: O_5  and  C_25
REMARK    2  A    between atoms: O_5  and  C_30
REMARK    3  A    between atoms: O_7  and  C_28
REMARK    4  A    between atoms: N_10  and  C_13
REMARK    5  A    between atoms: N_11  and  C_20
REMARK    6  A    between atoms: N_12  and  C_29
REMARK    7  A    between atoms: C_14  and  C_18
REMARK    8  A    between atoms: C_19  and  C_21
REMARK    9  A    between atoms: C_20  and  C_22
REMARK   10  A    between atoms: C_20  and  C_25
REMARK   11  A    between atoms: C_21  and  C_24
REMARK   12  A    between atoms: C_22  and  C_26
REMARK   13  A    between atoms: C_22  and  C_27
REMARK   14  A    between atoms: C_24  and  C_28
REMARK                            x       y       z     vdW  Elec       q    Type
REMARK                         _______ _______ _______ _____ _____    ______ ____
ROOT
ATOM      3  O   UNL     1      12.169   6.931  18.755  0.00  0.00    -0.276 OA
ATOM      9  N   UNL     1      14.255   6.976  19.788  0.00  0.00    -0.290 N 
ATOM     13  C   UNL     1      17.132   6.517  19.599  0.00  0.00    +0.078 C 
ATOM     14  C   UNL     1      15.071   7.076  21.008  0.00  0.00    +0.164 C 
ATOM     15  C   UNL     1      16.386   6.299  20.920  0.00  0.00    +0.054 C 
ATOM     16  C   UNL     1      16.198   6.270  18.417  0.00  0.00    +0.041 C 
ATOM     17  C   UNL     1      14.958   7.149  18.512  0.00  0.00    +0.110 C 
ATOM     19  C   UNL     1      12.858   6.880  19.777  0.00  0.00    +0.217 C 
ENDROOT
BRANCH  13  10
ATOM      4  O   UNL     1      19.462   6.630  21.262  0.00  0.00    -0.253 OA
ATOM     10  N   UNL     1      18.292   5.663  19.519  0.00  0.00    -0.296 N 
ATOM     12  N   UNL     1      20.361   4.826  20.060  0.00  0.00    -0.269 N 
ATOM     23  C   UNL     1      19.394   5.785  20.373  0.00  0.00    +0.304 C 
ATOM     36  H   UNL     1      18.278   4.890  18.859  0.00  0.00    +0.151 HD
ATOM     38  H   UNL     1      20.148   4.198  19.289  0.00  0.00    +0.156 HD
BRANCH  12  29
ATOM      1  F   UNL     1      23.257   2.185  22.831  0.00  0.00    -0.205 F 
ATOM     29  C   UNL     1      21.613   4.619  20.685  0.00  0.00    +0.037 A 
ATOM     31  C   UNL     1      21.821   3.483  21.466  0.00  0.00    +0.061 A 
ATOM     32  C   UNL     1      22.638   5.550  20.520  0.00  0.00    +0.023 A 
ATOM     33  C   UNL     1      23.056   3.277  22.081  0.00  0.00    +0.125 A 
ATOM     34  C   UNL     1      23.872   5.345  21.136  0.00  0.00    +0.005 A 
ATOM     35  C   UNL     1      24.082   4.209  21.917  0.00  0.00    +0.038 A 
ENDBRANCH  12  29
ENDBRANCH  13  10
BRANCH  14  18
ATOM      2  O   UNL     1      16.093   8.932  22.111  0.00  0.00    -0.274 OA
ATOM     11  N   UNL     1      14.497   9.338  20.466  0.00  0.00    -0.301 N 
ATOM     18  C   UNL     1      15.295   8.538  21.265  0.00  0.00    +0.234 C 
ATOM     37  H   UNL     1      13.972   8.907  19.712  0.00  0.00    +0.150 HD
BRANCH  11  20
ATOM     20  C   UNL     1      14.505  10.782  20.536  0.00  0.00    +0.184 C 
BRANCH  20  22
ATOM     22  C   UNL     1      13.242  11.410  19.908  0.00  0.00    +0.014 C 
ATOM     26  C   UNL     1      12.477  10.389  19.060  0.00  0.00    +0.009 C 
ATOM     27  C   UNL     1      12.302  12.042  20.939  0.00  0.00    +0.009 C 
ENDBRANCH  20  22
BRANCH  20  25
ATOM      6  O   UNL     1      15.969  11.413  18.717  0.00  0.00    -0.249 OA
ATOM     25  C   UNL     1      15.775  11.365  19.927  0.00  0.00    +0.328 C 
BRANCH  25   5
ATOM      5  O   UNL     1      16.644  11.813  20.877  0.00  0.00    -0.467 OA
ATOM     30  C   UNL     1      16.238  12.987  21.589  0.00  0.00    +0.280 C 
ENDBRANCH  25   5
ENDBRANCH  20  25
ENDBRANCH  11  20
ENDBRANCH  14  18
BRANCH  19  21
ATOM     21  C   UNL     1      12.179   6.690  21.110  0.00  0.00    +0.107 C 
BRANCH  21  24
ATOM     24  C   UNL     1      10.899   7.499  21.155  0.00  0.00    +0.129 C 
BRANCH  24  28
ATOM      8  O   UNL     1      12.096   9.092  22.522  0.00  0.00    -0.251 OA
ATOM     28  C   UNL     1      11.029   8.675  22.092  0.00  0.00    +0.305 C 
BRANCH  28   7
ATOM      7  O   UNL     1       9.828   9.210  22.428  0.00  0.00    -0.481 OA
ATOM     39  H   UNL     1       9.927  10.024  22.964  0.00  0.00    +0.295 HD
ENDBRANCH  28   7
ENDBRANCH  24  28
ENDBRANCH  21  24
ENDBRANCH  19  21
TORSDOF 11
ENDMDL
MODEL 2
REMARK VINA RESULT:      -6.8     16.537     18.992
REMARK  Name = 7114682
REMARK  14 active torsions:
REMARK  status: ('A' for Active; 'I' for Inactive)
REMARK    1  A    between atoms: O_5  and  C_25
REMARK    2  A    between atoms: O_5  and  C_30
REMARK    3  A    between atoms: O_7  and  C_28
REMARK    4  A    between atoms: N_10  and  C_13
REMARK    5  A    between atoms: N_11  and  C_20
REMARK    6  A    between atoms: N_12  and  C_29
REMARK    7  A    between atoms: C_14  and  C_18
REMARK    8  A    between atoms: C_19  and  C_21
REMARK    9  A    between atoms: C_20  and  C_22
REMARK   10  A    between atoms: C_20  and  C_25
REMARK   11  A    between atoms: C_21  and  C_24
REMARK   12  A    between atoms: C_22  and  C_26
REMARK   13  A    between atoms: C_22  and  C_27
REMARK   14  A    between atoms: C_24  and  C_28
REMARK                            x       y       z     vdW  Elec       q    Type
REMARK                         _______ _______ _______ _____ _____    ______ ____
ROOT
ATOM      3  O   UNL     1       8.270   7.583   7.423  0.00  0.00    -0.276 OA
ATOM      9  N   UNL     1       9.772   6.794   5.829  0.00  0.00    -0.290 N 
ATOM     13  C   UNL     1      10.274   6.004   3.063  0.00  0.00    +0.078 C 
ATOM     14  C   UNL     1      11.064   6.177   5.491  0.00  0.00    +0.164 C 
ATOM     15  C   UNL     1      11.012   5.324   4.221  0.00  0.00    +0.054 C 
ATOM     16  C   UNL     1       8.904   6.495   3.525  0.00  0.00    +0.041 C 
ATOM     17  C   UNL     1       9.035   7.421   4.726  0.00  0.00    +0.110 C 
ATOM     19  C   UNL     1       9.287   6.948   7.133  0.00  0.00    +0.217 C 
ENDROOT
BRANCH  13  10
ATOM      4  O   UNL     1      11.741   6.106   0.605  0.00  0.00    -0.253 OA
ATOM     10  N   UNL     1      10.142   5.106   1.942  0.00  0.00    -0.296 N 
ATOM     12  N   UNL     1      10.557   4.220  -0.135  0.00  0.00    -0.269 N 
ATOM     23  C   UNL     1      10.901   5.225   0.772  0.00  0.00    +0.304 C 
ATOM     36  H   UNL     1       9.522   4.306   2.034  0.00  0.00    +0.151 HD
ATOM     38  H   UNL     1       9.836   3.567   0.158  0.00  0.00    +0.156 HD
BRANCH  12  29
ATOM      1  F   UNL     1      10.721   5.245  -4.822  0.00  0.00    -0.205 F 
ATOM     29  C   UNL     1      11.091   3.995  -1.426  0.00  0.00    +0.037 A 
ATOM     31  C   UNL     1      10.633   4.745  -2.509  0.00  0.00    +0.061 A 
ATOM     32  C   UNL     1      12.075   3.025  -1.615  0.00  0.00    +0.023 A 
ATOM     33  C   UNL     1      11.161   4.525  -3.782  0.00  0.00    +0.125 A 
ATOM     34  C   UNL     1      12.602   2.804  -2.888  0.00  0.00    +0.005 A 
ATOM     35  C   UNL     1      12.145   3.554  -3.971  0.00  0.00    +0.038 A 
ENDBRANCH  12  29
ENDBRANCH  13  10
BRANCH  14  18
ATOM      2  O   UNL     1      11.811   8.429   5.769  0.00  0.00    -0.274 OA
ATOM     11  N   UNL     1      13.244   6.879   4.786  0.00  0.00    -0.301 N 
ATOM     18  C   UNL     1      12.064   7.291   5.381  0.00  0.00    +0.234 C 
ATOM     37  H   UNL     1      13.390   5.888   4.626  0.00  0.00    +0.150 HD
BRANCH  11  20
ATOM     20  C   UNL     1      14.359   7.767   4.543  0.00  0.00    +0.184 C 
BRANCH  20  22
ATOM     22  C   UNL     1      15.310   7.234   3.449  0.00  0.00    +0.014 C 
ATOM     26  C   UNL     1      14.627   6.162   2.594  0.00  0.00    +0.009 C 
ATOM     27  C   UNL     1      15.879   8.336   2.551  0.00  0.00    +0.009 C 
ENDBRANCH  20  22
BRANCH  20  25
ATOM      6  O   UNL     1      15.237   7.275   6.742  0.00  0.00    -0.249 OA
ATOM     25  C   UNL     1      15.114   8.084   5.828  0.00  0.00    +0.328 C 
BRANCH  25   5
ATOM      5  O   UNL     1      15.620   9.350   5.830  0.00  0.00    -0.467 OA
ATOM     30  C   UNL     1      14.695  10.391   5.500  0.00  0.00    +0.280 C 
ENDBRANCH  25   5
ENDBRANCH  20  25
ENDBRANCH  11  20
ENDBRANCH  14  18
BRANCH  19  21
ATOM     21  C   UNL     1      10.070   6.276   8.233  0.00  0.00    +0.107 C 
BRANCH  21  24
ATOM     24  C   UNL     1       9.370   4.999   8.655  0.00  0.00    +0.129 C 
BRANCH  24  28
ATOM      8  O   UNL     1      10.466   4.713  10.790  0.00  0.00    -0.251 OA
ATOM     28  C   UNL     1       9.426   4.816  10.151  0.00  0.00    +0.305 C 
BRANCH  28   7
ATOM      7  O   UNL     1       8.194   4.752  10.716  0.00  0.00    -0.481 OA
ATOM     39  H   UNL     1       8.241   4.712  11.694  0.00  0.00    +0.295 HD
ENDBRANCH  28   7
ENDBRANCH  24  28
ENDBRANCH  21  24
ENDBRANCH  19  21
TORSDOF 11
ENDMDL
MODEL 3
REMARK VINA RESULT:      -6.5      5.005      8.966
REMARK  Name = 7114682
REMARK  14 active torsions:
REMARK  status: ('A' for Active; 'I' for Inactive)
REMARK    1  A    between atoms: O_5  and  C_25
REMARK    2  A    between atoms: O_5  and  C_30
REMARK    3  A    between atoms: O_7  and  C_28
REMARK    4  A    between atoms: N_10  and  C_13
REMARK    5  A    between atoms: N_11  and  C_20
REMARK    6  A    between atoms: N_12  and  C_29
REMARK    7  A    between atoms: C_14  and  C_18
REMARK    8  A    between atoms: C_19  and  C_21
REMARK    9  A    between atoms: C_20  and  C_22
REMARK   10  A    between atoms: C_20  and  C_25
REMARK   11  A    between atoms: C_21  and  C_24
REMARK   12  A    between atoms: C_22  and  C_26
REMARK   13  A    between atoms: C_22  and  C_27
REMARK   14  A    between atoms: C_24  and  C_28
REMARK                            x       y       z     vdW  Elec       q    Type
REMARK                         _______ _______ _______ _____ _____    ______ ____
ROOT
ATOM      3  O   UNL     1      16.600   5.589  18.936  0.00  0.00    -0.276 OA
ATOM      9  N   UNL     1      15.476   7.615  19.175  0.00  0.00    -0.290 N 
ATOM     13  C   UNL     1      13.755   9.656  17.993  0.00  0.00    +0.078 C 
ATOM     14  C   UNL     1      15.242   8.862  19.918  0.00  0.00    +0.164 C 
ATOM     15  C   UNL     1      14.828  10.031  19.021  0.00  0.00    +0.054 C 
ATOM     16  C   UNL     1      14.179   8.412  17.217  0.00  0.00    +0.041 C 
ATOM     17  C   UNL     1      14.476   7.256  18.162  0.00  0.00    +0.110 C 
ATOM     19  C   UNL     1      16.489   6.694  19.473  0.00  0.00    +0.217 C 
ENDROOT
BRANCH  13  10
ATOM      4  O   UNL     1      14.006   9.629  15.140  0.00  0.00    -0.253 OA
ATOM     10  N   UNL     1      13.500  10.755  17.095  0.00  0.00    -0.296 N 
ATOM     12  N   UNL     1      13.331  11.877  15.098  0.00  0.00    -0.269 N 
ATOM     23  C   UNL     1      13.647  10.659  15.706  0.00  0.00    +0.304 C 
ATOM     36  H   UNL     1      13.127  11.618  17.481  0.00  0.00    +0.151 HD
ATOM     38  H   UNL     1      13.052  12.636  15.714  0.00  0.00    +0.156 HD
BRANCH  12  29
ATOM      1  F   UNL     1      11.035  12.667  10.957  0.00  0.00    -0.205 F 
ATOM     29  C   UNL     1      13.354  12.191  13.719  0.00  0.00    +0.037 A 
ATOM     31  C   UNL     1      12.160  12.275  13.004  0.00  0.00    +0.061 A 
ATOM     32  C   UNL     1      14.571  12.416  13.075  0.00  0.00    +0.023 A 
ATOM     33  C   UNL     1      12.183  12.586  11.644  0.00  0.00    +0.125 A 
ATOM     34  C   UNL     1      14.593  12.726  11.715  0.00  0.00    +0.005 A 
ATOM     35  C   UNL     1      13.399  12.811  11.000  0.00  0.00    +0.038 A 
ENDBRANCH  12  29
ENDBRANCH  13  10
BRANCH  14  18
ATOM      2  O   UNL     1      14.355   7.649  21.776  0.00  0.00    -0.274 OA
ATOM     11  N   UNL     1      13.109   9.396  20.872  0.00  0.00    -0.301 N 
ATOM     18  C   UNL     1      14.208   8.559  20.964  0.00  0.00    +0.234 C 
ATOM     37  H   UNL     1      13.155  10.195  20.248  0.00  0.00    +0.150 HD
BRANCH  11  20
ATOM     20  C   UNL     1      11.964   9.295  21.748  0.00  0.00    +0.184 C 
BRANCH  20  22
ATOM     22  C   UNL     1      10.836   8.429  21.147  0.00  0.00    +0.014 C 
ATOM     26  C   UNL     1      10.857   8.474  19.616  0.00  0.00    +0.009 C 
ATOM     27  C   UNL     1      10.866   6.976  21.629  0.00  0.00    +0.009 C 
ENDBRANCH  20  22
BRANCH  20  25
ATOM      6  O   UNL     1      11.651  11.680  21.490  0.00  0.00    -0.249 OA
ATOM     25  C   UNL     1      11.449  10.671  22.158  0.00  0.00    +0.328 C 
BRANCH  25   5
ATOM      5  O   UNL     1      10.756  10.633  23.331  0.00  0.00    -0.467 OA
ATOM     30  C   UNL     1      10.803  11.827  24.120  0.00  0.00    +0.280 C 
ENDBRANCH  25   5
ENDBRANCH  20  25
ENDBRANCH  11  20
ENDBRANCH  14  18
BRANCH  19  21
ATOM     21  C   UNL     1      17.501   7.111  20.510  0.00  0.00    +0.107 C 
BRANCH  21  24
ATOM     24  C   UNL     1      18.737   6.242  20.400  0.00  0.00    +0.129 C 
BRANCH  24  28
ATOM      8  O   UNL     1      20.933   6.544  21.364  0.00  0.00    -0.251 OA
ATOM     28  C   UNL     1      19.717   6.543  21.507  0.00  0.00    +0.305 C 
BRANCH  28   7
ATOM      7  O   UNL     1      19.105   6.793  22.692  0.00  0.00    -0.481 OA
ATOM     39  H   UNL     1      18.823   7.728  22.768  0.00  0.00    +0.295 HD
ENDBRANCH  28   7
ENDBRANCH  24  28
ENDBRANCH  21  24
ENDBRANCH  19  21
TORSDOF 11
ENDMDL
MODEL 4
REMARK VINA RESULT:      -6.3      1.416      2.333
REMARK  Name = 7114682
REMARK  14 active torsions:
REMARK  status: ('A' for Active; 'I' for Inactive)
REMARK    1  A    between atoms: O_5  and  C_25
REMARK    2  A    between atoms: O_5  and  C_30
REMARK    3  A    between atoms: O_7  and  C_28
REMARK    4  A    between atoms: N_10  and  C_13
REMARK    5  A    between atoms: N_11  and  C_20
REMARK    6  A    between atoms: N_12  and  C_29
REMARK    7  A    between atoms: C_14  and  C_18
REMARK    8  A    between atoms: C_19  and  C_21
REMARK    9  A    between atoms: C_20  and  C_22
REMARK   10  A    between atoms: C_20  and  C_25
REMARK   11  A    between atoms: C_21  and  C_24
REMARK   12  A    between atoms: C_22  and  C_26
REMARK   13  A    between atoms: C_22  and  C_27
REMARK   14  A    between atoms: C_24  and  C_28
REMARK                            x       y       z     vdW  Elec       q    Type
REMARK                         _______ _______ _______ _____ _____    ______ ____
ROOT
ATOM      3  O   UNL     1      12.043   6.953  18.275  0.00  0.00    -0.276 OA
ATOM      9  N   UNL     1      14.103   7.121  19.347  0.00  0.00    -0.290 N 
ATOM     13  C   UNL     1      16.971   6.575  19.318  0.00  0.00    +0.078 C 
ATOM     14  C   UNL     1      14.891   7.402  20.557  0.00  0.00    +0.164 C 
ATOM     15  C   UNL     1      16.187   6.592  20.634  0.00  0.00    +0.054 C 
ATOM     16  C   UNL     1      16.060   6.158  18.166  0.00  0.00    +0.041 C 
ATOM     17  C   UNL     1      14.842   7.067  18.080  0.00  0.00    +0.110 C 
ATOM     19  C   UNL     1      12.705   7.055  19.311  0.00  0.00    +0.217 C 
ENDROOT
BRANCH  13  10
ATOM      4  O   UNL     1      19.342   6.999  20.868  0.00  0.00    -0.253 OA
ATOM     10  N   UNL     1      18.110   5.695  19.411  0.00  0.00    -0.296 N 
ATOM     12  N   UNL     1      20.172   4.946  20.089  0.00  0.00    -0.269 N 
ATOM     23  C   UNL     1      19.234   5.976  20.195  0.00  0.00    +0.304 C 
ATOM     36  H   UNL     1      18.063   4.793  18.943  0.00  0.00    +0.151 HD
ATOM     38  H   UNL     1      19.928   4.167  19.484  0.00  0.00    +0.156 HD
BRANCH  12  29
ATOM      1  F   UNL     1      23.190   2.701  23.071  0.00  0.00    -0.205 F 
ATOM     29  C   UNL     1      21.435   4.852  20.721  0.00  0.00    +0.037 A 
ATOM     31  C   UNL     1      21.695   3.803  21.602  0.00  0.00    +0.061 A 
ATOM     32  C   UNL     1      22.417   5.808  20.464  0.00  0.00    +0.023 A 
ATOM     33  C   UNL     1      22.940   3.709  22.225  0.00  0.00    +0.125 A 
ATOM     34  C   UNL     1      23.661   5.714  21.087  0.00  0.00    +0.005 A 
ATOM     35  C   UNL     1      23.923   4.665  21.967  0.00  0.00    +0.038 A 
ENDBRANCH  12  29
ENDBRANCH  13  10
BRANCH  14  18
ATOM      2  O   UNL     1      14.691   9.629  19.717  0.00  0.00    -0.274 OA
ATOM     11  N   UNL     1      15.950   9.258  21.640  0.00  0.00    -0.301 N 
ATOM     18  C   UNL     1      15.147   8.881  20.578  0.00  0.00    +0.234 C 
ATOM     37  H   UNL     1      16.159   8.576  22.361  0.00  0.00    +0.150 HD
BRANCH  11  20
ATOM     20  C   UNL     1      16.364  10.624  21.871  0.00  0.00    +0.184 C 
BRANCH  20  22
ATOM     22  C   UNL     1      17.829  10.724  22.350  0.00  0.00    +0.014 C 
ATOM     26  C   UNL     1      18.806  10.405  21.214  0.00  0.00    +0.009 C 
ATOM     27  C   UNL     1      18.172  12.081  22.970  0.00  0.00    +0.009 C 
ENDBRANCH  20  22
BRANCH  20  25
ATOM      6  O   UNL     1      15.016  10.833  23.869  0.00  0.00    -0.249 OA
ATOM     25  C   UNL     1      15.418  11.342  22.828  0.00  0.00    +0.328 C 
BRANCH  25   5
ATOM      5  O   UNL     1      15.086  12.588  22.386  0.00  0.00    -0.467 OA
ATOM     30  C   UNL     1      14.112  12.638  21.338  0.00  0.00    +0.280 C 
ENDBRANCH  25   5
ENDBRANCH  20  25
ENDBRANCH  11  20
ENDBRANCH  14  18
BRANCH  19  21
ATOM     21  C   UNL     1      11.989   7.101  20.637  0.00  0.00    +0.107 C 
BRANCH  21  24
ATOM     24  C   UNL     1      11.408   8.483  20.860  0.00  0.00    +0.129 C 
BRANCH  24  28
ATOM      8  O   UNL     1      10.473   8.513  23.089  0.00  0.00    -0.251 OA
ATOM     28  C   UNL     1      11.378   8.832  22.328  0.00  0.00    +0.305 C 
BRANCH  28   7
ATOM      7  O   UNL     1      12.455   9.560  22.714  0.00  0.00    -0.481 OA
ATOM     39  H   UNL     1      13.150   9.581  22.022  0.00  0.00    +0.295 HD
ENDBRANCH  28   7
ENDBRANCH  24  28
ENDBRANCH  21  24
ENDBRANCH  19  21
TORSDOF 11
ENDMDL
MODEL 5
REMARK VINA RESULT:      -6.2     16.721     19.191
REMARK  Name = 7114682
REMARK  14 active torsions:
REMARK  status: ('A' for Active; 'I' for Inactive)
REMARK    1  A    between atoms: O_5  and  C_25
REMARK    2  A    between atoms: O_5  and  C_30
REMARK    3  A    between atoms: O_7  and  C_28
REMARK    4  A    between atoms: N_10  and  C_13
REMARK    5  A    between atoms: N_11  and  C_20
REMARK    6  A    between atoms: N_12  and  C_29
REMARK    7  A    between atoms: C_14  and  C_18
REMARK    8  A    between atoms: C_19  and  C_21
REMARK    9  A    between atoms: C_20  and  C_22
REMARK   10  A    between atoms: C_20  and  C_25
REMARK   11  A    between atoms: C_21  and  C_24
REMARK   12  A    between atoms: C_22  and  C_26
REMARK   13  A    between atoms: C_22  and  C_27
REMARK   14  A    between atoms: C_24  and  C_28
REMARK                            x       y       z     vdW  Elec       q    Type
REMARK                         _______ _______ _______ _____ _____    ______ ____
ROOT
ATOM      3  O   UNL     1       8.293   7.760   7.583  0.00  0.00    -0.276 OA
ATOM      9  N   UNL     1       9.780   6.773   6.088  0.00  0.00    -0.290 N 
ATOM     13  C   UNL     1      10.354   5.909   3.358  0.00  0.00    +0.078 C 
ATOM     14  C   UNL     1      10.999   5.990   5.833  0.00  0.00    +0.164 C 
ATOM     15  C   UNL     1      10.918   5.145   4.560  0.00  0.00    +0.054 C 
ATOM     16  C   UNL     1       9.033   6.578   3.731  0.00  0.00    +0.041 C 
ATOM     17  C   UNL     1       9.205   7.486   4.941  0.00  0.00    +0.110 C 
ATOM     19  C   UNL     1       9.235   6.996   7.358  0.00  0.00    +0.217 C 
ENDROOT
BRANCH  13  10
ATOM      4  O   UNL     1      11.621   6.139   0.799  0.00  0.00    -0.253 OA
ATOM     10  N   UNL     1      10.179   5.031   2.228  0.00  0.00    -0.296 N 
ATOM     12  N   UNL     1      10.474   4.212   0.103  0.00  0.00    -0.269 N 
ATOM     23  C   UNL     1      10.838   5.214   1.007  0.00  0.00    +0.304 C 
ATOM     36  H   UNL     1       9.606   4.200   2.346  0.00  0.00    +0.151 HD
ATOM     38  H   UNL     1       9.809   3.518   0.434  0.00  0.00    +0.156 HD
BRANCH  12  29
ATOM      1  F   UNL     1      10.146   5.258  -4.571  0.00  0.00    -0.205 F 
ATOM     29  C   UNL     1      10.917   4.043  -1.231  0.00  0.00    +0.037 A 
ATOM     31  C   UNL     1      10.301   4.747  -2.264  0.00  0.00    +0.061 A 
ATOM     32  C   UNL     1      11.970   3.172  -1.510  0.00  0.00    +0.023 A 
ATOM     33  C   UNL     1      10.739   4.581  -3.578  0.00  0.00    +0.125 A 
ATOM     34  C   UNL     1      12.407   3.006  -2.824  0.00  0.00    +0.005 A 
ATOM     35  C   UNL     1      11.792   3.710  -3.858  0.00  0.00    +0.038 A 
ENDBRANCH  12  29
ENDBRANCH  13  10
BRANCH  14  18
ATOM      2  O   UNL     1      12.415   7.680   6.751  0.00  0.00    -0.274 OA
ATOM     11  N   UNL     1      12.795   6.954   4.572  0.00  0.00    -0.301 N 
ATOM     18  C   UNL     1      12.142   6.963   5.792  0.00  0.00    +0.234 C 
ATOM     37  H   UNL     1      12.565   6.228   3.901  0.00  0.00    +0.150 HD
BRANCH  11  20
ATOM     20  C   UNL     1      13.915   7.815   4.269  0.00  0.00    +0.184 C 
BRANCH  20  22
ATOM     22  C   UNL     1      13.475   9.152   3.633  0.00  0.00    +0.014 C 
ATOM     26  C   UNL     1      14.605   9.770   2.803  0.00  0.00    +0.009 C 
ATOM     27  C   UNL     1      12.207   9.032   2.783  0.00  0.00    +0.009 C 
ENDBRANCH  20  22
BRANCH  20  25
ATOM      6  O   UNL     1      16.138   7.043   3.710  0.00  0.00    -0.249 OA
ATOM     25  C   UNL     1      14.951   7.105   3.405  0.00  0.00    +0.328 C 
BRANCH  25   5
ATOM      5  O   UNL     1      14.402   6.565   2.280  0.00  0.00    -0.467 OA
ATOM     30  C   UNL     1      14.687   5.181   2.052  0.00  0.00    +0.280 C 
ENDBRANCH  25   5
ENDBRANCH  20  25
ENDBRANCH  11  20
ENDBRANCH  14  18
BRANCH  19  21
ATOM     21  C   UNL     1       9.849   6.232   8.504  0.00  0.00    +0.107 C 
BRANCH  21  24
ATOM     24  C   UNL     1       8.960   5.063   8.877  0.00  0.00    +0.129 C 
BRANCH  24  28
ATOM      8  O   UNL     1      10.183   4.420  10.860  0.00  0.00    -0.251 OA
ATOM     28  C   UNL     1       9.114   4.703  10.334  0.00  0.00    +0.305 C 
BRANCH  28   7
ATOM      7  O   UNL     1       7.933   4.704  11.000  0.00  0.00    -0.481 OA
ATOM     39  H   UNL     1       8.008   5.128  11.880  0.00  0.00    +0.295 HD
ENDBRANCH  28   7
ENDBRANCH  24  28
ENDBRANCH  21  24
ENDBRANCH  19  21
TORSDOF 11
ENDMDL
MODEL 6
REMARK VINA RESULT:      -6.2     18.460     21.179
REMARK  Name = 7114682
REMARK  14 active torsions:
REMARK  status: ('A' for Active; 'I' for Inactive)
REMARK    1  A    between atoms: O_5  and  C_25
REMARK    2  A    between atoms: O_5  and  C_30
REMARK    3  A    between atoms: O_7  and  C_28
REMARK    4  A    between atoms: N_10  and  C_13
REMARK    5  A    between atoms: N_11  and  C_20
REMARK    6  A    between atoms: N_12  and  C_29
REMARK    7  A    between atoms: C_14  and  C_18
REMARK    8  A    between atoms: C_19  and  C_21
REMARK    9  A    between atoms: C_20  and  C_22
REMARK   10  A    between atoms: C_20  and  C_25
REMARK   11  A    between atoms: C_21  and  C_24
REMARK   12  A    between atoms: C_22  and  C_26
REMARK   13  A    between atoms: C_22  and  C_27
REMARK   14  A    between atoms: C_24  and  C_28
REMARK                            x       y       z     vdW  Elec       q    Type
REMARK                         _______ _______ _______ _____ _____    ______ ____
ROOT
ATOM      3  O   UNL     1      14.732   3.949  -1.625  0.00  0.00    -0.276 OA
ATOM      9  N   UNL     1      12.821   4.531  -0.429  0.00  0.00    -0.290 N 
ATOM     13  C   UNL     1      11.531   4.915   2.163  0.00  0.00    +0.078 C 
ATOM     14  C   UNL     1      11.375   4.799  -0.389  0.00  0.00    +0.164 C 
ATOM     15  C   UNL     1      10.730   4.431   0.950  0.00  0.00    +0.054 C 
ATOM     16  C   UNL     1      12.987   4.471   2.045  0.00  0.00    +0.041 C 
ATOM     17  C   UNL     1      13.601   4.958   0.739  0.00  0.00    +0.110 C 
ATOM     19  C   UNL     1      13.504   4.045  -1.550  0.00  0.00    +0.217 C 
ENDROOT
BRANCH  13  10
ATOM      4  O   UNL     1      11.022   6.434   4.536  0.00  0.00    -0.253 OA
ATOM     10  N   UNL     1      10.948   4.429   3.389  0.00  0.00    -0.296 N 
ATOM     12  N   UNL     1      10.156   4.499   5.543  0.00  0.00    -0.269 N 
ATOM     23  C   UNL     1      10.732   5.241   4.509  0.00  0.00    +0.304 C 
ATOM     36  H   UNL     1      10.612   3.470   3.417  0.00  0.00    +0.151 HD
ATOM     38  H   UNL     1       9.981   3.515   5.357  0.00  0.00    +0.156 HD
BRANCH  12  29
ATOM      1  F   UNL     1       8.662   7.993   8.476  0.00  0.00    -0.205 F 
ATOM     29  C   UNL     1       9.785   4.949   6.833  0.00  0.00    +0.037 A 
ATOM     31  C   UNL     1       9.400   6.275   7.023  0.00  0.00    +0.061 A 
ATOM     32  C   UNL     1       9.805   4.066   7.912  0.00  0.00    +0.023 A 
ATOM     33  C   UNL     1       9.033   6.719   8.293  0.00  0.00    +0.125 A 
ATOM     34  C   UNL     1       9.439   4.510   9.182  0.00  0.00    +0.005 A 
ATOM     35  C   UNL     1       9.053   5.836   9.373  0.00  0.00    +0.038 A 
ENDBRANCH  12  29
ENDBRANCH  13  10
BRANCH  14  18
ATOM      2  O   UNL     1      12.061   6.898  -1.299  0.00  0.00    -0.274 OA
ATOM     11  N   UNL     1       9.968   6.736  -0.293  0.00  0.00    -0.301 N 
ATOM     18  C   UNL     1      11.190   6.250  -0.724  0.00  0.00    +0.234 C 
ATOM     37  H   UNL     1       9.276   6.079   0.052  0.00  0.00    +0.150 HD
BRANCH  11  20
ATOM     20  C   UNL     1       9.555   8.110  -0.472  0.00  0.00    +0.184 C 
BRANCH  20  22
ATOM     22  C   UNL     1       9.219   8.804   0.865  0.00  0.00    +0.014 C 
ATOM     26  C   UNL     1       9.078   7.785   2.000  0.00  0.00    +0.009 C 
ATOM     27  C   UNL     1      10.228   9.887   1.256  0.00  0.00    +0.009 C 
ENDBRANCH  20  22
BRANCH  20  25
ATOM      6  O   UNL     1       8.440   7.731  -2.585  0.00  0.00    -0.249 OA
ATOM     25  C   UNL     1       8.401   8.224  -1.462  0.00  0.00    +0.328 C 
BRANCH  25   5
ATOM      5  O   UNL     1       7.351   8.928  -0.952  0.00  0.00    -0.467 OA
ATOM     30  C   UNL     1       6.470   9.516  -1.913  0.00  0.00    +0.280 C 
ENDBRANCH  25   5
ENDBRANCH  20  25
ENDBRANCH  11  20
ENDBRANCH  14  18
BRANCH  19  21
ATOM     21  C   UNL     1      12.662   3.606  -2.722  0.00  0.00    +0.107 C 
BRANCH  21  24
ATOM     24  C   UNL     1      12.028   2.263  -2.424  0.00  0.00    +0.129 C 
BRANCH  24  28
ATOM      8  O   UNL     1       9.879   1.231  -2.822  0.00  0.00    -0.251 OA
ATOM     28  C   UNL     1      10.588   2.227  -2.875  0.00  0.00    +0.305 C 
BRANCH  28   7
ATOM      7  O   UNL     1      10.167   3.418  -3.370  0.00  0.00    -0.481 OA
ATOM     39  H   UNL     1       9.541   3.866  -2.762  0.00  0.00    +0.295 HD
ENDBRANCH  28   7
ENDBRANCH  24  28
ENDBRANCH  21  24
ENDBRANCH  19  21
TORSDOF 11
ENDMDL
MODEL 7
REMARK VINA RESULT:      -6.2     29.287     33.055
REMARK  Name = 7114682
REMARK  14 active torsions:
REMARK  status: ('A' for Active; 'I' for Inactive)
REMARK    1  A    between atoms: O_5  and  C_25
REMARK    2  A    between atoms: O_5  and  C_30
REMARK    3  A    between atoms: O_7  and  C_28
REMARK    4  A    between atoms: N_10  and  C_13
REMARK    5  A    between atoms: N_11  and  C_20
REMARK    6  A    between atoms: N_12  and  C_29
REMARK    7  A    between atoms: C_14  and  C_18
REMARK    8  A    between atoms: C_19  and  C_21
REMARK    9  A    between atoms: C_20  and  C_22
REMARK   10  A    between atoms: C_20  and  C_25
REMARK   11  A    between atoms: C_21  and  C_24
REMARK   12  A    between atoms: C_22  and  C_26
REMARK   13  A    between atoms: C_22  and  C_27
REMARK   14  A    between atoms: C_24  and  C_28
REMARK                            x       y       z     vdW  Elec       q    Type
REMARK                         _______ _______ _______ _____ _____    ______ ____
ROOT
ATOM      3  O   UNL     1      -6.122 -11.820  16.206  0.00  0.00    -0.276 OA
ATOM      9  N   UNL     1      -7.990 -10.554  16.782  0.00  0.00    -0.290 N 
ATOM     13  C   UNL     1     -10.015  -8.607  15.986  0.00  0.00    +0.078 C 
ATOM     14  C   UNL     1      -8.895 -10.013  17.807  0.00  0.00    +0.164 C 
ATOM     15  C   UNL     1      -9.497  -8.658  17.427  0.00  0.00    +0.054 C 
ATOM     16  C   UNL     1      -8.936  -9.088  15.019  0.00  0.00    +0.041 C 
ATOM     17  C   UNL     1      -8.455 -10.484  15.392  0.00  0.00    +0.110 C 
ATOM     19  C   UNL     1      -6.808 -11.253  17.060  0.00  0.00    +0.217 C 
ENDROOT
BRANCH  13  10
ATOM      4  O   UNL     1     -12.014  -7.897  14.062  0.00  0.00    -0.253 OA
ATOM     10  N   UNL     1     -10.448  -7.275  15.644  0.00  0.00    -0.296 N 
ATOM     12  N   UNL     1     -11.645  -5.635  14.570  0.00  0.00    -0.269 N 
ATOM     23  C   UNL     1     -11.436  -7.012  14.688  0.00  0.00    +0.304 C 
ATOM     36  H   UNL     1     -10.071  -6.493  16.173  0.00  0.00    +0.151 HD
ATOM     38  H   UNL     1     -11.078  -5.035  15.163  0.00  0.00    +0.156 HD
BRANCH  12  29
ATOM      1  F   UNL     1     -12.516  -2.875  10.740  0.00  0.00    -0.205 F 
ATOM     29  C   UNL     1     -12.553  -4.965  13.717  0.00  0.00    +0.037 A 
ATOM     31  C   UNL     1     -12.077  -4.235  12.628  0.00  0.00    +0.061 A 
ATOM     32  C   UNL     1     -13.924  -5.034  13.965  0.00  0.00    +0.023 A 
ATOM     33  C   UNL     1     -12.973  -3.576  11.786  0.00  0.00    +0.125 A 
ATOM     34  C   UNL     1     -14.819  -4.374  13.124  0.00  0.00    +0.005 A 
ATOM     35  C   UNL     1     -14.344  -3.645  12.035  0.00  0.00    +0.038 A 
ENDBRANCH  12  29
ENDBRANCH  13  10
BRANCH  14  18
ATOM      2  O   UNL     1     -10.375 -11.768  17.144  0.00  0.00    -0.274 OA
ATOM     11  N   UNL     1     -10.379 -11.070  19.365  0.00  0.00    -0.301 N 
ATOM     18  C   UNL     1      -9.952 -11.052  18.048  0.00  0.00    +0.234 C 
ATOM     37  H   UNL     1      -9.867 -10.525  20.051  0.00  0.00    +0.150 HD
BRANCH  11  20
ATOM     20  C   UNL     1     -11.407 -11.963  19.850  0.00  0.00    +0.184 C 
BRANCH  20  22
ATOM     22  C   UNL     1     -12.600 -11.206  20.471  0.00  0.00    +0.014 C 
ATOM     26  C   UNL     1     -12.395  -9.690  20.399  0.00  0.00    +0.009 C 
ATOM     27  C   UNL     1     -13.947 -11.581  19.847  0.00  0.00    +0.009 C 
ENDBRANCH  20  22
BRANCH  20  25
ATOM      6  O   UNL     1     -11.486 -13.445  21.760  0.00  0.00    -0.249 OA
ATOM     25  C   UNL     1     -10.841 -12.996  20.818  0.00  0.00    +0.328 C 
BRANCH  25   5
ATOM      5  O   UNL     1      -9.560 -13.344  20.510  0.00  0.00    -0.467 OA
ATOM     30  C   UNL     1      -9.105 -14.588  21.053  0.00  0.00    +0.280 C 
ENDBRANCH  25   5
ENDBRANCH  20  25
ENDBRANCH  11  20
ENDBRANCH  14  18
BRANCH  19  21
ATOM     21  C   UNL     1      -6.363 -11.288  18.500  0.00  0.00    +0.107 C 
BRANCH  21  24
ATOM     24  C   UNL     1      -4.869 -11.047  18.582  0.00  0.00    +0.129 C 
BRANCH  24  28
ATOM      8  O   UNL     1      -3.322 -12.277  19.972  0.00  0.00    -0.251 OA
ATOM     28  C   UNL     1      -4.143 -12.278  19.064  0.00  0.00    +0.305 C 
BRANCH  28   7
ATOM      7  O   UNL     1      -4.482 -13.391  18.366  0.00  0.00    -0.481 OA
ATOM     39  H   UNL     1      -4.136 -13.368  17.450  0.00  0.00    +0.295 HD
ENDBRANCH  28   7
ENDBRANCH  24  28
ENDBRANCH  21  24
ENDBRANCH  19  21
TORSDOF 11
ENDMDL
MODEL 8
REMARK VINA RESULT:      -6.0     30.662     34.663
REMARK  Name = 7114682
REMARK  14 active torsions:
REMARK  status: ('A' for Active; 'I' for Inactive)
REMARK    1  A    between atoms: O_5  and  C_25
REMARK    2  A    between atoms: O_5  and  C_30
REMARK    3  A    between atoms: O_7  and  C_28
REMARK    4  A    between atoms: N_10  and  C_13
REMARK    5  A    between atoms: N_11  and  C_20
REMARK    6  A    between atoms: N_12  and  C_29
REMARK    7  A    between atoms: C_14  and  C_18
REMARK    8  A    between atoms: C_19  and  C_21
REMARK    9  A    between atoms: C_20  and  C_22
REMARK   10  A    between atoms: C_20  and  C_25
REMARK   11  A    between atoms: C_21  and  C_24
REMARK   12  A    between atoms: C_22  and  C_26
REMARK   13  A    between atoms: C_22  and  C_27
REMARK   14  A    between atoms: C_24  and  C_28
REMARK                            x       y       z     vdW  Elec       q    Type
REMARK                         _______ _______ _______ _____ _____    ______ ____
ROOT
ATOM      3  O   UNL     1      -2.518  -7.493  41.787  0.00  0.00    -0.276 OA
ATOM      9  N   UNL     1      -4.536  -7.242  40.652  0.00  0.00    -0.290 N 
ATOM     13  C   UNL     1      -6.792  -8.496  39.286  0.00  0.00    +0.078 C 
ATOM     14  C   UNL     1      -5.509  -6.386  39.956  0.00  0.00    +0.164 C 
ATOM     15  C   UNL     1      -6.278  -7.118  38.855  0.00  0.00    +0.054 C 
ATOM     16  C   UNL     1      -5.655  -9.319  39.887  0.00  0.00    +0.041 C 
ATOM     17  C   UNL     1      -4.999  -8.579  41.044  0.00  0.00    +0.110 C 
ATOM     19  C   UNL     1      -3.276  -6.815  41.088  0.00  0.00    +0.217 C 
ENDROOT
BRANCH  13  10
ATOM      4  O   UNL     1      -9.343  -9.798  39.255  0.00  0.00    -0.253 OA
ATOM     10  N   UNL     1      -7.391  -9.191  38.174  0.00  0.00    -0.296 N 
ATOM     12  N   UNL     1      -8.967 -10.395  37.016  0.00  0.00    -0.269 N 
ATOM     23  C   UNL     1      -8.648  -9.803  38.241  0.00  0.00    +0.304 C 
ATOM     36  H   UNL     1      -6.912  -9.173  37.278  0.00  0.00    +0.151 HD
ATOM     38  H   UNL     1      -8.277 -10.309  36.274  0.00  0.00    +0.156 HD
BRANCH  12  29
ATOM      1  F   UNL     1     -11.127 -14.434  35.578  0.00  0.00    -0.205 F 
ATOM     29  C   UNL     1     -10.140 -11.109  36.676  0.00  0.00    +0.037 A 
ATOM     31  C   UNL     1     -10.053 -12.445  36.286  0.00  0.00    +0.061 A 
ATOM     32  C   UNL     1     -11.382 -10.477  36.731  0.00  0.00    +0.023 A 
ATOM     33  C   UNL     1     -11.210 -13.150  35.952  0.00  0.00    +0.125 A 
ATOM     34  C   UNL     1     -12.538 -11.182  36.396  0.00  0.00    +0.005 A 
ATOM     35  C   UNL     1     -12.453 -12.518  36.007  0.00  0.00    +0.038 A 
ENDBRANCH  12  29
ENDBRANCH  13  10
BRANCH  14  18
ATOM      2  O   UNL     1      -6.155  -5.889  42.202  0.00  0.00    -0.274 OA
ATOM     11  N   UNL     1      -7.568  -5.269  40.459  0.00  0.00    -0.301 N 
ATOM     18  C   UNL     1      -6.424  -5.823  41.005  0.00  0.00    +0.234 C 
ATOM     37  H   UNL     1      -7.622  -5.153  39.452  0.00  0.00    +0.150 HD
BRANCH  11  20
ATOM     20  C   UNL     1      -8.620  -4.681  41.257  0.00  0.00    +0.184 C 
BRANCH  20  22
ATOM     22  C   UNL     1      -9.935  -5.489  41.188  0.00  0.00    +0.014 C 
ATOM     26  C   UNL     1      -9.919  -6.474  40.015  0.00  0.00    +0.009 C 
ATOM     27  C   UNL     1     -10.261  -6.228  42.489  0.00  0.00    +0.009 C 
ENDBRANCH  20  22
BRANCH  20  25
ATOM      6  O   UNL     1      -9.233  -2.862  39.786  0.00  0.00    -0.249 OA
ATOM     25  C   UNL     1      -8.849  -3.218  40.895  0.00  0.00    +0.328 C 
BRANCH  25   5
ATOM      5  O   UNL     1      -8.576  -2.381  41.936  0.00  0.00    -0.467 OA
ATOM     30  C   UNL     1      -8.326  -3.013  43.195  0.00  0.00    +0.280 C 
ENDBRANCH  25   5
ENDBRANCH  20  25
ENDBRANCH  11  20
ENDBRANCH  14  18
BRANCH  19  21
ATOM     21  C   UNL     1      -2.836  -5.441  40.651  0.00  0.00    +0.107 C 
BRANCH  21  24
ATOM     24  C   UNL     1      -1.554  -5.542  39.848  0.00  0.00    +0.129 C 
BRANCH  24  28
ATOM      8  O   UNL     1      -1.031  -5.944  37.524  0.00  0.00    -0.251 OA
ATOM     28  C   UNL     1      -1.839  -5.578  38.367  0.00  0.00    +0.305 C 
BRANCH  28   7
ATOM      7  O   UNL     1      -3.086  -5.138  38.065  0.00  0.00    -0.481 OA
ATOM     39  H   UNL     1      -3.065  -4.340  37.496  0.00  0.00    +0.295 HD
ENDBRANCH  28   7
ENDBRANCH  24  28
ENDBRANCH  21  24
ENDBRANCH  19  21
TORSDOF 11
ENDMDL
MODEL 9
REMARK VINA RESULT:      -5.9     15.517     17.805
REMARK  Name = 7114682
REMARK  14 active torsions:
REMARK  status: ('A' for Active; 'I' for Inactive)
REMARK    1  A    between atoms: O_5  and  C_25
REMARK    2  A    between atoms: O_5  and  C_30
REMARK    3  A    between atoms: O_7  and  C_28
REMARK    4  A    between atoms: N_10  and  C_13
REMARK    5  A    between atoms: N_11  and  C_20
REMARK    6  A    between atoms: N_12  and  C_29
REMARK    7  A    between atoms: C_14  and  C_18
REMARK    8  A    between atoms: C_19  and  C_21
REMARK    9  A    between atoms: C_20  and  C_22
REMARK   10  A    between atoms: C_20  and  C_25
REMARK   11  A    between atoms: C_21  and  C_24
REMARK   12  A    between atoms: C_22  and  C_26
REMARK   13  A    between atoms: C_22  and  C_27
REMARK   14  A    between atoms: C_24  and  C_28
REMARK                            x       y       z     vdW  Elec       q    Type
REMARK                         _______ _______ _______ _____ _____    ______ ____
ROOT
ATOM      3  O   UNL     1       8.059   7.015   6.475  0.00  0.00    -0.276 OA
ATOM      9  N   UNL     1      10.160   7.087   5.474  0.00  0.00    -0.290 N 
ATOM     13  C   UNL     1      13.050   7.375   5.780  0.00  0.00    +0.078 C 
ATOM     14  C   UNL     1      10.994   7.195   4.267  0.00  0.00    +0.164 C 
ATOM     15  C   UNL     1      12.338   7.882   4.522  0.00  0.00    +0.054 C 
ATOM     16  C   UNL     1      12.104   7.423   6.978  0.00  0.00    +0.041 C 
ATOM     17  C   UNL     1      10.832   6.634   6.698  0.00  0.00    +0.110 C 
ATOM     19  C   UNL     1       8.768   7.238   5.491  0.00  0.00    +0.217 C 
ENDROOT
BRANCH  13  10
ATOM      4  O   UNL     1      15.661   6.909   4.700  0.00  0.00    -0.253 OA
ATOM     10  N   UNL     1      14.241   8.146   6.040  0.00  0.00    -0.296 N 
ATOM     12  N   UNL     1      16.448   8.765   5.903  0.00  0.00    -0.269 N 
ATOM     23  C   UNL     1      15.484   7.850   5.470  0.00  0.00    +0.304 C 
ATOM     36  H   UNL     1      14.159   8.986   6.607  0.00  0.00    +0.151 HD
ATOM     38  H   UNL     1      16.135   9.488   6.546  0.00  0.00    +0.156 HD
BRANCH  12  29
ATOM      1  F   UNL     1      21.065   8.128   7.053  0.00  0.00    -0.205 F 
ATOM     29  C   UNL     1      17.820   8.809   5.558  0.00  0.00    +0.037 A 
ATOM     31  C   UNL     1      18.785   8.440   6.494  0.00  0.00    +0.061 A 
ATOM     32  C   UNL     1      18.205   9.222   4.283  0.00  0.00    +0.023 A 
ATOM     33  C   UNL     1      20.137   8.483   6.154  0.00  0.00    +0.125 A 
ATOM     34  C   UNL     1      19.557   9.265   3.944  0.00  0.00    +0.005 A 
ATOM     35  C   UNL     1      20.523   8.896   4.878  0.00  0.00    +0.038 A 
ENDBRANCH  12  29
ENDBRANCH  13  10
BRANCH  14  18
ATOM      2  O   UNL     1      10.732   4.821   4.324  0.00  0.00    -0.274 OA
ATOM     11  N   UNL     1      11.864   5.788   2.534  0.00  0.00    -0.301 N 
ATOM     18  C   UNL     1      11.164   5.805   3.728  0.00  0.00    +0.234 C 
ATOM     37  H   UNL     1      12.057   6.669   2.069  0.00  0.00    +0.150 HD
BRANCH  11  20
ATOM     20  C   UNL     1      12.182   4.572   1.821  0.00  0.00    +0.184 C 
BRANCH  20  22
ATOM     22  C   UNL     1      13.602   4.597   1.215  0.00  0.00    +0.014 C 
ATOM     26  C   UNL     1      14.325   5.905   1.549  0.00  0.00    +0.009 C 
ATOM     27  C   UNL     1      14.462   3.401   1.636  0.00  0.00    +0.009 C 
ENDBRANCH  20  22
BRANCH  20  25
ATOM      6  O   UNL     1       9.971   3.977   1.043  0.00  0.00    -0.249 OA
ATOM     25  C   UNL     1      11.133   4.251   0.762  0.00  0.00    +0.328 C 
BRANCH  25   5
ATOM      5  O   UNL     1      11.642   4.307  -0.501  0.00  0.00    -0.467 OA
ATOM     30  C   UNL     1      10.769   4.844  -1.500  0.00  0.00    +0.280 C 
ENDBRANCH  25   5
ENDBRANCH  20  25
ENDBRANCH  11  20
ENDBRANCH  14  18
BRANCH  19  21
ATOM     21  C   UNL     1       8.122   7.717   4.215  0.00  0.00    +0.107 C 
BRANCH  21  24
ATOM     24  C   UNL     1       7.875   9.210   4.293  0.00  0.00    +0.129 C 
BRANCH  24  28
ATOM      8  O   UNL     1       6.626   9.629   2.267  0.00  0.00    -0.251 OA
ATOM     28  C   UNL     1       6.660   9.604   3.491  0.00  0.00    +0.305 C 
BRANCH  28   7
ATOM      7  O   UNL     1       5.608   9.952   4.273  0.00  0.00    -0.481 OA
ATOM     39  H   UNL     1       5.187  10.785   3.973  0.00  0.00    +0.295 HD
ENDBRANCH  28   7
ENDBRANCH  24  28
ENDBRANCH  21  24
ENDBRANCH  19  21
TORSDOF 11
ENDMDL
MODEL 10
REMARK VINA RESULT:      -5.9      2.579      3.255
REMARK  Name = 7114682
REMARK  14 active torsions:
REMARK  status: ('A' for Active; 'I' for Inactive)
REMARK    1  A    between atoms: O_5  and  C_25
REMARK    2  A    between atoms: O_5  and  C_30
REMARK    3  A    between atoms: O_7  and  C_28
REMARK    4  A    between atoms: N_10  and  C_13
REMARK    5  A    between atoms: N_11  and  C_20
REMARK    6  A    between atoms: N_12  and  C_29
REMARK    7  A    between atoms: C_14  and  C_18
REMARK    8  A    between atoms: C_19  and  C_21
REMARK    9  A    between atoms: C_20  and  C_22
REMARK   10  A    between atoms: C_20  and  C_25
REMARK   11  A    between atoms: C_21  and  C_24
REMARK   12  A    between atoms: C_22  and  C_26
REMARK   13  A    between atoms: C_22  and  C_27
REMARK   14  A    between atoms: C_24  and  C_28
REMARK                            x       y       z     vdW  Elec       q    Type
REMARK                         _______ _______ _______ _____ _____    ______ ____
ROOT
ATOM      3  O   UNL     1      12.174   7.182  17.888  0.00  0.00    -0.276 OA
ATOM      9  N   UNL     1      13.883   7.997  19.243  0.00  0.00    -0.290 N 
ATOM     13  C   UNL     1      16.484   7.561  20.496  0.00  0.00    +0.078 C 
ATOM     14  C   UNL     1      14.378   8.987  20.212  0.00  0.00    +0.164 C 
ATOM     15  C   UNL     1      15.413   8.414  21.184  0.00  0.00    +0.054 C 
ATOM     16  C   UNL     1      15.828   6.503  19.611  0.00  0.00    +0.041 C 
ATOM     17  C   UNL     1      14.890   7.146  18.599  0.00  0.00    +0.110 C 
ATOM     19  C   UNL     1      12.558   7.922  18.797  0.00  0.00    +0.217 C 
ENDROOT
BRANCH  13  10
ATOM      4  O   UNL     1      19.103   8.435  21.255  0.00  0.00    -0.253 OA
ATOM     10  N   UNL     1      17.350   6.944  21.470  0.00  0.00    -0.296 N 
ATOM     12  N   UNL     1      19.226   6.636  22.759  0.00  0.00    -0.269 N 
ATOM     23  C   UNL     1      18.622   7.436  21.785  0.00  0.00    +0.304 C 
ATOM     36  H   UNL     1      16.993   6.157  22.006  0.00  0.00    +0.151 HD
ATOM     38  H   UNL     1      18.690   5.840  23.093  0.00  0.00    +0.156 HD
BRANCH  12  29
ATOM      1  F   UNL     1      22.107   8.679  26.010  0.00  0.00    -0.205 F 
ATOM     29  C   UNL     1      20.505   6.796  23.342  0.00  0.00    +0.037 A 
ATOM     31  C   UNL     1      20.679   7.677  24.408  0.00  0.00    +0.061 A 
ATOM     32  C   UNL     1      21.591   6.071  22.851  0.00  0.00    +0.023 A 
ATOM     33  C   UNL     1      21.940   7.833  24.985  0.00  0.00    +0.125 A 
ATOM     34  C   UNL     1      22.851   6.228  23.428  0.00  0.00    +0.005 A 
ATOM     35  C   UNL     1      23.026   7.108  24.494  0.00  0.00    +0.038 A 
ENDBRANCH  12  29
ENDBRANCH  13  10
BRANCH  14  18
ATOM      2  O   UNL     1      14.749  10.231  18.207  0.00  0.00    -0.274 OA
ATOM     11  N   UNL     1      15.642  11.023  20.205  0.00  0.00    -0.301 N 
ATOM     18  C   UNL     1      14.925  10.138  19.419  0.00  0.00    +0.234 C 
ATOM     37  H   UNL     1      15.611  10.915  21.214  0.00  0.00    +0.150 HD
BRANCH  11  20
ATOM     20  C   UNL     1      16.291  12.202  19.678  0.00  0.00    +0.184 C 
BRANCH  20  22
ATOM     22  C   UNL     1      17.822  12.035  19.573  0.00  0.00    +0.014 C 
ATOM     26  C   UNL     1      18.389  12.847  18.404  0.00  0.00    +0.009 C 
ATOM     27  C   UNL     1      18.561  12.394  20.865  0.00  0.00    +0.009 C 
ENDBRANCH  20  22
BRANCH  20  25
ATOM      6  O   UNL     1      16.073  14.584  20.036  0.00  0.00    -0.249 OA
ATOM     25  C   UNL     1      15.922  13.449  20.475  0.00  0.00    +0.328 C 
BRANCH  25   5
ATOM      5  O   UNL     1      15.420  13.144  21.706  0.00  0.00    -0.467 OA
ATOM     30  C   UNL     1      14.288  13.915  22.123  0.00  0.00    +0.280 C 
ENDBRANCH  25   5
ENDBRANCH  20  25
ENDBRANCH  11  20
ENDBRANCH  14  18
BRANCH  19  21
ATOM     21  C   UNL     1      11.554   8.805  19.496  0.00  0.00    +0.107 C 
BRANCH  21  24
ATOM     24  C   UNL     1      10.886   8.035  20.617  0.00  0.00    +0.129 C 
BRANCH  24  28
ATOM      8  O   UNL     1      12.026   8.972  22.531  0.00  0.00    -0.251 OA
ATOM     28  C   UNL     1      10.980   8.783  21.924  0.00  0.00    +0.305 C 
BRANCH  28   7
ATOM      7  O   UNL     1       9.771   9.208  22.370  0.00  0.00    -0.481 OA
ATOM     39  H   UNL     1       9.832  10.073  22.827  0.00  0.00    +0.295 HD
ENDBRANCH  28   7
ENDBRANCH  24  28
ENDBRANCH  21  24
ENDBRANCH  19  21
TORSDOF 11
ENDMDL
