MODEL 1
REMARK VINA RESULT:      -6.6      0.000      0.000
REMARK  Name = 7051260
REMARK  8 active torsions:
REMARK  status: ('A' for Active; 'I' for Inactive)
REMARK    1  A    between atoms: S_1  and  N_10
REMARK    2  A    between atoms: S_1  and  C_28
REMARK    3  A    between atoms: O_6  and  C_29
REMARK    4  A    between atoms: O_6  and  C_35
REMARK    5  A    between atoms: O_7  and  C_34
REMARK    6  A    between atoms: O_7  and  C_36
REMARK    7  A    between atoms: N_10  and  C_21
REMARK    8  A    between atoms: C_20  and  C_23
REMARK                            x       y       z     vdW  Elec       q    Type
REMARK                         _______ _______ _______ _____ _____    ______ ____
ROOT
ATOM      2  O   UNL     1      -3.875 -11.645  18.265  0.00  0.00    -0.266 OA
ATOM      3  O   UNL     1      -7.452 -15.148  16.930  0.00  0.00    -0.270 OA
ATOM      8  N   UNL     1      -8.572 -13.182  17.523  0.00  0.00    -0.297 N 
ATOM      9  N   UNL     1      -6.170 -11.197  18.116  0.00  0.00    -0.310 N 
ATOM     11  C   UNL     1      -7.896 -12.211  19.714  0.00  0.00    +0.027 C 
ATOM     12  C   UNL     1      -8.636 -10.727  17.893  0.00  0.00    +0.054 C 
ATOM     13  C   UNL     1      -8.711 -10.960  19.401  0.00  0.00    +0.018 C 
ATOM     14  C   UNL     1      -8.468 -13.427  18.962  0.00  0.00    +0.113 C 
ATOM     15  C   UNL     1      -6.429 -11.948  19.353  0.00  0.00    +0.130 C 
ATOM     16  C   UNL     1      -9.254 -11.931  17.154  0.00  0.00    +0.117 C 
ATOM     17  C   UNL     1      -7.201 -10.532  17.439  0.00  0.00    +0.027 A 
ATOM     18  C   UNL     1      -6.929  -9.756  16.375  0.00  0.00    +0.024 A 
ATOM     19  C   UNL     1      -4.824 -11.098  17.705  0.00  0.00    +0.274 A 
ATOM     20  C   UNL     1      -8.022 -14.102  16.627  0.00  0.00    +0.247 C 
ATOM     21  C   UNL     1      -4.591 -10.249  16.510  0.00  0.00    +0.112 A 
ATOM     22  C   UNL     1      -5.582  -9.609  15.891  0.00  0.00    +0.031 A 
ENDROOT
BRANCH  20  23
ATOM     23  C   UNL     1      -8.106 -13.800  15.195  0.00  0.00    +0.037 A 
ATOM     24  C   UNL     1      -9.168 -14.298  14.442  0.00  0.00    +0.016 A 
ATOM     25  C   UNL     1      -7.124 -13.017  14.594  0.00  0.00    +0.016 A 
ATOM     26  C   UNL     1      -9.246 -14.010  13.079  0.00  0.00    +0.046 A 
ATOM     27  C   UNL     1      -7.203 -12.729  13.231  0.00  0.00    +0.046 A 
ATOM     29  C   UNL     1      -8.264 -13.226  12.474  0.00  0.00    +0.120 A 
BRANCH  29   6
ATOM      6  O   UNL     1      -8.341 -12.948  11.143  0.00  0.00    -0.495 OA
ATOM     35  C   UNL     1      -7.195 -12.350  10.538  0.00  0.00    +0.277 C 
ENDBRANCH  29   6
ENDBRANCH  20  23
BRANCH  21  10
ATOM     10  N   UNL     1      -3.290 -10.089  16.000  0.00  0.00    -0.211 N 
ATOM     37  H   UNL     1      -3.121  -9.143  15.628  0.00  0.00    +0.174 HD
BRANCH  10   1
ATOM      1  S   UNL     1      -2.679 -11.343  15.041  0.00  0.00    +0.073 S 
ATOM      4  O   UNL     1      -1.247 -11.458  15.243  0.00  0.00    -0.150 OA
ATOM      5  O   UNL     1      -3.531 -12.510  15.162  0.00  0.00    -0.150 OA
BRANCH   1  28
ATOM     28  C   UNL     1      -2.931 -10.672  13.423  0.00  0.00    +0.109 A 
ATOM     30  C   UNL     1      -4.220 -10.534  12.943  0.00  0.00    +0.032 A 
ATOM     31  C   UNL     1      -1.832 -10.297  12.669  0.00  0.00    +0.032 A 
ATOM     32  C   UNL     1      -4.419 -10.005  11.668  0.00  0.00    +0.047 A 
ATOM     33  C   UNL     1      -2.031  -9.768  11.394  0.00  0.00    +0.047 A 
ATOM     34  C   UNL     1      -3.325  -9.622  10.894  0.00  0.00    +0.120 A 
BRANCH  34   7
ATOM      7  O   UNL     1      -3.518  -9.105   9.649  0.00  0.00    -0.495 OA
ATOM     36  C   UNL     1      -4.457  -9.772   8.808  0.00  0.00    +0.277 C 
ENDBRANCH  34   7
ENDBRANCH   1  28
ENDBRANCH  10   1
ENDBRANCH  21  10
TORSDOF 6
ENDMDL
MODEL 2
REMARK VINA RESULT:      -6.5     26.145     29.673
REMARK  Name = 7051260
REMARK  8 active torsions:
REMARK  status: ('A' for Active; 'I' for Inactive)
REMARK    1  A    between atoms: S_1  and  N_10
REMARK    2  A    between atoms: S_1  and  C_28
REMARK    3  A    between atoms: O_6  and  C_29
REMARK    4  A    between atoms: O_6  and  C_35
REMARK    5  A    between atoms: O_7  and  C_34
REMARK    6  A    between atoms: O_7  and  C_36
REMARK    7  A    between atoms: N_10  and  C_21
REMARK    8  A    between atoms: C_20  and  C_23
REMARK                            x       y       z     vdW  Elec       q    Type
REMARK                         _______ _______ _______ _____ _____    ______ ____
ROOT
ATOM      2  O   UNL     1      12.495   7.700   3.313  0.00  0.00    -0.266 OA
ATOM      3  O   UNL     1       9.195  11.152   5.324  0.00  0.00    -0.270 OA
ATOM      8  N   UNL     1       8.644   9.053   6.197  0.00  0.00    -0.297 N 
ATOM      9  N   UNL     1      10.896   7.199   4.950  0.00  0.00    -0.310 N 
ATOM     11  C   UNL     1       8.375   7.251   4.501  0.00  0.00    +0.027 C 
ATOM     12  C   UNL     1       9.206   6.699   6.752  0.00  0.00    +0.054 C 
ATOM     13  C   UNL     1       8.297   6.219   5.622  0.00  0.00    +0.018 C 
ATOM     14  C   UNL     1       7.909   8.629   5.005  0.00  0.00    +0.113 C 
ATOM     15  C   UNL     1       9.811   7.289   3.963  0.00  0.00    +0.130 C 
ATOM     16  C   UNL     1       8.700   8.057   7.279  0.00  0.00    +0.117 C 
ATOM     17  C   UNL     1      10.641   6.836   6.280  0.00  0.00    +0.027 A 
ATOM     18  C   UNL     1      11.657   6.647   7.141  0.00  0.00    +0.024 A 
ATOM     19  C   UNL     1      12.207   7.396   4.470  0.00  0.00    +0.274 A 
ATOM     20  C   UNL     1       9.240  10.316   6.224  0.00  0.00    +0.247 C 
ATOM     21  C   UNL     1      13.283   7.198   5.473  0.00  0.00    +0.112 A 
ATOM     22  C   UNL     1      13.022   6.835   6.729  0.00  0.00    +0.031 A 
ENDROOT
BRANCH  20  23
ATOM     23  C   UNL     1      10.006  10.688   7.418  0.00  0.00    +0.037 A 
ATOM     24  C   UNL     1      11.394  10.566   7.417  0.00  0.00    +0.016 A 
ATOM     25  C   UNL     1       9.342  11.161   8.547  0.00  0.00    +0.016 A 
ATOM     26  C   UNL     1      12.121  10.920   8.554  0.00  0.00    +0.046 A 
ATOM     27  C   UNL     1      10.070  11.514   9.683  0.00  0.00    +0.046 A 
ATOM     29  C   UNL     1      11.459  11.394   9.687  0.00  0.00    +0.120 A 
BRANCH  29   6
ATOM      6  O   UNL     1      12.170  11.737  10.796  0.00  0.00    -0.495 OA
ATOM     35  C   UNL     1      11.428  12.176  11.933  0.00  0.00    +0.277 C 
ENDBRANCH  29   6
ENDBRANCH  20  23
BRANCH  21  10
ATOM     10  N   UNL     1      14.630   7.383   5.112  0.00  0.00    -0.211 N 
ATOM     37  H   UNL     1      15.249   6.651   5.492  0.00  0.00    +0.174 HD
BRANCH  10   1
ATOM      1  S   UNL     1      15.247   8.955   5.220  0.00  0.00    +0.073 S 
ATOM      4  O   UNL     1      14.926   9.688   4.010  0.00  0.00    -0.150 OA
ATOM      5  O   UNL     1      14.933   9.515   6.520  0.00  0.00    -0.150 OA
BRANCH   1  28
ATOM     28  C   UNL     1      16.986   8.628   5.193  0.00  0.00    +0.109 A 
ATOM     30  C   UNL     1      17.737   8.880   6.326  0.00  0.00    +0.032 A 
ATOM     31  C   UNL     1      17.561   8.126   4.038  0.00  0.00    +0.032 A 
ATOM     32  C   UNL     1      19.107   8.621   6.305  0.00  0.00    +0.047 A 
ATOM     33  C   UNL     1      18.931   7.868   4.017  0.00  0.00    +0.047 A 
ATOM     34  C   UNL     1      19.705   8.116   5.151  0.00  0.00    +0.120 A 
BRANCH  34   7
ATOM      7  O   UNL     1      21.042   7.863   5.131  0.00  0.00    -0.495 OA
ATOM     36  C   UNL     1      21.455   6.590   4.635  0.00  0.00    +0.277 C 
ENDBRANCH  34   7
ENDBRANCH   1  28
ENDBRANCH  10   1
ENDBRANCH  21  10
TORSDOF 6
ENDMDL
MODEL 3
REMARK VINA RESULT:      -6.4     28.276     31.648
REMARK  Name = 7051260
REMARK  8 active torsions:
REMARK  status: ('A' for Active; 'I' for Inactive)
REMARK    1  A    between atoms: S_1  and  N_10
REMARK    2  A    between atoms: S_1  and  C_28
REMARK    3  A    between atoms: O_6  and  C_29
REMARK    4  A    between atoms: O_6  and  C_35
REMARK    5  A    between atoms: O_7  and  C_34
REMARK    6  A    between atoms: O_7  and  C_36
REMARK    7  A    between atoms: N_10  and  C_21
REMARK    8  A    between atoms: C_20  and  C_23
REMARK                            x       y       z     vdW  Elec       q    Type
REMARK                         _______ _______ _______ _____ _____    ______ ____
ROOT
ATOM      2  O   UNL     1      11.117   9.773  22.516  0.00  0.00    -0.266 OA
ATOM      3  O   UNL     1      14.412   6.191  20.736  0.00  0.00    -0.270 OA
ATOM      8  N   UNL     1      14.175   7.823  19.077  0.00  0.00    -0.297 N 
ATOM      9  N   UNL     1      12.273   9.937  20.485  0.00  0.00    -0.310 N 
ATOM     11  C   UNL     1      11.821   8.390  18.494  0.00  0.00    +0.027 C 
ATOM     12  C   UNL     1      13.572  10.115  18.332  0.00  0.00    +0.054 C 
ATOM     13  C   UNL     1      12.321   9.561  17.653  0.00  0.00    +0.018 C 
ATOM     14  C   UNL     1      12.901   7.296  18.586  0.00  0.00    +0.113 C 
ATOM     15  C   UNL     1      11.411   8.914  19.876  0.00  0.00    +0.130 C 
ATOM     16  C   UNL     1      14.660   9.023  18.377  0.00  0.00    +0.117 C 
ATOM     17  C   UNL     1      13.266  10.588  19.741  0.00  0.00    +0.027 A 
ATOM     18  C   UNL     1      13.968  11.601  20.281  0.00  0.00    +0.024 A 
ATOM     19  C   UNL     1      11.985  10.296  21.818  0.00  0.00    +0.274 A 
ATOM     20  C   UNL     1      14.813   7.194  20.149  0.00  0.00    +0.247 C 
ATOM     21  C   UNL     1      12.809  11.401  22.366  0.00  0.00    +0.112 A 
ATOM     22  C   UNL     1      13.737  12.022  21.637  0.00  0.00    +0.031 A 
ENDROOT
BRANCH  20  23
ATOM     23  C   UNL     1      16.064   7.778  20.641  0.00  0.00    +0.037 A 
ATOM     24  C   UNL     1      16.036   8.962  21.374  0.00  0.00    +0.016 A 
ATOM     25  C   UNL     1      17.275   7.146  20.371  0.00  0.00    +0.016 A 
ATOM     26  C   UNL     1      17.228   9.517  21.841  0.00  0.00    +0.046 A 
ATOM     27  C   UNL     1      18.467   7.701  20.839  0.00  0.00    +0.046 A 
ATOM     29  C   UNL     1      18.443   8.886  21.573  0.00  0.00    +0.120 A 
BRANCH  29   6
ATOM      6  O   UNL     1      19.606   9.430  22.028  0.00  0.00    -0.495 OA
ATOM     35  C   UNL     1      20.144   8.894  23.237  0.00  0.00    +0.277 C 
ENDBRANCH  29   6
ENDBRANCH  20  23
BRANCH  21  10
ATOM     10  N   UNL     1      12.621  11.835  23.691  0.00  0.00    -0.211 N 
ATOM     37  H   UNL     1      12.707  11.072  24.377  0.00  0.00    +0.174 HD
BRANCH  10   1
ATOM      1  S   UNL     1      11.336  12.899  23.977  0.00  0.00    +0.073 S 
ATOM      4  O   UNL     1      11.290  13.902  22.929  0.00  0.00    -0.150 OA
ATOM      5  O   UNL     1      10.146  12.146  24.321  0.00  0.00    -0.150 OA
BRANCH   1  28
ATOM     28  C   UNL     1      11.896  13.702  25.450  0.00  0.00    +0.109 A 
ATOM     30  C   UNL     1      13.140  13.380  25.963  0.00  0.00    +0.032 A 
ATOM     31  C   UNL     1      11.079  14.638  26.062  0.00  0.00    +0.032 A 
ATOM     32  C   UNL     1      13.582  14.014  27.124  0.00  0.00    +0.047 A 
ATOM     33  C   UNL     1      11.521  15.270  27.223  0.00  0.00    +0.047 A 
ATOM     34  C   UNL     1      12.773  14.958  27.755  0.00  0.00    +0.120 A 
BRANCH  34   7
ATOM      7  O   UNL     1      13.204  15.578  28.888  0.00  0.00    -0.495 OA
ATOM     36  C   UNL     1      12.457  15.343  30.081  0.00  0.00    +0.277 C 
ENDBRANCH  34   7
ENDBRANCH   1  28
ENDBRANCH  10   1
ENDBRANCH  21  10
TORSDOF 6
ENDMDL
MODEL 4
REMARK VINA RESULT:      -6.4     23.797     28.161
REMARK  Name = 7051260
REMARK  8 active torsions:
REMARK  status: ('A' for Active; 'I' for Inactive)
REMARK    1  A    between atoms: S_1  and  N_10
REMARK    2  A    between atoms: S_1  and  C_28
REMARK    3  A    between atoms: O_6  and  C_29
REMARK    4  A    between atoms: O_6  and  C_35
REMARK    5  A    between atoms: O_7  and  C_34
REMARK    6  A    between atoms: O_7  and  C_36
REMARK    7  A    between atoms: N_10  and  C_21
REMARK    8  A    between atoms: C_20  and  C_23
REMARK                            x       y       z     vdW  Elec       q    Type
REMARK                         _______ _______ _______ _____ _____    ______ ____
ROOT
ATOM      2  O   UNL     1      13.270   7.916   1.994  0.00  0.00    -0.266 OA
ATOM      3  O   UNL     1      10.951  10.007   6.128  0.00  0.00    -0.270 OA
ATOM      8  N   UNL     1       9.277   9.184   4.718  0.00  0.00    -0.297 N 
ATOM      9  N   UNL     1      10.964   7.831   2.396  0.00  0.00    -0.310 N 
ATOM     11  C   UNL     1       9.460   9.904   2.341  0.00  0.00    +0.027 C 
ATOM     12  C   UNL     1       8.494   7.705   2.882  0.00  0.00    +0.054 C 
ATOM     13  C   UNL     1       8.357   8.920   1.966  0.00  0.00    +0.018 C 
ATOM     14  C   UNL     1       9.320  10.334   3.813  0.00  0.00    +0.113 C 
ATOM     15  C   UNL     1      10.820   9.254   2.057  0.00  0.00    +0.130 C 
ATOM     16  C   UNL     1       8.305   8.142   4.349  0.00  0.00    +0.117 C 
ATOM     17  C   UNL     1       9.850   7.044   2.717  0.00  0.00    +0.027 A 
ATOM     18  C   UNL     1       9.984   5.720   2.912  0.00  0.00    +0.024 A 
ATOM     19  C   UNL     1      12.257   7.281   2.285  0.00  0.00    +0.274 A 
ATOM     20  C   UNL     1      10.139   9.139   5.816  0.00  0.00    +0.247 C 
ATOM     21  C   UNL     1      12.346   5.821   2.537  0.00  0.00    +0.112 A 
ATOM     22  C   UNL     1      11.272   5.085   2.822  0.00  0.00    +0.031 A 
ENDROOT
BRANCH  20  23
ATOM     23  C   UNL     1      10.097   7.950   6.673  0.00  0.00    +0.037 A 
ATOM     24  C   UNL     1      11.063   6.957   6.529  0.00  0.00    +0.016 A 
ATOM     25  C   UNL     1       9.090   7.820   7.627  0.00  0.00    +0.016 A 
ATOM     26  C   UNL     1      11.021   5.826   7.345  0.00  0.00    +0.046 A 
ATOM     27  C   UNL     1       9.049   6.689   8.442  0.00  0.00    +0.046 A 
ATOM     29  C   UNL     1      10.014   5.693   8.302  0.00  0.00    +0.120 A 
BRANCH  29   6
ATOM      6  O   UNL     1       9.974   4.588   9.096  0.00  0.00    -0.495 OA
ATOM     35  C   UNL     1       9.039   4.597  10.174  0.00  0.00    +0.277 C 
ENDBRANCH  29   6
ENDBRANCH  20  23
BRANCH  21  10
ATOM     10  N   UNL     1      13.588   5.165   2.470  0.00  0.00    -0.211 N 
ATOM     37  H   UNL     1      14.367   5.806   2.258  0.00  0.00    +0.174 HD
BRANCH  10   1
ATOM      1  S   UNL     1      13.638   3.695   1.634  0.00  0.00    +0.073 S 
ATOM      4  O   UNL     1      15.002   3.202   1.593  0.00  0.00    -0.150 OA
ATOM      5  O   UNL     1      12.564   2.835   2.092  0.00  0.00    -0.150 OA
BRANCH   1  28
ATOM     28  C   UNL     1      13.223   4.231  -0.000  0.00  0.00    +0.109 A 
ATOM     30  C   UNL     1      12.064   3.760  -0.591  0.00  0.00    +0.032 A 
ATOM     31  C   UNL     1      14.065   5.112  -0.657  0.00  0.00    +0.032 A 
ATOM     32  C   UNL     1      11.737   4.183  -1.879  0.00  0.00    +0.047 A 
ATOM     33  C   UNL     1      13.738   5.534  -1.944  0.00  0.00    +0.047 A 
ATOM     34  C   UNL     1      12.573   5.070  -2.556  0.00  0.00    +0.120 A 
BRANCH  34   7
ATOM      7  O   UNL     1      12.253   5.484  -3.813  0.00  0.00    -0.495 OA
ATOM     36  C   UNL     1      11.038   4.985  -4.371  0.00  0.00    +0.277 C 
ENDBRANCH  34   7
ENDBRANCH   1  28
ENDBRANCH  10   1
ENDBRANCH  21  10
TORSDOF 6
ENDMDL
MODEL 5
REMARK VINA RESULT:      -6.4     30.081     33.880
REMARK  Name = 7051260
REMARK  8 active torsions:
REMARK  status: ('A' for Active; 'I' for Inactive)
REMARK    1  A    between atoms: S_1  and  N_10
REMARK    2  A    between atoms: S_1  and  C_28
REMARK    3  A    between atoms: O_6  and  C_29
REMARK    4  A    between atoms: O_6  and  C_35
REMARK    5  A    between atoms: O_7  and  C_34
REMARK    6  A    between atoms: O_7  and  C_36
REMARK    7  A    between atoms: N_10  and  C_21
REMARK    8  A    between atoms: C_20  and  C_23
REMARK                            x       y       z     vdW  Elec       q    Type
REMARK                         _______ _______ _______ _____ _____    ______ ____
ROOT
ATOM      2  O   UNL     1      20.777   4.045  20.356  0.00  0.00    -0.266 OA
ATOM      3  O   UNL     1      22.190   2.294  25.024  0.00  0.00    -0.270 OA
ATOM      8  N   UNL     1      24.139   2.659  23.783  0.00  0.00    -0.297 N 
ATOM      9  N   UNL     1      22.997   3.870  21.083  0.00  0.00    -0.310 N 
ATOM     11  C   UNL     1      24.150   1.624  21.519  0.00  0.00    +0.027 C 
ATOM     12  C   UNL     1      25.374   3.725  21.910  0.00  0.00    +0.054 C 
ATOM     13  C   UNL     1      25.433   2.380  21.188  0.00  0.00    +0.018 C 
ATOM     14  C   UNL     1      24.031   1.404  23.038  0.00  0.00    +0.113 C 
ATOM     15  C   UNL     1      22.957   2.406  20.955  0.00  0.00    +0.130 C 
ATOM     16  C   UNL     1      25.302   3.490  23.433  0.00  0.00    +0.117 C 
ATOM     17  C   UNL     1      24.171   4.535  21.462  0.00  0.00    +0.027 A 
ATOM     18  C   UNL     1      24.223   5.879  21.463  0.00  0.00    +0.024 A 
ATOM     19  C   UNL     1      21.831   4.571  20.711  0.00  0.00    +0.274 A 
ATOM     20  C   UNL     1      23.162   2.986  24.726  0.00  0.00    +0.247 C 
ATOM     21  C   UNL     1      21.942   6.050  20.758  0.00  0.00    +0.112 A 
ATOM     22  C   UNL     1      23.074   6.665  21.102  0.00  0.00    +0.031 A 
ENDROOT
BRANCH  20  23
ATOM     23  C   UNL     1      23.281   4.272  25.421  0.00  0.00    +0.037 A 
ATOM     24  C   UNL     1      22.731   5.419  24.853  0.00  0.00    +0.016 A 
ATOM     25  C   UNL     1      23.943   4.339  26.643  0.00  0.00    +0.016 A 
ATOM     26  C   UNL     1      22.846   6.642  25.515  0.00  0.00    +0.046 A 
ATOM     27  C   UNL     1      24.057   5.562  27.304  0.00  0.00    +0.046 A 
ATOM     29  C   UNL     1      23.509   6.713  26.740  0.00  0.00    +0.120 A 
BRANCH  29   6
ATOM      6  O   UNL     1      23.621   7.908  27.384  0.00  0.00    -0.495 OA
ATOM     35  C   UNL     1      22.478   8.367  28.104  0.00  0.00    +0.277 C 
ENDBRANCH  29   6
ENDBRANCH  20  23
BRANCH  21  10
ATOM     10  N   UNL     1      20.838   6.854  20.422  0.00  0.00    -0.211 N 
ATOM     37  H   UNL     1      21.080   7.614  19.770  0.00  0.00    +0.174 HD
BRANCH  10   1
ATOM      1  S   UNL     1      19.806   7.309  21.684  0.00  0.00    +0.073 S 
ATOM      4  O   UNL     1      19.792   6.274  22.701  0.00  0.00    -0.150 OA
ATOM      5  O   UNL     1      20.061   8.689  22.050  0.00  0.00    -0.150 OA
BRANCH   1  28
ATOM     28  C   UNL     1      18.240   7.263  20.862  0.00  0.00    +0.109 A 
ATOM     30  C   UNL     1      17.971   6.230  19.982  0.00  0.00    +0.032 A 
ATOM     31  C   UNL     1      17.314   8.260  21.115  0.00  0.00    +0.032 A 
ATOM     32  C   UNL     1      16.736   6.192  19.335  0.00  0.00    +0.047 A 
ATOM     33  C   UNL     1      16.080   8.223  20.467  0.00  0.00    +0.047 A 
ATOM     34  C   UNL     1      15.791   7.189  19.576  0.00  0.00    +0.120 A 
BRANCH  34   7
ATOM      7  O   UNL     1      14.586   7.152  18.944  0.00  0.00    -0.495 OA
ATOM     36  C   UNL     1      13.436   6.906  19.754  0.00  0.00    +0.277 C 
ENDBRANCH  34   7
ENDBRANCH   1  28
ENDBRANCH  10   1
ENDBRANCH  21  10
TORSDOF 6
ENDMDL
MODEL 6
REMARK VINA RESULT:      -6.3      3.323      6.890
REMARK  Name = 7051260
REMARK  8 active torsions:
REMARK  status: ('A' for Active; 'I' for Inactive)
REMARK    1  A    between atoms: S_1  and  N_10
REMARK    2  A    between atoms: S_1  and  C_28
REMARK    3  A    between atoms: O_6  and  C_29
REMARK    4  A    between atoms: O_6  and  C_35
REMARK    5  A    between atoms: O_7  and  C_34
REMARK    6  A    between atoms: O_7  and  C_36
REMARK    7  A    between atoms: N_10  and  C_21
REMARK    8  A    between atoms: C_20  and  C_23
REMARK                            x       y       z     vdW  Elec       q    Type
REMARK                         _______ _______ _______ _____ _____    ______ ____
ROOT
ATOM      2  O   UNL     1      -5.004 -12.481  16.809  0.00  0.00    -0.266 OA
ATOM      3  O   UNL     1      -1.641 -10.544  13.377  0.00  0.00    -0.270 OA
ATOM      8  N   UNL     1      -2.483 -12.540  12.495  0.00  0.00    -0.297 N 
ATOM      9  N   UNL     1      -4.606 -13.398  14.690  0.00  0.00    -0.310 N 
ATOM     11  C   UNL     1      -2.384 -14.491  14.038  0.00  0.00    +0.027 C 
ATOM     12  C   UNL     1      -4.201 -14.330  12.384  0.00  0.00    +0.054 C 
ATOM     13  C   UNL     1      -3.231 -15.298  13.059  0.00  0.00    +0.018 C 
ATOM     14  C   UNL     1      -1.603 -13.393  13.294  0.00  0.00    +0.113 C 
ATOM     15  C   UNL     1      -3.300 -13.913  15.124  0.00  0.00    +0.130 C 
ATOM     16  C   UNL     1      -3.406 -13.263  11.605  0.00  0.00    +0.117 C 
ATOM     17  C   UNL     1      -5.099 -13.654  13.404  0.00  0.00    +0.027 A 
ATOM     18  C   UNL     1      -6.343 -13.274  13.062  0.00  0.00    +0.024 A 
ATOM     19  C   UNL     1      -5.375 -12.723  15.661  0.00  0.00    +0.274 A 
ATOM     20  C   UNL     1      -2.411 -11.152  12.636  0.00  0.00    +0.247 C 
ATOM     21  C   UNL     1      -6.728 -12.306  15.217  0.00  0.00    +0.112 A 
ATOM     22  C   UNL     1      -7.187 -12.576  13.995  0.00  0.00    +0.031 A 
ENDROOT
BRANCH  20  23
ATOM     23  C   UNL     1      -3.340 -10.333  11.851  0.00  0.00    +0.037 A 
ATOM     24  C   UNL     1      -2.920  -9.764  10.651  0.00  0.00    +0.016 A 
ATOM     25  C   UNL     1      -4.638 -10.127  12.311  0.00  0.00    +0.016 A 
ATOM     26  C   UNL     1      -3.805  -8.984   9.906  0.00  0.00    +0.046 A 
ATOM     27  C   UNL     1      -5.523  -9.347  11.565  0.00  0.00    +0.046 A 
ATOM     29  C   UNL     1      -5.106  -8.776  10.363  0.00  0.00    +0.120 A 
BRANCH  29   6
ATOM      6  O   UNL     1      -5.968  -8.013   9.636  0.00  0.00    -0.495 OA
ATOM     35  C   UNL     1      -7.319  -8.465   9.549  0.00  0.00    +0.277 C 
ENDBRANCH  29   6
ENDBRANCH  20  23
BRANCH  21  10
ATOM     10  N   UNL     1      -7.579 -11.611  16.096  0.00  0.00    -0.211 N 
ATOM     37  H   UNL     1      -8.576 -11.740  15.871  0.00  0.00    +0.174 HD
BRANCH  10   1
ATOM      1  S   UNL     1      -7.145 -10.025  16.494  0.00  0.00    +0.073 S 
ATOM      4  O   UNL     1      -6.914  -9.927  17.923  0.00  0.00    -0.150 OA
ATOM      5  O   UNL     1      -6.149  -9.540  15.558  0.00  0.00    -0.150 OA
BRANCH   1  28
ATOM     28  C   UNL     1      -8.655  -9.173  16.145  0.00  0.00    +0.109 A 
ATOM     30  C   UNL     1      -9.248  -9.332  14.905  0.00  0.00    +0.032 A 
ATOM     31  C   UNL     1      -9.215  -8.363  17.118  0.00  0.00    +0.032 A 
ATOM     32  C   UNL     1     -10.440  -8.662  14.630  0.00  0.00    +0.047 A 
ATOM     33  C   UNL     1     -10.406  -7.692  16.842  0.00  0.00    +0.047 A 
ATOM     34  C   UNL     1     -11.018  -7.841  15.597  0.00  0.00    +0.120 A 
BRANCH  34   7
ATOM      7  O   UNL     1     -12.181  -7.186  15.329  0.00  0.00    -0.495 OA
ATOM     36  C   UNL     1     -12.082  -5.811  14.961  0.00  0.00    +0.277 C 
ENDBRANCH  34   7
ENDBRANCH   1  28
ENDBRANCH  10   1
ENDBRANCH  21  10
TORSDOF 6
ENDMDL
MODEL 7
REMARK VINA RESULT:      -6.3     25.522     29.706
REMARK  Name = 7051260
REMARK  8 active torsions:
REMARK  status: ('A' for Active; 'I' for Inactive)
REMARK    1  A    between atoms: S_1  and  N_10
REMARK    2  A    between atoms: S_1  and  C_28
REMARK    3  A    between atoms: O_6  and  C_29
REMARK    4  A    between atoms: O_6  and  C_35
REMARK    5  A    between atoms: O_7  and  C_34
REMARK    6  A    between atoms: O_7  and  C_36
REMARK    7  A    between atoms: N_10  and  C_21
REMARK    8  A    between atoms: C_20  and  C_23
REMARK                            x       y       z     vdW  Elec       q    Type
REMARK                         _______ _______ _______ _____ _____    ______ ____
ROOT
ATOM      2  O   UNL     1      12.476   7.337   3.350  0.00  0.00    -0.266 OA
ATOM      3  O   UNL     1       8.666   9.781   5.871  0.00  0.00    -0.270 OA
ATOM      8  N   UNL     1       9.092   7.778   7.001  0.00  0.00    -0.297 N 
ATOM      9  N   UNL     1      11.541   6.597   5.367  0.00  0.00    -0.310 N 
ATOM     11  C   UNL     1       9.132   5.749   5.559  0.00  0.00    +0.027 C 
ATOM     12  C   UNL     1      10.557   5.853   7.565  0.00  0.00    +0.054 C 
ATOM     13  C   UNL     1       9.662   4.935   6.734  0.00  0.00    +0.018 C 
ATOM     14  C   UNL     1       8.323   6.958   6.064  0.00  0.00    +0.113 C 
ATOM     15  C   UNL     1      10.313   6.173   4.678  0.00  0.00    +0.130 C 
ATOM     16  C   UNL     1       9.724   7.035   8.103  0.00  0.00    +0.117 C 
ATOM     17  C   UNL     1      11.717   6.380   6.740  0.00  0.00    +0.027 A 
ATOM     18  C   UNL     1      12.890   6.669   7.331  0.00  0.00    +0.024 A 
ATOM     19  C   UNL     1      12.565   7.137   4.561  0.00  0.00    +0.274 A 
ATOM     20  C   UNL     1       9.192   9.155   6.788  0.00  0.00    +0.247 C 
ATOM     21  C   UNL     1      13.825   7.460   5.275  0.00  0.00    +0.112 A 
ATOM     22  C   UNL     1      13.980   7.229   6.578  0.00  0.00    +0.031 A 
ENDROOT
BRANCH  20  23
ATOM     23  C   UNL     1      10.008   9.937   7.723  0.00  0.00    +0.037 A 
ATOM     24  C   UNL     1       9.419  10.507   8.849  0.00  0.00    +0.016 A 
ATOM     25  C   UNL     1      11.369  10.107   7.478  0.00  0.00    +0.016 A 
ATOM     26  C   UNL     1      10.197  11.251   9.737  0.00  0.00    +0.046 A 
ATOM     27  C   UNL     1      12.146  10.851   8.367  0.00  0.00    +0.046 A 
ATOM     29  C   UNL     1      11.560  11.422   9.495  0.00  0.00    +0.120 A 
BRANCH  29   6
ATOM      6  O   UNL     1      12.317  12.150  10.362  0.00  0.00    -0.495 OA
ATOM     35  C   UNL     1      11.830  12.282  11.697  0.00  0.00    +0.277 C 
ENDBRANCH  29   6
ENDBRANCH  20  23
BRANCH  21  10
ATOM     10  N   UNL     1      14.911   8.018   4.576  0.00  0.00    -0.211 N 
ATOM     37  H   UNL     1      15.807   7.561   4.800  0.00  0.00    +0.174 HD
BRANCH  10   1
ATOM      1  S   UNL     1      14.983   9.707   4.488  0.00  0.00    +0.073 S 
ATOM      4  O   UNL     1      15.242  10.113   3.120  0.00  0.00    -0.150 OA
ATOM      5  O   UNL     1      13.875  10.283   5.224  0.00  0.00    -0.150 OA
BRANCH   1  28
ATOM     28  C   UNL     1      16.454  10.022   5.419  0.00  0.00    +0.109 A 
ATOM     30  C   UNL     1      17.419   9.035   5.511  0.00  0.00    +0.032 A 
ATOM     31  C   UNL     1      16.612  11.250   6.037  0.00  0.00    +0.032 A 
ATOM     32  C   UNL     1      18.579   9.283   6.244  0.00  0.00    +0.047 A 
ATOM     33  C   UNL     1      17.772  11.499   6.771  0.00  0.00    +0.047 A 
ATOM     34  C   UNL     1      18.755  10.515   6.875  0.00  0.00    +0.120 A 
BRANCH  34   7
ATOM      7  O   UNL     1      19.888  10.758   7.590  0.00  0.00    -0.495 OA
ATOM     36  C   UNL     1      19.851  11.843   8.515  0.00  0.00    +0.277 C 
ENDBRANCH  34   7
ENDBRANCH   1  28
ENDBRANCH  10   1
ENDBRANCH  21  10
TORSDOF 6
ENDMDL
MODEL 8
REMARK VINA RESULT:      -6.2     25.399     29.541
REMARK  Name = 7051260
REMARK  8 active torsions:
REMARK  status: ('A' for Active; 'I' for Inactive)
REMARK    1  A    between atoms: S_1  and  N_10
REMARK    2  A    between atoms: S_1  and  C_28
REMARK    3  A    between atoms: O_6  and  C_29
REMARK    4  A    between atoms: O_6  and  C_35
REMARK    5  A    between atoms: O_7  and  C_34
REMARK    6  A    between atoms: O_7  and  C_36
REMARK    7  A    between atoms: N_10  and  C_21
REMARK    8  A    between atoms: C_20  and  C_23
REMARK                            x       y       z     vdW  Elec       q    Type
REMARK                         _______ _______ _______ _____ _____    ______ ____
ROOT
ATOM      2  O   UNL     1      14.004   6.537   7.239  0.00  0.00    -0.266 OA
ATOM      3  O   UNL     1      10.572   4.995   3.676  0.00  0.00    -0.270 OA
ATOM      8  N   UNL     1       9.460   6.421   5.161  0.00  0.00    -0.297 N 
ATOM      9  N   UNL     1      11.804   7.330   7.096  0.00  0.00    -0.310 N 
ATOM     11  C   UNL     1       9.759   5.864   7.570  0.00  0.00    +0.027 C 
ATOM     12  C   UNL     1       9.452   8.209   6.884  0.00  0.00    +0.054 C 
ATOM     13  C   UNL     1       9.082   7.178   7.948  0.00  0.00    +0.018 C 
ATOM     14  C   UNL     1       9.278   5.391   6.185  0.00  0.00    +0.113 C 
ATOM     15  C   UNL     1      11.279   6.060   7.616  0.00  0.00    +0.130 C 
ATOM     16  C   UNL     1       8.924   7.746   5.511  0.00  0.00    +0.117 C 
ATOM     17  C   UNL     1      10.955   8.408   6.813  0.00  0.00    +0.027 A 
ATOM     18  C   UNL     1      11.462   9.599   6.447  0.00  0.00    +0.024 A 
ATOM     19  C   UNL     1      13.207   7.440   6.991  0.00  0.00    +0.274 A 
ATOM     20  C   UNL     1      10.123   6.100   3.974  0.00  0.00    +0.247 C 
ATOM     21  C   UNL     1      13.705   8.769   6.558  0.00  0.00    +0.112 A 
ATOM     22  C   UNL     1      12.882   9.789   6.313  0.00  0.00    +0.031 A 
ENDROOT
BRANCH  20  23
ATOM     23  C   UNL     1      10.326   7.170   2.991  0.00  0.00    +0.037 A 
ATOM     24  C   UNL     1       9.373   7.391   2.000  0.00  0.00    +0.016 A 
ATOM     25  C   UNL     1      11.472   7.958   3.054  0.00  0.00    +0.016 A 
ATOM     26  C   UNL     1       9.569   8.408   1.065  0.00  0.00    +0.046 A 
ATOM     27  C   UNL     1      11.667   8.975   2.119  0.00  0.00    +0.046 A 
ATOM     29  C   UNL     1      10.715   9.199   1.125  0.00  0.00    +0.120 A 
BRANCH  29   6
ATOM      6  O   UNL     1      10.905  10.190   0.210  0.00  0.00    -0.495 OA
ATOM     35  C   UNL     1      12.241  10.660   0.031  0.00  0.00    +0.277 C 
ENDBRANCH  29   6
ENDBRANCH  20  23
BRANCH  21  10
ATOM     10  N   UNL     1      15.085   8.992   6.404  0.00  0.00    -0.211 N 
ATOM     37  H   UNL     1      15.458   9.671   7.084  0.00  0.00    +0.174 HD
BRANCH  10   1
ATOM      1  S   UNL     1      15.662   9.186   4.825  0.00  0.00    +0.073 S 
ATOM      4  O   UNL     1      15.033   8.212   3.953  0.00  0.00    -0.150 OA
ATOM      5  O   UNL     1      15.660  10.592   4.473  0.00  0.00    -0.150 OA
BRANCH   1  28
ATOM     28  C   UNL     1      17.350   8.697   5.030  0.00  0.00    +0.109 A 
ATOM     30  C   UNL     1      17.972   8.910   6.247  0.00  0.00    +0.032 A 
ATOM     31  C   UNL     1      18.016   8.109   3.968  0.00  0.00    +0.032 A 
ATOM     32  C   UNL     1      19.302   8.524   6.409  0.00  0.00    +0.047 A 
ATOM     33  C   UNL     1      19.347   7.724   4.130  0.00  0.00    +0.047 A 
ATOM     34  C   UNL     1      19.990   7.931   5.350  0.00  0.00    +0.120 A 
BRANCH  34   7
ATOM      7  O   UNL     1      21.288   7.553   5.508  0.00  0.00    -0.495 OA
ATOM     36  C   UNL     1      21.848   6.717   4.496  0.00  0.00    +0.277 C 
ENDBRANCH  34   7
ENDBRANCH   1  28
ENDBRANCH  10   1
ENDBRANCH  21  10
TORSDOF 6
ENDMDL
MODEL 9
REMARK VINA RESULT:      -6.1      3.165      7.284
REMARK  Name = 7051260
REMARK  8 active torsions:
REMARK  status: ('A' for Active; 'I' for Inactive)
REMARK    1  A    between atoms: S_1  and  N_10
REMARK    2  A    between atoms: S_1  and  C_28
REMARK    3  A    between atoms: O_6  and  C_29
REMARK    4  A    between atoms: O_6  and  C_35
REMARK    5  A    between atoms: O_7  and  C_34
REMARK    6  A    between atoms: O_7  and  C_36
REMARK    7  A    between atoms: N_10  and  C_21
REMARK    8  A    between atoms: C_20  and  C_23
REMARK                            x       y       z     vdW  Elec       q    Type
REMARK                         _______ _______ _______ _____ _____    ______ ____
ROOT
ATOM      2  O   UNL     1      -6.313  -9.882  15.048  0.00  0.00    -0.266 OA
ATOM      3  O   UNL     1      -6.294 -13.905  11.782  0.00  0.00    -0.270 OA
ATOM      8  N   UNL     1      -4.411 -12.600  11.311  0.00  0.00    -0.297 N 
ATOM      9  N   UNL     1      -4.585 -10.346  13.536  0.00  0.00    -0.310 N 
ATOM     11  C   UNL     1      -4.869 -10.173  10.997  0.00  0.00    +0.027 C 
ATOM     12  C   UNL     1      -2.714 -10.899  11.941  0.00  0.00    +0.054 C 
ATOM     13  C   UNL     1      -3.369  -9.899  10.990  0.00  0.00    +0.018 C 
ATOM     14  C   UNL     1      -5.155 -11.612  10.529  0.00  0.00    +0.113 C 
ATOM     15  C   UNL     1      -5.414  -9.905  12.405  0.00  0.00    +0.130 C 
ATOM     16  C   UNL     1      -2.969 -12.334  11.435  0.00  0.00    +0.117 C 
ATOM     17  C   UNL     1      -3.256 -10.751  13.350  0.00  0.00    +0.027 A 
ATOM     18  C   UNL     1      -2.477 -11.041  14.408  0.00  0.00    +0.024 A 
ATOM     19  C   UNL     1      -5.160 -10.245  14.820  0.00  0.00    +0.274 A 
ATOM     20  C   UNL     1      -5.090 -13.677  11.884  0.00  0.00    +0.247 C 
ATOM     21  C   UNL     1      -4.259 -10.602  15.944  0.00  0.00    +0.112 A 
ATOM     22  C   UNL     1      -2.992 -10.967  15.749  0.00  0.00    +0.031 A 
ENDROOT
BRANCH  20  23
ATOM     23  C   UNL     1      -4.318 -14.622  12.698  0.00  0.00    +0.037 A 
ATOM     24  C   UNL     1      -3.837 -15.798  12.126  0.00  0.00    +0.016 A 
ATOM     25  C   UNL     1      -4.070 -14.338  14.038  0.00  0.00    +0.016 A 
ATOM     26  C   UNL     1      -3.103 -16.695  12.902  0.00  0.00    +0.046 A 
ATOM     27  C   UNL     1      -3.336 -15.236  14.813  0.00  0.00    +0.046 A 
ATOM     29  C   UNL     1      -2.853 -16.415  14.245  0.00  0.00    +0.120 A 
BRANCH  29   6
ATOM      6  O   UNL     1      -2.138 -17.293  15.001  0.00  0.00    -0.495 OA
ATOM     35  C   UNL     1      -0.733 -17.065  15.106  0.00  0.00    +0.277 C 
ENDBRANCH  29   6
ENDBRANCH  20  23
BRANCH  21  10
ATOM     10  N   UNL     1      -4.728 -10.554  17.270  0.00  0.00    -0.211 N 
ATOM     37  H   UNL     1      -4.209  -9.881  17.852  0.00  0.00    +0.174 HD
BRANCH  10   1
ATOM      1  S   UNL     1      -5.060 -12.032  18.024  0.00  0.00    +0.073 S 
ATOM      4  O   UNL     1      -5.115 -13.086  17.028  0.00  0.00    -0.150 OA
ATOM      5  O   UNL     1      -4.223 -12.180  19.199  0.00  0.00    -0.150 OA
BRANCH   1  28
ATOM     28  C   UNL     1      -6.713 -11.751  18.586  0.00  0.00    +0.109 A 
ATOM     30  C   UNL     1      -7.362 -10.586  18.218  0.00  0.00    +0.032 A 
ATOM     31  C   UNL     1      -7.327 -12.702  19.383  0.00  0.00    +0.032 A 
ATOM     32  C   UNL     1      -8.666 -10.364  18.661  0.00  0.00    +0.047 A 
ATOM     33  C   UNL     1      -8.630 -12.480  19.826  0.00  0.00    +0.047 A 
ATOM     34  C   UNL     1      -9.300 -11.311  19.465  0.00  0.00    +0.120 A 
BRANCH  34   7
ATOM      7  O   UNL     1     -10.573 -11.095  19.897  0.00  0.00    -0.495 OA
ATOM     36  C   UNL     1     -11.278 -12.217  20.427  0.00  0.00    +0.277 C 
ENDBRANCH  34   7
ENDBRANCH   1  28
ENDBRANCH  10   1
ENDBRANCH  21  10
TORSDOF 6
ENDMDL
MODEL 10
REMARK VINA RESULT:      -6.1      3.194      4.977
REMARK  Name = 7051260
REMARK  8 active torsions:
REMARK  status: ('A' for Active; 'I' for Inactive)
REMARK    1  A    between atoms: S_1  and  N_10
REMARK    2  A    between atoms: S_1  and  C_28
REMARK    3  A    between atoms: O_6  and  C_29
REMARK    4  A    between atoms: O_6  and  C_35
REMARK    5  A    between atoms: O_7  and  C_34
REMARK    6  A    between atoms: O_7  and  C_36
REMARK    7  A    between atoms: N_10  and  C_21
REMARK    8  A    between atoms: C_20  and  C_23
REMARK                            x       y       z     vdW  Elec       q    Type
REMARK                         _______ _______ _______ _____ _____    ______ ____
ROOT
ATOM      2  O   UNL     1      -6.065 -13.695  14.200  0.00  0.00    -0.266 OA
ATOM      3  O   UNL     1      -9.556 -12.264  17.752  0.00  0.00    -0.270 OA
ATOM      8  N   UNL     1      -7.512 -11.284  18.332  0.00  0.00    -0.297 N 
ATOM      9  N   UNL     1      -5.639 -12.175  15.932  0.00  0.00    -0.310 N 
ATOM     11  C   UNL     1      -5.580 -12.854  18.401  0.00  0.00    +0.027 C 
ATOM     12  C   UNL     1      -5.224 -10.500  17.769  0.00  0.00    +0.054 C 
ATOM     13  C   UNL     1      -4.633 -11.668  18.557  0.00  0.00    +0.018 C 
ATOM     14  C   UNL     1      -6.977 -12.502  18.944  0.00  0.00    +0.113 C 
ATOM     15  C   UNL     1      -5.622 -13.261  16.923  0.00  0.00    +0.130 C 
ATOM     16  C   UNL     1      -6.602 -10.128  18.352  0.00  0.00    +0.117 C 
ATOM     17  C   UNL     1      -5.369 -10.850  16.299  0.00  0.00    +0.027 A 
ATOM     18  C   UNL     1      -5.276  -9.889  15.363  0.00  0.00    +0.024 A 
ATOM     19  C   UNL     1      -5.840 -12.549  14.586  0.00  0.00    +0.274 A 
ATOM     20  C   UNL     1      -8.791 -11.301  17.771  0.00  0.00    +0.247 C 
ATOM     21  C   UNL     1      -5.751 -11.440  13.604  0.00  0.00    +0.112 A 
ATOM     22  C   UNL     1      -5.474 -10.189  13.971  0.00  0.00    +0.031 A 
ENDROOT
BRANCH  20  23
ATOM     23  C   UNL     1      -9.275 -10.076  17.127  0.00  0.00    +0.037 A 
ATOM     24  C   UNL     1      -9.989  -9.138  17.870  0.00  0.00    +0.016 A 
ATOM     25  C   UNL     1      -9.019  -9.857  15.776  0.00  0.00    +0.016 A 
ATOM     26  C   UNL     1     -10.449  -7.973  17.255  0.00  0.00    +0.046 A 
ATOM     27  C   UNL     1      -9.479  -8.691  15.163  0.00  0.00    +0.046 A 
ATOM     29  C   UNL     1     -10.194  -7.750  15.902  0.00  0.00    +0.120 A 
BRANCH  29   6
ATOM      6  O   UNL     1     -10.645  -6.613  15.304  0.00  0.00    -0.495 OA
ATOM     35  C   UNL     1     -11.912  -6.114  15.732  0.00  0.00    +0.277 C 
ENDBRANCH  29   6
ENDBRANCH  20  23
BRANCH  21  10
ATOM     10  N   UNL     1      -5.949 -11.691  12.234  0.00  0.00    -0.211 N 
ATOM     37  H   UNL     1      -5.296 -11.166  11.633  0.00  0.00    +0.174 HD
BRANCH  10   1
ATOM      1  S   UNL     1      -7.548 -11.721  11.680  0.00  0.00    +0.073 S 
ATOM      4  O   UNL     1      -7.741 -12.867  10.811  0.00  0.00    -0.150 OA
ATOM      5  O   UNL     1      -8.453 -11.483  12.787  0.00  0.00    -0.150 OA
BRANCH   1  28
ATOM     28  C   UNL     1      -7.570 -10.276  10.661  0.00  0.00    +0.109 A 
ATOM     30  C   UNL     1      -6.386  -9.821  10.109  0.00  0.00    +0.032 A 
ATOM     31  C   UNL     1      -8.772  -9.627  10.434  0.00  0.00    +0.032 A 
ATOM     32  C   UNL     1      -6.403  -8.682   9.305  0.00  0.00    +0.047 A 
ATOM     33  C   UNL     1      -8.789  -8.488   9.631  0.00  0.00    +0.047 A 
ATOM     34  C   UNL     1      -7.604  -8.015   9.066  0.00  0.00    +0.120 A 
BRANCH  34   7
ATOM      7  O   UNL     1      -7.621  -6.903   8.280  0.00  0.00    -0.495 OA
ATOM     36  C   UNL     1      -8.295  -7.005   7.027  0.00  0.00    +0.277 C 
ENDBRANCH  34   7
ENDBRANCH   1  28
ENDBRANCH  10   1
ENDBRANCH  21  10
TORSDOF 6
ENDMDL
