MODEL 1
REMARK VINA RESULT:      -7.7      0.000      0.000
REMARK  Name = 51137819
REMARK  6 active torsions:
REMARK  status: ('A' for Active; 'I' for Inactive)
REMARK    1  A    between atoms: O_3  and  C_17
REMARK    2  A    between atoms: O_3  and  C_28
REMARK    3  A    between atoms: N_6  and  C_15
REMARK    4  A    between atoms: C_8  and  C_12
REMARK    5  A    between atoms: C_14  and  C_16
REMARK    6  A    between atoms: C_24  and  C_27
REMARK                            x       y       z     vdW  Elec       q    Type
REMARK                         _______ _______ _______ _____ _____    ______ ____
ROOT
ATOM      2  O   UNL     1      15.295   5.879  19.830  0.00  0.00    -0.252 OA
ATOM      4  N   UNL     1      14.431   7.972  19.454  0.00  0.00    -0.285 N 
ATOM      6  N   UNL     1      16.665   7.746  20.111  0.00  0.00    -0.266 N 
ATOM      8  C   UNL     1      12.192   8.719  19.153  0.00  0.00    +0.096 C 
ATOM      9  C   UNL     1      13.163   9.837  18.743  0.00  0.00    +0.033 C 
ATOM     10  C   UNL     1      13.099   7.482  19.113  0.00  0.00    +0.122 C 
ATOM     11  C   UNL     1      14.487   9.429  19.379  0.00  0.00    +0.110 C 
ATOM     13  C   UNL     1      15.468   7.098  19.803  0.00  0.00    +0.307 C 
ATOM     29  H   UNL     1      16.679   8.760  20.074  0.00  0.00    +0.156 HD
ENDROOT
BRANCH   6  15
ATOM     15  C   UNL     1      17.895   7.161  20.499  0.00  0.00    +0.077 A 
ATOM     17  C   UNL     1      18.699   7.769  21.462  0.00  0.00    +0.141 A 
ATOM     18  C   UNL     1      18.299   5.964  19.907  0.00  0.00    +0.027 A 
ATOM     23  C   UNL     1      19.908   7.179  21.835  0.00  0.00    +0.047 A 
ATOM     25  C   UNL     1      19.508   5.375  20.279  0.00  0.00    +0.002 A 
ATOM     26  C   UNL     1      20.312   5.984  21.243  0.00  0.00    +0.004 A 
BRANCH  17   3
ATOM      3  O   UNL     1      18.323   8.939  22.053  0.00  0.00    -0.493 OA
ATOM     28  C   UNL     1      18.905  10.137  21.542  0.00  0.00    +0.277 C 
ENDBRANCH  17   3
ENDBRANCH   6  15
BRANCH   8  12
ATOM      1  O   UNL     1      11.688  10.278  20.982  0.00  0.00    -0.420 OA
ATOM      5  N   UNL     1      10.774   8.253  21.235  0.00  0.00    -0.112 NA
ATOM      7  N   UNL     1      10.414   9.024  22.325  0.00  0.00    -0.107 NA
ATOM     12  C   UNL     1      11.516   9.025  20.478  0.00  0.00    +0.222 A 
ATOM     14  C   UNL     1      10.969  10.197  22.134  0.00  0.00    +0.248 A 
BRANCH  14  16
ATOM     16  C   UNL     1      10.937  11.384  22.938  0.00  0.00    +0.038 A 
ATOM     19  C   UNL     1      10.934  12.639  22.328  0.00  0.00    +0.013 A 
ATOM     20  C   UNL     1      10.909  11.285  24.329  0.00  0.00    +0.013 A 
ATOM     21  C   UNL     1      10.903  13.795  23.111  0.00  0.00    +0.004 A 
ATOM     22  C   UNL     1      10.878  12.440  25.111  0.00  0.00    +0.004 A 
ATOM     24  C   UNL     1      10.875  13.695  24.502  0.00  0.00    -0.050 A 
ATOM     27  C   UNL     1      10.842  14.930  25.337  0.00  0.00    +0.044 C 
ENDBRANCH  14  16
ENDBRANCH   8  12
TORSDOF 4
ENDMDL
MODEL 2
REMARK VINA RESULT:      -7.7      1.660      8.578
REMARK  Name = 51137819
REMARK  6 active torsions:
REMARK  status: ('A' for Active; 'I' for Inactive)
REMARK    1  A    between atoms: O_3  and  C_17
REMARK    2  A    between atoms: O_3  and  C_28
REMARK    3  A    between atoms: N_6  and  C_15
REMARK    4  A    between atoms: C_8  and  C_12
REMARK    5  A    between atoms: C_14  and  C_16
REMARK    6  A    between atoms: C_24  and  C_27
REMARK                            x       y       z     vdW  Elec       q    Type
REMARK                         _______ _______ _______ _____ _____    ______ ____
ROOT
ATOM      2  O   UNL     1      13.062  12.473  21.185  0.00  0.00    -0.252 OA
ATOM      4  N   UNL     1      12.297  10.473  20.359  0.00  0.00    -0.285 N 
ATOM      6  N   UNL     1      11.255  11.426  22.225  0.00  0.00    -0.266 N 
ATOM      8  C   UNL     1      13.231   8.965  18.774  0.00  0.00    +0.096 C 
ATOM      9  C   UNL     1      11.761   8.596  19.024  0.00  0.00    +0.033 C 
ATOM     10  C   UNL     1      13.287  10.408  19.290  0.00  0.00    +0.122 C 
ATOM     11  C   UNL     1      11.417   9.307  20.329  0.00  0.00    +0.110 C 
ATOM     13  C   UNL     1      12.260  11.542  21.263  0.00  0.00    +0.307 C 
ATOM     29  H   UNL     1      10.667  10.599  22.200  0.00  0.00    +0.156 HD
ENDROOT
BRANCH   6  15
ATOM     15  C   UNL     1      10.949  12.326  23.274  0.00  0.00    +0.077 A 
ATOM     17  C   UNL     1      10.372  13.566  23.003  0.00  0.00    +0.141 A 
ATOM     18  C   UNL     1      11.231  11.961  24.591  0.00  0.00    +0.027 A 
ATOM     23  C   UNL     1      10.075  14.442  24.048  0.00  0.00    +0.047 A 
ATOM     25  C   UNL     1      10.935  12.837  25.636  0.00  0.00    +0.002 A 
ATOM     26  C   UNL     1      10.357  14.077  25.364  0.00  0.00    +0.004 A 
BRANCH  17   3
ATOM      3  O   UNL     1      10.089  13.943  21.723  0.00  0.00    -0.493 OA
ATOM     28  C   UNL     1       9.000  14.846  21.541  0.00  0.00    +0.277 C 
ENDBRANCH  17   3
ENDBRANCH   6  15
BRANCH   8  12
ATOM      1  O   UNL     1      15.461   8.375  19.617  0.00  0.00    -0.420 OA
ATOM      5  N   UNL     1      13.941   6.750  19.851  0.00  0.00    -0.112 NA
ATOM      7  N   UNL     1      15.141   6.290  20.362  0.00  0.00    -0.107 NA
ATOM     12  C   UNL     1      14.174   7.970  19.429  0.00  0.00    +0.222 A 
ATOM     14  C   UNL     1      15.998   7.271  20.205  0.00  0.00    +0.248 A 
BRANCH  14  16
ATOM     16  C   UNL     1      17.387   7.357  20.549  0.00  0.00    +0.038 A 
ATOM     19  C   UNL     1      18.250   6.308  20.231  0.00  0.00    +0.013 A 
ATOM     20  C   UNL     1      17.875   8.489  21.203  0.00  0.00    +0.013 A 
ATOM     21  C   UNL     1      19.602   6.392  20.566  0.00  0.00    +0.004 A 
ATOM     22  C   UNL     1      19.227   8.572  21.538  0.00  0.00    +0.004 A 
ATOM     24  C   UNL     1      20.091   7.523  21.220  0.00  0.00    -0.050 A 
ATOM     27  C   UNL     1      21.536   7.612  21.578  0.00  0.00    +0.044 C 
ENDBRANCH  14  16
ENDBRANCH   8  12
TORSDOF 4
ENDMDL
MODEL 3
REMARK VINA RESULT:      -7.6      1.702      8.335
REMARK  Name = 51137819
REMARK  6 active torsions:
REMARK  status: ('A' for Active; 'I' for Inactive)
REMARK    1  A    between atoms: O_3  and  C_17
REMARK    2  A    between atoms: O_3  and  C_28
REMARK    3  A    between atoms: N_6  and  C_15
REMARK    4  A    between atoms: C_8  and  C_12
REMARK    5  A    between atoms: C_14  and  C_16
REMARK    6  A    between atoms: C_24  and  C_27
REMARK                            x       y       z     vdW  Elec       q    Type
REMARK                         _______ _______ _______ _____ _____    ______ ____
ROOT
ATOM      2  O   UNL     1      13.109  12.546  20.986  0.00  0.00    -0.252 OA
ATOM      4  N   UNL     1      12.327  10.498  20.306  0.00  0.00    -0.285 N 
ATOM      6  N   UNL     1      11.297  11.589  22.101  0.00  0.00    -0.266 N 
ATOM      8  C   UNL     1      13.245   8.874  18.829  0.00  0.00    +0.096 C 
ATOM      9  C   UNL     1      11.773   8.536  19.108  0.00  0.00    +0.033 C 
ATOM     10  C   UNL     1      13.313  10.350  19.241  0.00  0.00    +0.122 C 
ATOM     11  C   UNL     1      11.438   9.340  20.359  0.00  0.00    +0.110 C 
ATOM     13  C   UNL     1      12.300  11.629  21.132  0.00  0.00    +0.307 C 
ATOM     29  H   UNL     1      10.703  10.766  22.137  0.00  0.00    +0.156 HD
ENDROOT
BRANCH   6  15
ATOM     15  C   UNL     1      11.000  12.563  23.085  0.00  0.00    +0.077 A 
ATOM     17  C   UNL     1      11.556  12.477  24.361  0.00  0.00    +0.141 A 
ATOM     18  C   UNL     1      10.143  13.617  22.766  0.00  0.00    +0.027 A 
ATOM     23  C   UNL     1      11.255  13.446  25.320  0.00  0.00    +0.047 A 
ATOM     25  C   UNL     1       9.842  14.585  23.725  0.00  0.00    +0.002 A 
ATOM     26  C   UNL     1      10.398  14.498  25.001  0.00  0.00    +0.004 A 
BRANCH  17   3
ATOM      3  O   UNL     1      12.395  11.456  24.694  0.00  0.00    -0.493 OA
ATOM     28  C   UNL     1      13.721  11.809  25.085  0.00  0.00    +0.277 C 
ENDBRANCH  17   3
ENDBRANCH   6  15
BRANCH   8  12
ATOM      1  O   UNL     1      15.481   8.314  19.677  0.00  0.00    -0.420 OA
ATOM      5  N   UNL     1      13.935   6.749  20.083  0.00  0.00    -0.112 NA
ATOM      7  N   UNL     1      15.137   6.310  20.609  0.00  0.00    -0.107 NA
ATOM     12  C   UNL     1      14.183   7.922  19.550  0.00  0.00    +0.222 A 
ATOM     14  C   UNL     1      16.009   7.255  20.349  0.00  0.00    +0.248 A 
BRANCH  14  16
ATOM     16  C   UNL     1      17.406   7.342  20.657  0.00  0.00    +0.038 A 
ATOM     19  C   UNL     1      17.902   8.453  21.341  0.00  0.00    +0.013 A 
ATOM     20  C   UNL     1      18.271   6.317  20.273  0.00  0.00    +0.013 A 
ATOM     21  C   UNL     1      19.262   8.537  21.641  0.00  0.00    +0.004 A 
ATOM     22  C   UNL     1      19.631   6.402  20.572  0.00  0.00    +0.004 A 
ATOM     24  C   UNL     1      20.127   7.512  21.256  0.00  0.00    -0.050 A 
ATOM     27  C   UNL     1      21.581   7.603  21.576  0.00  0.00    +0.044 C 
ENDBRANCH  14  16
ENDBRANCH   8  12
TORSDOF 4
ENDMDL
MODEL 4
REMARK VINA RESULT:      -7.4     26.995     29.384
REMARK  Name = 51137819
REMARK  6 active torsions:
REMARK  status: ('A' for Active; 'I' for Inactive)
REMARK    1  A    between atoms: O_3  and  C_17
REMARK    2  A    between atoms: O_3  and  C_28
REMARK    3  A    between atoms: N_6  and  C_15
REMARK    4  A    between atoms: C_8  and  C_12
REMARK    5  A    between atoms: C_14  and  C_16
REMARK    6  A    between atoms: C_24  and  C_27
REMARK                            x       y       z     vdW  Elec       q    Type
REMARK                         _______ _______ _______ _____ _____    ______ ____
ROOT
ATOM      2  O   UNL     1      -4.342  -9.565  16.707  0.00  0.00    -0.252 OA
ATOM      4  N   UNL     1      -5.632 -11.294  17.493  0.00  0.00    -0.285 N 
ATOM      6  N   UNL     1      -4.876 -11.331  15.279  0.00  0.00    -0.266 N 
ATOM      8  C   UNL     1      -6.916 -11.521  19.483  0.00  0.00    +0.096 C 
ATOM      9  C   UNL     1      -6.765 -12.895  18.814  0.00  0.00    +0.033 C 
ATOM     10  C   UNL     1      -5.781 -10.724  18.828  0.00  0.00    +0.122 C 
ATOM     11  C   UNL     1      -6.339 -12.568  17.387  0.00  0.00    +0.110 C 
ATOM     13  C   UNL     1      -4.897 -10.644  16.493  0.00  0.00    +0.307 C 
ATOM     29  H   UNL     1      -5.390 -12.204  15.218  0.00  0.00    +0.156 HD
ENDROOT
BRANCH   6  15
ATOM     15  C   UNL     1      -4.230 -10.952  14.077  0.00  0.00    +0.077 A 
ATOM     17  C   UNL     1      -2.853 -11.115  13.928  0.00  0.00    +0.141 A 
ATOM     18  C   UNL     1      -4.985 -10.410  13.037  0.00  0.00    +0.027 A 
ATOM     23  C   UNL     1      -2.230 -10.738  12.737  0.00  0.00    +0.047 A 
ATOM     25  C   UNL     1      -4.363 -10.032  11.847  0.00  0.00    +0.002 A 
ATOM     26  C   UNL     1      -2.985 -10.196  11.698  0.00  0.00    +0.004 A 
BRANCH  17   3
ATOM      3  O   UNL     1      -2.096 -11.642  14.932  0.00  0.00    -0.493 OA
ATOM     28  C   UNL     1      -1.201 -10.755  15.600  0.00  0.00    +0.277 C 
ENDBRANCH  17   3
ENDBRANCH   6  15
BRANCH   8  12
ATOM      1  O   UNL     1      -8.511 -10.064  18.315  0.00  0.00    -0.420 OA
ATOM      5  N   UNL     1      -9.410 -11.233  19.997  0.00  0.00    -0.112 NA
ATOM      7  N   UNL     1     -10.408 -10.462  19.432  0.00  0.00    -0.107 NA
ATOM     12  C   UNL     1      -8.321 -10.970  19.314  0.00  0.00    +0.222 A 
ATOM     14  C   UNL     1      -9.839  -9.797  18.455  0.00  0.00    +0.248 A 
BRANCH  14  16
ATOM     16  C   UNL     1     -10.388  -8.850  17.529  0.00  0.00    +0.038 A 
ATOM     19  C   UNL     1      -9.544  -7.985  16.832  0.00  0.00    +0.013 A 
ATOM     20  C   UNL     1     -11.767  -8.792  17.325  0.00  0.00    +0.013 A 
ATOM     21  C   UNL     1     -10.078  -7.064  15.931  0.00  0.00    +0.004 A 
ATOM     22  C   UNL     1     -12.302  -7.870  16.425  0.00  0.00    +0.004 A 
ATOM     24  C   UNL     1     -11.457  -7.005  15.729  0.00  0.00    -0.050 A 
ATOM     27  C   UNL     1     -12.028  -6.020  14.766  0.00  0.00    +0.044 C 
ENDBRANCH  14  16
ENDBRANCH   8  12
TORSDOF 4
ENDMDL
MODEL 5
REMARK VINA RESULT:      -7.4     27.552     30.198
REMARK  Name = 51137819
REMARK  6 active torsions:
REMARK  status: ('A' for Active; 'I' for Inactive)
REMARK    1  A    between atoms: O_3  and  C_17
REMARK    2  A    between atoms: O_3  and  C_28
REMARK    3  A    between atoms: N_6  and  C_15
REMARK    4  A    between atoms: C_8  and  C_12
REMARK    5  A    between atoms: C_14  and  C_16
REMARK    6  A    between atoms: C_24  and  C_27
REMARK                            x       y       z     vdW  Elec       q    Type
REMARK                         _______ _______ _______ _____ _____    ______ ____
ROOT
ATOM      2  O   UNL     1      -7.637 -11.749  15.658  0.00  0.00    -0.252 OA
ATOM      4  N   UNL     1      -5.516 -11.076  16.221  0.00  0.00    -0.285 N 
ATOM      6  N   UNL     1      -7.349  -9.764  16.849  0.00  0.00    -0.266 N 
ATOM      8  C   UNL     1      -3.381 -11.842  15.507  0.00  0.00    +0.096 C 
ATOM      9  C   UNL     1      -3.213 -10.944  16.741  0.00  0.00    +0.033 C 
ATOM     10  C   UNL     1      -4.866 -12.218  15.588  0.00  0.00    +0.122 C 
ATOM     11  C   UNL     1      -4.532 -10.183  16.828  0.00  0.00    +0.110 C 
ATOM     13  C   UNL     1      -6.908 -10.921  16.206  0.00  0.00    +0.307 C 
ATOM     29  H   UNL     1      -6.649  -9.145  17.246  0.00  0.00    +0.156 HD
ENDROOT
BRANCH   6  15
ATOM     15  C   UNL     1      -8.682  -9.313  17.011  0.00  0.00    +0.077 A 
ATOM     17  C   UNL     1      -9.474  -9.794  18.052  0.00  0.00    +0.141 A 
ATOM     18  C   UNL     1      -9.199  -8.377  16.115  0.00  0.00    +0.027 A 
ATOM     23  C   UNL     1     -10.786  -9.340  18.198  0.00  0.00    +0.047 A 
ATOM     25  C   UNL     1     -10.511  -7.923  16.261  0.00  0.00    +0.002 A 
ATOM     26  C   UNL     1     -11.303  -8.405  17.303  0.00  0.00    +0.004 A 
BRANCH  17   3
ATOM      3  O   UNL     1      -8.988 -10.709  18.938  0.00  0.00    -0.493 OA
ATOM     28  C   UNL     1      -9.896 -11.205  19.920  0.00  0.00    +0.277 C 
ENDBRANCH  17   3
ENDBRANCH   6  15
BRANCH   8  12
ATOM      1  O   UNL     1      -3.722 -11.266  13.144  0.00  0.00    -0.420 OA
ATOM      5  N   UNL     1      -1.853 -10.412  14.027  0.00  0.00    -0.112 NA
ATOM      7  N   UNL     1      -1.921 -10.014  12.705  0.00  0.00    -0.107 NA
ATOM     12  C   UNL     1      -2.924 -11.140  14.240  0.00  0.00    +0.222 A 
ATOM     14  C   UNL     1      -3.027 -10.535  12.230  0.00  0.00    +0.248 A 
BRANCH  14  16
ATOM     16  C   UNL     1      -3.606 -10.456  10.920  0.00  0.00    +0.038 A 
ATOM     19  C   UNL     1      -3.776  -9.214  10.307  0.00  0.00    +0.013 A 
ATOM     20  C   UNL     1      -4.000 -11.620  10.259  0.00  0.00    +0.013 A 
ATOM     21  C   UNL     1      -4.339  -9.137   9.032  0.00  0.00    +0.004 A 
ATOM     22  C   UNL     1      -4.563 -11.542   8.985  0.00  0.00    +0.004 A 
ATOM     24  C   UNL     1      -4.734 -10.301   8.372  0.00  0.00    -0.050 A 
ATOM     27  C   UNL     1      -5.336 -10.217   7.010  0.00  0.00    +0.044 C 
ENDBRANCH  14  16
ENDBRANCH   8  12
TORSDOF 4
ENDMDL
MODEL 6
REMARK VINA RESULT:      -7.2     27.634     30.218
REMARK  Name = 51137819
REMARK  6 active torsions:
REMARK  status: ('A' for Active; 'I' for Inactive)
REMARK    1  A    between atoms: O_3  and  C_17
REMARK    2  A    between atoms: O_3  and  C_28
REMARK    3  A    between atoms: N_6  and  C_15
REMARK    4  A    between atoms: C_8  and  C_12
REMARK    5  A    between atoms: C_14  and  C_16
REMARK    6  A    between atoms: C_24  and  C_27
REMARK                            x       y       z     vdW  Elec       q    Type
REMARK                         _______ _______ _______ _____ _____    ______ ____
ROOT
ATOM      2  O   UNL     1      -8.451 -11.659  16.216  0.00  0.00    -0.252 OA
ATOM      4  N   UNL     1      -6.483 -11.227  17.315  0.00  0.00    -0.285 N 
ATOM      6  N   UNL     1      -8.277  -9.742  17.533  0.00  0.00    -0.266 N 
ATOM      8  C   UNL     1      -4.321 -12.200  17.113  0.00  0.00    +0.096 C 
ATOM      9  C   UNL     1      -4.381 -11.352  18.391  0.00  0.00    +0.033 C 
ATOM     10  C   UNL     1      -5.809 -12.418  16.808  0.00  0.00    +0.122 C 
ATOM     11  C   UNL     1      -5.599 -10.457  18.186  0.00  0.00    +0.110 C 
ATOM     13  C   UNL     1      -7.805 -10.925  16.964  0.00  0.00    +0.307 C 
ATOM     29  H   UNL     1      -7.642  -9.209  18.119  0.00  0.00    +0.156 HD
ENDROOT
BRANCH   6  15
ATOM     15  C   UNL     1      -9.558  -9.156  17.383  0.00  0.00    +0.077 A 
ATOM     17  C   UNL     1     -10.674  -9.716  18.002  0.00  0.00    +0.141 A 
ATOM     18  C   UNL     1      -9.695  -8.005  16.605  0.00  0.00    +0.027 A 
ATOM     23  C   UNL     1     -11.929  -9.127  17.845  0.00  0.00    +0.047 A 
ATOM     25  C   UNL     1     -10.950  -7.417  16.448  0.00  0.00    +0.002 A 
ATOM     26  C   UNL     1     -12.067  -7.978  17.068  0.00  0.00    +0.004 A 
BRANCH  17   3
ATOM      3  O   UNL     1     -10.562 -10.840  18.766  0.00  0.00    -0.493 OA
ATOM     28  C   UNL     1     -10.658 -10.675  20.179  0.00  0.00    +0.277 C 
ENDBRANCH  17   3
ENDBRANCH   6  15
BRANCH   8  12
ATOM      1  O   UNL     1      -4.109 -11.305  14.835  0.00  0.00    -0.420 OA
ATOM      5  N   UNL     1      -2.254 -11.104  16.068  0.00  0.00    -0.112 NA
ATOM      7  N   UNL     1      -1.999 -10.566  14.820  0.00  0.00    -0.107 NA
ATOM     12  C   UNL     1      -3.497 -11.523  16.032  0.00  0.00    +0.222 A 
ATOM     14  C   UNL     1      -3.109 -10.704  14.135  0.00  0.00    +0.248 A 
BRANCH  14  16
ATOM     16  C   UNL     1      -3.425 -10.328  12.788  0.00  0.00    +0.038 A 
ATOM     19  C   UNL     1      -4.756 -10.185  12.398  0.00  0.00    +0.013 A 
ATOM     20  C   UNL     1      -2.400 -10.106  11.867  0.00  0.00    +0.013 A 
ATOM     21  C   UNL     1      -5.063  -9.819  11.087  0.00  0.00    +0.004 A 
ATOM     22  C   UNL     1      -2.708  -9.741  10.556  0.00  0.00    +0.004 A 
ATOM     24  C   UNL     1      -4.039  -9.598  10.166  0.00  0.00    -0.050 A 
ATOM     27  C   UNL     1      -4.368  -9.208   8.764  0.00  0.00    +0.044 C 
ENDBRANCH  14  16
ENDBRANCH   8  12
TORSDOF 4
ENDMDL
MODEL 7
REMARK VINA RESULT:      -7.2     27.532     30.041
REMARK  Name = 51137819
REMARK  6 active torsions:
REMARK  status: ('A' for Active; 'I' for Inactive)
REMARK    1  A    between atoms: O_3  and  C_17
REMARK    2  A    between atoms: O_3  and  C_28
REMARK    3  A    between atoms: N_6  and  C_15
REMARK    4  A    between atoms: C_8  and  C_12
REMARK    5  A    between atoms: C_14  and  C_16
REMARK    6  A    between atoms: C_24  and  C_27
REMARK                            x       y       z     vdW  Elec       q    Type
REMARK                         _______ _______ _______ _____ _____    ______ ____
ROOT
ATOM      2  O   UNL     1      -4.780 -12.822  14.843  0.00  0.00    -0.252 OA
ATOM      4  N   UNL     1      -3.295 -11.458  13.745  0.00  0.00    -0.285 N 
ATOM      6  N   UNL     1      -3.980 -10.910  15.914  0.00  0.00    -0.266 N 
ATOM      8  C   UNL     1      -2.614 -11.386  11.467  0.00  0.00    +0.096 C 
ATOM      9  C   UNL     1      -1.656 -10.534  12.313  0.00  0.00    +0.033 C 
ATOM     10  C   UNL     1      -3.276 -12.269  12.532  0.00  0.00    +0.122 C 
ATOM     11  C   UNL     1      -2.419 -10.297  13.611  0.00  0.00    +0.110 C 
ATOM     13  C   UNL     1      -4.079 -11.809  14.852  0.00  0.00    +0.307 C 
ATOM     29  H   UNL     1      -3.383 -10.097  15.795  0.00  0.00    +0.156 HD
ENDROOT
BRANCH   6  15
ATOM     15  C   UNL     1      -4.636 -10.971  17.168  0.00  0.00    +0.077 A 
ATOM     17  C   UNL     1      -5.833 -10.288  17.378  0.00  0.00    +0.141 A 
ATOM     18  C   UNL     1      -4.072 -11.724  18.198  0.00  0.00    +0.027 A 
ATOM     23  C   UNL     1      -6.468 -10.358  18.619  0.00  0.00    +0.047 A 
ATOM     25  C   UNL     1      -4.706 -11.794  19.438  0.00  0.00    +0.002 A 
ATOM     26  C   UNL     1      -5.904 -11.110  19.648  0.00  0.00    +0.004 A 
BRANCH  17   3
ATOM      3  O   UNL     1      -6.401  -9.546  16.385  0.00  0.00    -0.493 OA
ATOM     28  C   UNL     1      -7.796  -9.732  16.156  0.00  0.00    +0.277 C 
ENDBRANCH  17   3
ENDBRANCH   6  15
BRANCH   8  12
ATOM      1  O   UNL     1      -3.920 -11.017   9.420  0.00  0.00    -0.420 OA
ATOM      5  N   UNL     1      -4.040  -9.336  10.891  0.00  0.00    -0.112 NA
ATOM      7  N   UNL     1      -4.814  -9.001   9.795  0.00  0.00    -0.107 NA
ATOM     12  C   UNL     1      -3.538 -10.520  10.629  0.00  0.00    +0.222 A 
ATOM     14  C   UNL     1      -4.715 -10.011   8.963  0.00  0.00    +0.248 A 
BRANCH  14  16
ATOM     16  C   UNL     1      -5.302 -10.214   7.671  0.00  0.00    +0.038 A 
ATOM     19  C   UNL     1      -6.345  -9.392   7.242  0.00  0.00    +0.013 A 
ATOM     20  C   UNL     1      -4.832 -11.233   6.843  0.00  0.00    +0.013 A 
ATOM     21  C   UNL     1      -6.916  -9.590   5.984  0.00  0.00    +0.004 A 
ATOM     22  C   UNL     1      -5.404 -11.431   5.585  0.00  0.00    +0.004 A 
ATOM     24  C   UNL     1      -6.447 -10.609   5.156  0.00  0.00    -0.050 A 
ATOM     27  C   UNL     1      -7.058 -10.820   3.813  0.00  0.00    +0.044 C 
ENDBRANCH  14  16
ENDBRANCH   8  12
TORSDOF 4
ENDMDL
MODEL 8
REMARK VINA RESULT:      -7.2     27.538     29.512
REMARK  Name = 51137819
REMARK  6 active torsions:
REMARK  status: ('A' for Active; 'I' for Inactive)
REMARK    1  A    between atoms: O_3  and  C_17
REMARK    2  A    between atoms: O_3  and  C_28
REMARK    3  A    between atoms: N_6  and  C_15
REMARK    4  A    between atoms: C_8  and  C_12
REMARK    5  A    between atoms: C_14  and  C_16
REMARK    6  A    between atoms: C_24  and  C_27
REMARK                            x       y       z     vdW  Elec       q    Type
REMARK                         _______ _______ _______ _____ _____    ______ ____
ROOT
ATOM      2  O   UNL     1      -5.072 -12.588  14.724  0.00  0.00    -0.252 OA
ATOM      4  N   UNL     1      -3.420 -11.377  13.687  0.00  0.00    -0.285 N 
ATOM      6  N   UNL     1      -3.985 -10.895  15.905  0.00  0.00    -0.266 N 
ATOM      8  C   UNL     1      -2.770 -11.239  11.403  0.00  0.00    +0.096 C 
ATOM      9  C   UNL     1      -1.685 -10.597  12.282  0.00  0.00    +0.033 C 
ATOM     10  C   UNL     1      -3.538 -12.092  12.420  0.00  0.00    +0.122 C 
ATOM     11  C   UNL     1      -2.387 -10.348  13.612  0.00  0.00    +0.110 C 
ATOM     13  C   UNL     1      -4.230 -11.691  14.786  0.00  0.00    +0.307 C 
ATOM     29  H   UNL     1      -3.278 -10.170  15.828  0.00  0.00    +0.156 HD
ENDROOT
BRANCH   6  15
ATOM     15  C   UNL     1      -4.624 -10.951  17.168  0.00  0.00    +0.077 A 
ATOM     17  C   UNL     1      -5.811 -10.256  17.396  0.00  0.00    +0.141 A 
ATOM     18  C   UNL     1      -4.054 -11.712  18.189  0.00  0.00    +0.027 A 
ATOM     23  C   UNL     1      -6.430 -10.322  18.645  0.00  0.00    +0.047 A 
ATOM     25  C   UNL     1      -4.672 -11.777  19.438  0.00  0.00    +0.002 A 
ATOM     26  C   UNL     1      -5.860 -11.082  19.665  0.00  0.00    +0.004 A 
BRANCH  17   3
ATOM      3  O   UNL     1      -6.385  -9.506  16.412  0.00  0.00    -0.493 OA
ATOM     28  C   UNL     1      -7.552 -10.040  15.789  0.00  0.00    +0.277 C 
ENDBRANCH  17   3
ENDBRANCH   6  15
BRANCH   8  12
ATOM      1  O   UNL     1      -4.926 -10.255  10.760  0.00  0.00    -0.420 OA
ATOM      5  N   UNL     1      -3.153  -9.205   9.890  0.00  0.00    -0.112 NA
ATOM      7  N   UNL     1      -4.292  -8.555   9.452  0.00  0.00    -0.107 NA
ATOM     12  C   UNL     1      -3.571 -10.190  10.651  0.00  0.00    +0.222 A 
ATOM     14  C   UNL     1      -5.302  -9.201   9.985  0.00  0.00    +0.248 A 
BRANCH  14  16
ATOM     16  C   UNL     1      -6.713  -8.974   9.877  0.00  0.00    +0.038 A 
ATOM     19  C   UNL     1      -7.593  -9.627  10.740  0.00  0.00    +0.013 A 
ATOM     20  C   UNL     1      -7.207  -8.100   8.907  0.00  0.00    +0.013 A 
ATOM     21  C   UNL     1      -8.967  -9.405  10.635  0.00  0.00    +0.004 A 
ATOM     22  C   UNL     1      -8.581  -7.879   8.802  0.00  0.00    +0.004 A 
ATOM     24  C   UNL     1      -9.461  -8.532   9.666  0.00  0.00    -0.050 A 
ATOM     27  C   UNL     1     -10.929  -8.296   9.553  0.00  0.00    +0.044 C 
ENDBRANCH  14  16
ENDBRANCH   8  12
TORSDOF 4
ENDMDL
MODEL 9
REMARK VINA RESULT:      -7.2     27.672     30.322
REMARK  Name = 51137819
REMARK  6 active torsions:
REMARK  status: ('A' for Active; 'I' for Inactive)
REMARK    1  A    between atoms: O_3  and  C_17
REMARK    2  A    between atoms: O_3  and  C_28
REMARK    3  A    between atoms: N_6  and  C_15
REMARK    4  A    between atoms: C_8  and  C_12
REMARK    5  A    between atoms: C_14  and  C_16
REMARK    6  A    between atoms: C_24  and  C_27
REMARK                            x       y       z     vdW  Elec       q    Type
REMARK                         _______ _______ _______ _____ _____    ______ ____
ROOT
ATOM      2  O   UNL     1      -8.537 -12.083  16.483  0.00  0.00    -0.252 OA
ATOM      4  N   UNL     1      -6.636 -11.499  17.629  0.00  0.00    -0.285 N 
ATOM      6  N   UNL     1      -8.553 -10.171  17.819  0.00  0.00    -0.266 N 
ATOM      8  C   UNL     1      -4.397 -12.285  17.467  0.00  0.00    +0.096 C 
ATOM      9  C   UNL     1      -4.555 -11.457  18.751  0.00  0.00    +0.033 C 
ATOM     10  C   UNL     1      -5.854 -12.624  17.128  0.00  0.00    +0.122 C 
ATOM     11  C   UNL     1      -5.839 -10.666  18.526  0.00  0.00    +0.110 C 
ATOM     13  C   UNL     1      -7.971 -11.305  17.252  0.00  0.00    +0.307 C 
ATOM     29  H   UNL     1      -7.977  -9.593  18.422  0.00  0.00    +0.156 HD
ENDROOT
BRANCH   6  15
ATOM     15  C   UNL     1      -9.875  -9.693  17.645  0.00  0.00    +0.077 A 
ATOM     17  C   UNL     1     -10.220  -8.950  16.516  0.00  0.00    +0.141 A 
ATOM     18  C   UNL     1     -10.836  -9.973  18.616  0.00  0.00    +0.027 A 
ATOM     23  C   UNL     1     -11.527  -8.487  16.358  0.00  0.00    +0.047 A 
ATOM     25  C   UNL     1     -12.143  -9.510  18.458  0.00  0.00    +0.002 A 
ATOM     26  C   UNL     1     -12.487  -8.767  17.329  0.00  0.00    +0.004 A 
BRANCH  17   3
ATOM      3  O   UNL     1      -9.296  -8.665  15.555  0.00  0.00    -0.493 OA
ATOM     28  C   UNL     1      -9.419  -9.356  14.313  0.00  0.00    +0.277 C 
ENDBRANCH  17   3
ENDBRANCH   6  15
BRANCH   8  12
ATOM      1  O   UNL     1      -4.174 -11.432  15.175  0.00  0.00    -0.420 OA
ATOM      5  N   UNL     1      -2.438 -10.945  16.499  0.00  0.00    -0.112 NA
ATOM      7  N   UNL     1      -2.185 -10.411  15.249  0.00  0.00    -0.107 NA
ATOM     12  C   UNL     1      -3.609 -11.531  16.410  0.00  0.00    +0.222 A 
ATOM     14  C   UNL     1      -3.224 -10.719  14.510  0.00  0.00    +0.248 A 
BRANCH  14  16
ATOM     16  C   UNL     1      -3.508 -10.427  13.135  0.00  0.00    +0.038 A 
ATOM     19  C   UNL     1      -2.464 -10.321  12.215  0.00  0.00    +0.013 A 
ATOM     20  C   UNL     1      -4.827 -10.248  12.717  0.00  0.00    +0.013 A 
ATOM     21  C   UNL     1      -2.740 -10.038  10.877  0.00  0.00    +0.004 A 
ATOM     22  C   UNL     1      -5.102  -9.964  11.379  0.00  0.00    +0.004 A 
ATOM     24  C   UNL     1      -4.059  -9.858  10.459  0.00  0.00    -0.050 A 
ATOM     27  C   UNL     1      -4.353  -9.554   9.029  0.00  0.00    +0.044 C 
ENDBRANCH  14  16
ENDBRANCH   8  12
TORSDOF 4
ENDMDL
MODEL 10
REMARK VINA RESULT:      -7.1     27.018     29.566
REMARK  Name = 51137819
REMARK  6 active torsions:
REMARK  status: ('A' for Active; 'I' for Inactive)
REMARK    1  A    between atoms: O_3  and  C_17
REMARK    2  A    between atoms: O_3  and  C_28
REMARK    3  A    between atoms: N_6  and  C_15
REMARK    4  A    between atoms: C_8  and  C_12
REMARK    5  A    between atoms: C_14  and  C_16
REMARK    6  A    between atoms: C_24  and  C_27
REMARK                            x       y       z     vdW  Elec       q    Type
REMARK                         _______ _______ _______ _____ _____    ______ ____
ROOT
ATOM      2  O   UNL     1      -5.417 -13.172  15.768  0.00  0.00    -0.252 OA
ATOM      4  N   UNL     1      -3.548 -11.860  15.542  0.00  0.00    -0.285 N 
ATOM      6  N   UNL     1      -5.166 -11.299  17.136  0.00  0.00    -0.266 N 
ATOM      8  C   UNL     1      -1.861 -11.798  13.865  0.00  0.00    +0.096 C 
ATOM      9  C   UNL     1      -1.397 -10.989  15.085  0.00  0.00    +0.033 C 
ATOM     10  C   UNL     1      -2.978 -12.663  14.465  0.00  0.00    +0.122 C 
ATOM     11  C   UNL     1      -2.680 -10.731  15.869  0.00  0.00    +0.110 C 
ATOM     13  C   UNL     1      -4.774 -12.187  16.134  0.00  0.00    +0.307 C 
ATOM     29  H   UNL     1      -4.560 -10.509  17.334  0.00  0.00    +0.156 HD
ENDROOT
BRANCH   6  15
ATOM     15  C   UNL     1      -6.342 -11.343  17.924  0.00  0.00    +0.077 A 
ATOM     17  C   UNL     1      -7.430 -10.524  17.625  0.00  0.00    +0.141 A 
ATOM     18  C   UNL     1      -6.404 -12.217  19.010  0.00  0.00    +0.027 A 
ATOM     23  C   UNL     1      -8.582 -10.579  18.411  0.00  0.00    +0.047 A 
ATOM     25  C   UNL     1      -7.556 -12.272  19.796  0.00  0.00    +0.002 A 
ATOM     26  C   UNL     1      -8.644 -11.452  19.496  0.00  0.00    +0.004 A 
BRANCH  17   3
ATOM      3  O   UNL     1      -7.390  -9.662  16.569  0.00  0.00    -0.493 OA
ATOM     28  C   UNL     1      -8.634  -9.125  16.125  0.00  0.00    +0.277 C 
ENDBRANCH  17   3
ENDBRANCH   6  15
BRANCH   8  12
ATOM      1  O   UNL     1      -3.579 -10.724  12.477  0.00  0.00    -0.420 OA
ATOM      5  N   UNL     1      -1.483 -10.230  11.874  0.00  0.00    -0.112 NA
ATOM      7  N   UNL     1      -2.342  -9.566  11.018  0.00  0.00    -0.107 NA
ATOM     12  C   UNL     1      -2.248 -10.893  12.709  0.00  0.00    +0.222 A 
ATOM     14  C   UNL     1      -3.554  -9.883  11.408  0.00  0.00    +0.248 A 
BRANCH  14  16
ATOM     16  C   UNL     1      -4.831  -9.488  10.890  0.00  0.00    +0.038 A 
ATOM     19  C   UNL     1      -5.955  -9.506  11.717  0.00  0.00    +0.013 A 
ATOM     20  C   UNL     1      -4.951  -9.086   9.559  0.00  0.00    +0.013 A 
ATOM     21  C   UNL     1      -7.198  -9.121  11.213  0.00  0.00    +0.004 A 
ATOM     22  C   UNL     1      -6.194  -8.703   9.055  0.00  0.00    +0.004 A 
ATOM     24  C   UNL     1      -7.318  -8.721   9.882  0.00  0.00    -0.050 A 
ATOM     27  C   UNL     1      -8.647  -8.311   9.344  0.00  0.00    +0.044 C 
ENDBRANCH  14  16
ENDBRANCH   8  12
TORSDOF 4
ENDMDL
