REMARK  Name = 45361338
REMARK  11 active torsions:
REMARK  status: ('A' for Active; 'I' for Inactive)
REMARK    1  A    between atoms: O_2  and  C_11
REMARK    2  A    between atoms: N_6  and  C_25
REMARK    3  A    between atoms: N_6  and  C_26
REMARK    4  A    between atoms: N_8  and  C_34
REMARK    5  A    between atoms: C_9  and  C_17
REMARK    6  A    between atoms: C_12  and  C_18
REMARK    7  A    between atoms: C_14  and  C_21
REMARK    8  A    between atoms: C_18  and  C_22
REMARK    9  A    between atoms: C_18  and  C_23
REMARK   10  A    between atoms: C_25  and  C_28
REMARK   11  A    between atoms: C_27  and  C_29
REMARK                            x       y       z     vdW  Elec       q    Type
REMARK                         _______ _______ _______ _____ _____    ______ ____
ROOT
ATOM      1  S   UNL     1       2.854   2.066   0.998  0.00  0.00    -0.057 S 
ATOM      4  O   UNL     1       5.307  -1.648  -0.449  0.00  0.00    -0.268 OA
ATOM      5  N   UNL     1       2.650  -0.280  -0.071  0.00  0.00    -0.229 NA
ATOM      7  N   UNL     1       4.873   0.478   0.471  0.00  0.00    -0.259 N 
ATOM      9  C   UNL     1      -1.097   1.727  -0.094  0.00  0.00    -0.022 C 
ATOM     10  C   UNL     1      -1.172   0.156   0.052  0.00  0.00    +0.033 C 
ATOM     11  C   UNL     1      -2.446  -0.417  -0.632  0.00  0.00    +0.123 C 
ATOM     12  C   UNL     1      -3.740   0.292  -0.175  0.00  0.00    +0.029 C 
ATOM     13  C   UNL     1      -2.417   2.360   0.404  0.00  0.00    +0.008 C 
ATOM     14  C   UNL     1       0.166  -0.547  -0.419  0.00  0.00    +0.042 C 
ATOM     15  C   UNL     1      -3.649   1.813  -0.305  0.00  0.00    +0.007 C 
ATOM     16  C   UNL     1       0.055   2.285   0.798  0.00  0.00    +0.051 C 
ATOM     17  C   UNL     1      -0.852   2.164  -1.562  0.00  0.00    +0.012 C 
ATOM     19  C   UNL     1       1.370   0.229   0.060  0.00  0.00    +0.057 A 
ATOM     20  C   UNL     1       1.301   1.499   0.594  0.00  0.00    +0.015 A 
ATOM     21  C   UNL     1       0.274  -2.011   0.033  0.00  0.00    +0.014 C 
ATOM     24  C   UNL     1       3.510   0.596   0.402  0.00  0.00    +0.165 A 
ATOM     27  C   UNL     1       5.694  -0.601   0.058  0.00  0.00    +0.266 C 
ATOM     36  H   UNL     1       5.335   1.294   0.865  0.00  0.00    +0.157 HD
ENDROOT
BRANCH  27  29
ATOM      8  N   UNL     1       8.118  -0.983  -0.559  0.00  0.00    -0.346 N 
ATOM     29  C   UNL     1       7.158  -0.419   0.240  0.00  0.00    +0.105 A 
ATOM     31  C   UNL     1       7.797   0.325   1.207  0.00  0.00    +0.032 A 
ATOM     32  C   UNL     1       9.360  -0.610  -0.117  0.00  0.00    +0.086 A 
ATOM     33  C   UNL     1       9.191   0.204   0.981  0.00  0.00    +0.020 A 
ATOM     34  C   UNL     1       7.875  -1.843  -1.697  0.00  0.00    +0.149 C 
ENDBRANCH  27  29
BRANCH  11   2
ATOM      2  O   UNL     1      -2.581  -1.798  -0.301  0.00  0.00    -0.391 OA
ATOM     35  H   UNL     1      -2.673  -1.869   0.664  0.00  0.00    +0.210 HD
ENDBRANCH  11   2
BRANCH  12  18
ATOM     18  C   UNL     1      -4.968  -0.215  -0.939  0.00  0.00    +0.078 C 
ATOM     22  C   UNL     1      -4.782   0.046  -2.435  0.00  0.00    +0.017 C 
BRANCH  18  23
ATOM      3  O   UNL     1      -6.589   1.547  -0.915  0.00  0.00    -0.275 OA
ATOM      6  N   UNL     1      -6.914  -0.133   0.643  0.00  0.00    -0.301 N 
ATOM     23  C   UNL     1      -6.228   0.476  -0.413  0.00  0.00    +0.219 C 
ATOM     26  C   UNL     1      -8.106   0.512   1.183  0.00  0.00    +0.132 C 
BRANCH   6  25
ATOM     25  C   UNL     1      -6.575  -1.410   1.268  0.00  0.00    +0.134 C 
BRANCH  25  28
ATOM     28  C   UNL     1      -7.290  -2.508   0.552  0.00  0.00    -0.016 C 
ATOM     30  C   UNL     1      -8.144  -3.351   1.142  0.00  0.00    +0.005 C 
ENDBRANCH  25  28
ENDBRANCH   6  25
ENDBRANCH  18  23
ENDBRANCH  12  18
TORSDOF 6
