REMARK  Name = 7051869
REMARK  5 active torsions:
REMARK  status: ('A' for Active; 'I' for Inactive)
REMARK    1  A    between atoms: N_3  and  C_15
REMARK    2  A    between atoms: N_5  and  C_26
REMARK    3  A    between atoms: N_6  and  C_19
REMARK    4  A    between atoms: C_15  and  C_18
REMARK    5  A    between atoms: C_28  and  C_30
REMARK                            x       y       z     vdW  Elec       q    Type
REMARK                         _______ _______ _______ _____ _____    ______ ____
ROOT
ATOM      1  O   UNL     1      -1.466   2.531  -1.440  0.00  0.00    -0.266 OA
ATOM      3  N   UNL     1       3.307   1.249  -0.602  0.00  0.00    -0.297 NA
ATOM      4  N   UNL     1       0.399   2.436  -0.037  0.00  0.00    -0.310 N 
ATOM      8  C   UNL     1       2.594   3.653  -0.555  0.00  0.00    +0.024 C 
ATOM      9  C   UNL     1       2.406   2.300   1.478  0.00  0.00    +0.050 C 
ATOM     10  C   UNL     1       2.757   3.692   0.959  0.00  0.00    +0.017 C 
ATOM     11  C   UNL     1       3.534   2.588  -1.160  0.00  0.00    +0.090 C 
ATOM     12  C   UNL     1       3.374   1.261   0.867  0.00  0.00    +0.094 C 
ATOM     13  C   UNL     1       1.119   3.394  -0.888  0.00  0.00    +0.130 C 
ATOM     14  C   UNL     1       0.968   1.948   1.144  0.00  0.00    +0.026 A 
ATOM     16  C   UNL     1       0.253   1.158   1.963  0.00  0.00    +0.024 A 
ATOM     17  C   UNL     1      -0.918   2.113  -0.419  0.00  0.00    +0.273 A 
ATOM     19  C   UNL     1      -1.674   1.213   0.509  0.00  0.00    +0.099 A 
ATOM     20  C   UNL     1      -1.094   0.784   1.635  0.00  0.00    +0.030 A 
ENDROOT
BRANCH  19   6
ATOM      2  O   UNL     1      -3.020  -1.193   1.246  0.00  0.00    -0.270 OA
ATOM      6  N   UNL     1      -2.948   0.867   0.169  0.00  0.00    -0.277 N 
ATOM     28  C   UNL     1      -3.549  -0.322   0.560  0.00  0.00    +0.248 C 
ATOM     35  H   UNL     1      -3.389   1.466  -0.521  0.00  0.00    +0.155 HD
BRANCH  28  30
ATOM      7  N   UNL     1      -7.563  -0.866  -0.721  0.00  0.00    -0.263 NA
ATOM     30  C   UNL     1      -4.953  -0.513   0.111  0.00  0.00    +0.040 A 
ATOM     31  C   UNL     1      -5.788  -1.309   0.858  0.00  0.00    +0.033 A 
ATOM     32  C   UNL     1      -5.375   0.113  -1.037  0.00  0.00    +0.033 A 
ATOM     33  C   UNL     1      -7.087  -1.454   0.399  0.00  0.00    +0.111 A 
ATOM     34  C   UNL     1      -6.693  -0.096  -1.412  0.00  0.00    +0.111 A 
ENDBRANCH  28  30
ENDBRANCH  19   6
BRANCH   3  15
ATOM     15  C   UNL     1       4.249   0.283  -1.161  0.00  0.00    +0.121 C 
BRANCH  15  18
ATOM      5  N   UNL     1       4.183  -3.129   0.139  0.00  0.00    -0.349 N 
ATOM     18  C   UNL     1       3.938  -1.103  -0.667  0.00  0.00    -0.008 A 
ATOM     21  C   UNL     1       2.656  -1.680  -0.600  0.00  0.00    +0.004 A 
ATOM     22  C   UNL     1       4.861  -1.994  -0.214  0.00  0.00    +0.091 A 
ATOM     23  C   UNL     1       2.835  -2.966  -0.085  0.00  0.00    +0.049 A 
ATOM     24  C   UNL     1       1.352  -1.253  -0.920  0.00  0.00    +0.010 A 
ATOM     25  C   UNL     1       1.770  -3.850   0.126  0.00  0.00    +0.026 A 
ATOM     26  C   UNL     1       4.809  -4.320   0.673  0.00  0.00    +0.149 C 
ATOM     27  C   UNL     1       0.278  -2.127  -0.715  0.00  0.00    +0.001 A 
ATOM     29  C   UNL     1       0.486  -3.405  -0.200  0.00  0.00    +0.002 A 
ENDBRANCH  15  18
ENDBRANCH   3  15
TORSDOF 4
