REMARK  Name = 51138084
REMARK  10 active torsions:
REMARK  status: ('A' for Active; 'I' for Inactive)
REMARK    1  A    between atoms: N_4  and  C_22
REMARK    2  A    between atoms: N_5  and  C_23
REMARK    3  A    between atoms: C_6  and  C_10
REMARK    4  A    between atoms: C_8  and  C_17
REMARK    5  A    between atoms: C_10  and  C_13
REMARK    6  A    between atoms: C_13  and  C_20
REMARK    7  A    between atoms: C_13  and  C_21
REMARK    8  A    between atoms: C_22  and  C_24
REMARK    9  A    between atoms: C_23  and  C_25
REMARK   10  A    between atoms: C_26  and  C_30
REMARK                            x       y       z     vdW  Elec       q    Type
REMARK                         _______ _______ _______ _____ _____    ______ ____
ROOT
ATOM      3  N   UNL     1      -0.863  -0.672  -0.760  0.00  0.00    -0.299 NA
ATOM      4  N   UNL     1       4.007   0.658  -0.890  0.00  0.00    -0.335 N 
ATOM      6  C   UNL     1      -0.171  -1.607   0.137  0.00  0.00    +0.085 C 
ATOM      7  C   UNL     1       1.359  -1.530   0.133  0.00  0.00    -0.021 A 
ATOM      8  C   UNL     1      -0.677   0.735  -0.434  0.00  0.00    +0.145 C 
ATOM      9  C   UNL     1       2.124  -0.445  -0.383  0.00  0.00    +0.008 A 
ATOM     11  C   UNL     1       0.432   1.363  -1.276  0.00  0.00    +0.065 C 
ATOM     12  C   UNL     1       1.790   0.813  -0.995  0.00  0.00    -0.020 A 
ATOM     14  C   UNL     1       3.522  -0.492  -0.314  0.00  0.00    +0.050 A 
ATOM     15  C   UNL     1       2.976   1.452  -1.297  0.00  0.00    +0.091 A 
ATOM     16  C   UNL     1       2.092  -2.573   0.754  0.00  0.00    +0.006 A 
ATOM     18  C   UNL     1       4.227  -1.551   0.261  0.00  0.00    +0.026 A 
ATOM     19  C   UNL     1       3.485  -2.589   0.808  0.00  0.00    +0.002 A 
ATOM     31  H   UNL     1      -0.626  -0.859  -1.734  0.00  0.00    +0.123 HD
ENDROOT
BRANCH   8  17
ATOM      2  O   UNL     1      -2.436   1.381  -1.911  0.00  0.00    -0.274 OA
ATOM      5  N   UNL     1      -2.559   2.002   0.329  0.00  0.00    -0.309 N 
ATOM     17  C   UNL     1      -1.981   1.392  -0.771  0.00  0.00    +0.231 C 
ATOM     32  H   UNL     1      -2.107   1.939   1.237  0.00  0.00    +0.149 HD
BRANCH   5  23
ATOM     23  C   UNL     1      -3.808   2.725   0.267  0.00  0.00    +0.146 C 
BRANCH  23  25
ATOM      1  S   UNL     1      -6.217   1.640  -0.593  0.00  0.00    -0.100 S 
ATOM     25  C   UNL     1      -4.983   1.843   0.577  0.00  0.00    +0.007 A 
ATOM     27  C   UNL     1      -5.239   1.129   1.727  0.00  0.00    +0.013 A 
ATOM     28  C   UNL     1      -6.464   0.406   1.646  0.00  0.00    +0.008 A 
ATOM     29  C   UNL     1      -7.098   0.595   0.438  0.00  0.00    +0.045 A 
ENDBRANCH  23  25
ENDBRANCH   5  23
ENDBRANCH   8  17
BRANCH   6  10
ATOM     10  C   UNL     1      -0.694  -2.996  -0.271  0.00  0.00    +0.026 C 
BRANCH  10  13
ATOM     13  C   UNL     1      -2.106  -3.281   0.250  0.00  0.00    -0.015 C 
ATOM     20  C   UNL     1      -2.517  -4.699  -0.154  0.00  0.00    +0.007 C 
ATOM     21  C   UNL     1      -3.138  -2.277  -0.267  0.00  0.00    +0.007 C 
ENDBRANCH  10  13
ENDBRANCH   6  10
BRANCH   4  22
ATOM     22  C   UNL     1       5.405   1.003  -1.034  0.00  0.00    +0.210 C 
BRANCH  22  24
ATOM     24  C   UNL     1       5.993   1.459   0.232  0.00  0.00    -0.081 C 
ATOM     26  C   UNL     1       6.476   1.832   1.266  0.00  0.00    -0.104 C 
ATOM     30  C   UNL     1       7.062   2.285   2.526  0.00  0.00    +0.106 C 
ENDBRANCH  22  24
ENDBRANCH   4  22
TORSDOF 7
