MODEL 1
REMARK VINA RESULT:      -6.7      0.000      0.000
REMARK  Name = 51137058
REMARK  3 active torsions:
REMARK  status: ('A' for Active; 'I' for Inactive)
REMARK    1  A    between atoms: N_2  and  C_5
REMARK    2  A    between atoms: C_4  and  C_5
REMARK    3  A    between atoms: C_6  and  C_15
REMARK                            x       y       z     vdW  Elec       q    Type
REMARK                         _______ _______ _______ _____ _____    ______ ____
ROOT
ATOM      2  N   UNL     1      11.467   9.698  21.286  0.00  0.00    -0.301 NA
ATOM      6  C   UNL     1      13.193   9.050  19.837  0.00  0.00    +0.090 C 
ATOM      7  C   UNL     1      12.928   9.601  21.244  0.00  0.00    +0.097 C 
ATOM     10  C   UNL     1      10.989   8.461  20.670  0.00  0.00    +0.085 C 
ATOM     11  C   UNL     1      11.897   8.313  19.456  0.00  0.00    +0.029 C 
ENDROOT
BRANCH   6  15
ATOM      1  O   UNL     1      15.419   8.509  20.670  0.00  0.00    -0.439 OA
ATOM      3  N   UNL     1      14.727   7.232  18.929  0.00  0.00    -0.213 NA
ATOM     15  C   UNL     1      14.448   8.211  19.761  0.00  0.00    +0.201 A 
ATOM     16  C   UNL     1      16.414   7.619  20.378  0.00  0.00    +0.155 A 
ATOM     17  C   UNL     1      15.986   6.840  19.314  0.00  0.00    +0.110 A 
ATOM     18  C   UNL     1      17.643   7.490  21.012  0.00  0.00    +0.048 A 
ATOM     19  C   UNL     1      16.838   5.841  18.821  0.00  0.00    +0.031 A 
ATOM     20  C   UNL     1      18.480   6.488  20.509  0.00  0.00    +0.004 A 
ATOM     21  C   UNL     1      18.088   5.679  19.435  0.00  0.00    +0.002 A 
ENDBRANCH   6  15
BRANCH   2   5
ATOM      5  C   UNL     1      10.960   9.876  22.639  0.00  0.00    +0.088 C 
BRANCH   5   4
ATOM      4  C   UNL     1      11.410  11.216  23.217  0.00  0.00    +0.003 C 
ATOM      8  C   UNL     1      10.873  12.379  22.372  0.00  0.00    +0.005 C 
ATOM      9  C   UNL     1      10.964  11.352  24.679  0.00  0.00    +0.005 C 
ATOM     12  C   UNL     1      11.266  13.732  22.961  0.00  0.00    +0.000 C 
ATOM     13  C   UNL     1      11.357  12.707  25.264  0.00  0.00    +0.000 C 
ATOM     14  C   UNL     1      10.829  13.860  24.416  0.00  0.00    +0.000 C 
ENDBRANCH   5   4
ENDBRANCH   2   5
TORSDOF 3
ENDMDL
MODEL 2
REMARK VINA RESULT:      -6.6     26.705     28.486
REMARK  Name = 51137058
REMARK  3 active torsions:
REMARK  status: ('A' for Active; 'I' for Inactive)
REMARK    1  A    between atoms: N_2  and  C_5
REMARK    2  A    between atoms: C_4  and  C_5
REMARK    3  A    between atoms: C_6  and  C_15
REMARK                            x       y       z     vdW  Elec       q    Type
REMARK                         _______ _______ _______ _____ _____    ______ ____
ROOT
ATOM      2  N   UNL     1      -2.233 -11.228  12.962  0.00  0.00    -0.301 NA
ATOM      6  C   UNL     1      -2.788 -10.429  15.096  0.00  0.00    +0.090 C 
ATOM      7  C   UNL     1      -3.370 -10.667  13.696  0.00  0.00    +0.097 C 
ATOM     10  C   UNL     1      -1.622 -12.183  13.886  0.00  0.00    +0.085 C 
ATOM     11  C   UNL     1      -1.619 -11.424  15.207  0.00  0.00    +0.029 C 
ENDROOT
BRANCH   6  15
ATOM      1  O   UNL     1      -3.463 -11.277  17.280  0.00  0.00    -0.439 OA
ATOM      3  N   UNL     1      -5.033 -10.025  16.228  0.00  0.00    -0.213 NA
ATOM     15  C   UNL     1      -3.825 -10.542  16.190  0.00  0.00    +0.201 A 
ATOM     16  C   UNL     1      -4.562 -11.213  18.088  0.00  0.00    +0.155 A 
ATOM     17  C   UNL     1      -5.520 -10.446  17.441  0.00  0.00    +0.110 A 
ATOM     18  C   UNL     1      -4.727 -11.797  19.338  0.00  0.00    +0.048 A 
ATOM     19  C   UNL     1      -6.754 -10.229  18.072  0.00  0.00    +0.031 A 
ATOM     20  C   UNL     1      -5.962 -11.570  19.954  0.00  0.00    +0.004 A 
ATOM     21  C   UNL     1      -6.957 -10.802  19.336  0.00  0.00    +0.002 A 
ENDBRANCH   6  15
BRANCH   2   5
ATOM      5  C   UNL     1      -2.633 -11.849  11.708  0.00  0.00    +0.088 C 
BRANCH   5   4
ATOM      4  C   UNL     1      -3.633 -10.969  10.960  0.00  0.00    +0.003 C 
ATOM      8  C   UNL     1      -2.958  -9.684  10.462  0.00  0.00    +0.005 C 
ATOM      9  C   UNL     1      -4.267 -11.740   9.795  0.00  0.00    +0.005 C 
ATOM     12  C   UNL     1      -3.926  -8.813   9.664  0.00  0.00    +0.000 C 
ATOM     13  C   UNL     1      -5.233 -10.865   8.999  0.00  0.00    +0.000 C 
ATOM     14  C   UNL     1      -4.561  -9.585   8.513  0.00  0.00    +0.000 C 
ENDBRANCH   5   4
ENDBRANCH   2   5
TORSDOF 3
ENDMDL
MODEL 3
REMARK VINA RESULT:      -6.5      1.562      7.927
REMARK  Name = 51137058
REMARK  3 active torsions:
REMARK  status: ('A' for Active; 'I' for Inactive)
REMARK    1  A    between atoms: N_2  and  C_5
REMARK    2  A    between atoms: C_4  and  C_5
REMARK    3  A    between atoms: C_6  and  C_15
REMARK                            x       y       z     vdW  Elec       q    Type
REMARK                         _______ _______ _______ _____ _____    ______ ____
ROOT
ATOM      2  N   UNL     1      13.480   8.289  20.305  0.00  0.00    -0.301 NA
ATOM      6  C   UNL     1      11.940   9.170  21.840  0.00  0.00    +0.090 C 
ATOM      7  C   UNL     1      13.429   9.180  21.467  0.00  0.00    +0.097 C 
ATOM     10  C   UNL     1      12.320   8.659  19.496  0.00  0.00    +0.085 C 
ATOM     11  C   UNL     1      11.214   8.806  20.533  0.00  0.00    +0.029 C 
ENDROOT
BRANCH   6  15
ATOM      1  O   UNL     1      11.253  11.499  21.630  0.00  0.00    -0.439 OA
ATOM      3  N   UNL     1      11.288  10.715  23.756  0.00  0.00    -0.213 NA
ATOM     15  C   UNL     1      11.486  10.461  22.482  0.00  0.00    +0.201 A 
ATOM     16  C   UNL     1      10.866  12.513  22.459  0.00  0.00    +0.155 A 
ATOM     17  C   UNL     1      10.888  12.029  23.759  0.00  0.00    +0.110 A 
ATOM     18  C   UNL     1      10.507  13.807  22.101  0.00  0.00    +0.048 A 
ATOM     19  C   UNL     1      10.528  12.887  24.807  0.00  0.00    +0.031 A 
ATOM     20  C   UNL     1      10.150  14.649  23.159  0.00  0.00    +0.004 A 
ATOM     21  C   UNL     1      10.159  14.201  24.486  0.00  0.00    +0.002 A 
ENDBRANCH   6  15
BRANCH   2   5
ATOM      5  C   UNL     1      14.730   8.407  19.569  0.00  0.00    +0.088 C 
BRANCH   5   4
ATOM      4  C   UNL     1      15.744   7.369  20.048  0.00  0.00    +0.003 C 
ATOM      8  C   UNL     1      16.237   6.512  18.875  0.00  0.00    +0.005 C 
ATOM      9  C   UNL     1      16.920   8.049  20.760  0.00  0.00    +0.005 C 
ATOM     12  C   UNL     1      17.292   5.501  19.321  0.00  0.00    +0.000 C 
ATOM     13  C   UNL     1      17.973   7.036  21.203  0.00  0.00    +0.000 C 
ATOM     14  C   UNL     1      18.455   6.179  20.036  0.00  0.00    +0.000 C 
ENDBRANCH   5   4
ENDBRANCH   2   5
TORSDOF 3
ENDMDL
MODEL 4
REMARK VINA RESULT:      -6.3      3.564      5.845
REMARK  Name = 51137058
REMARK  3 active torsions:
REMARK  status: ('A' for Active; 'I' for Inactive)
REMARK    1  A    between atoms: N_2  and  C_5
REMARK    2  A    between atoms: C_4  and  C_5
REMARK    3  A    between atoms: C_6  and  C_15
REMARK                            x       y       z     vdW  Elec       q    Type
REMARK                         _______ _______ _______ _____ _____    ______ ____
ROOT
ATOM      2  N   UNL     1      16.150   7.666  20.536  0.00  0.00    -0.301 NA
ATOM      6  C   UNL     1      18.370   6.971  20.237  0.00  0.00    +0.090 C 
ATOM      7  C   UNL     1      17.439   7.677  21.232  0.00  0.00    +0.097 C 
ATOM     10  C   UNL     1      16.045   6.326  19.959  0.00  0.00    +0.085 C 
ATOM     11  C   UNL     1      17.436   6.092  19.386  0.00  0.00    +0.029 C 
ENDROOT
BRANCH   6  15
ATOM      1  O   UNL     1      19.866   5.049  20.338  0.00  0.00    -0.439 OA
ATOM      3  N   UNL     1      20.173   6.570  21.990  0.00  0.00    -0.213 NA
ATOM     15  C   UNL     1      19.499   6.228  20.914  0.00  0.00    +0.201 A 
ATOM     16  C   UNL     1      20.880   4.604  21.137  0.00  0.00    +0.155 A 
ATOM     17  C   UNL     1      21.066   5.537  22.146  0.00  0.00    +0.110 A 
ATOM     18  C   UNL     1      21.616   3.434  20.995  0.00  0.00    +0.048 A 
ATOM     19  C   UNL     1      22.060   5.308  23.107  0.00  0.00    +0.031 A 
ATOM     20  C   UNL     1      22.605   3.221  21.961  0.00  0.00    +0.004 A 
ATOM     21  C   UNL     1      22.825   4.137  22.997  0.00  0.00    +0.002 A 
ENDBRANCH   6  15
BRANCH   2   5
ATOM      5  C   UNL     1      15.038   7.978  21.421  0.00  0.00    +0.088 C 
BRANCH   5   4
ATOM      4  C   UNL     1      13.702   7.716  20.730  0.00  0.00    +0.003 C 
ATOM      8  C   UNL     1      12.565   7.633  21.757  0.00  0.00    +0.005 C 
ATOM      9  C   UNL     1      13.413   8.799  19.681  0.00  0.00    +0.005 C 
ATOM     12  C   UNL     1      11.211   7.424  21.083  0.00  0.00    +0.000 C 
ATOM     13  C   UNL     1      12.057   8.588  19.011  0.00  0.00    +0.000 C 
ATOM     14  C   UNL     1      10.931   8.497  20.037  0.00  0.00    +0.000 C 
ENDBRANCH   5   4
ENDBRANCH   2   5
TORSDOF 3
ENDMDL
MODEL 5
REMARK VINA RESULT:      -6.2     27.195     29.252
REMARK  Name = 51137058
REMARK  3 active torsions:
REMARK  status: ('A' for Active; 'I' for Inactive)
REMARK    1  A    between atoms: N_2  and  C_5
REMARK    2  A    between atoms: C_4  and  C_5
REMARK    3  A    between atoms: C_6  and  C_15
REMARK                            x       y       z     vdW  Elec       q    Type
REMARK                         _______ _______ _______ _____ _____    ______ ____
ROOT
ATOM      2  N   UNL     1      -3.985 -10.804  14.784  0.00  0.00    -0.301 NA
ATOM      6  C   UNL     1      -5.154 -10.081  16.684  0.00  0.00    +0.090 C 
ATOM      7  C   UNL     1      -5.265 -10.198  15.158  0.00  0.00    +0.097 C 
ATOM     10  C   UNL     1      -3.759 -11.852  15.779  0.00  0.00    +0.085 C 
ATOM     11  C   UNL     1      -4.141 -11.168  17.085  0.00  0.00    +0.029 C 
ENDROOT
BRANCH   6  15
ATOM      1  O   UNL     1      -7.472  -9.357  16.896  0.00  0.00    -0.439 OA
ATOM      3  N   UNL     1      -6.837 -10.937  18.393  0.00  0.00    -0.213 NA
ATOM     15  C   UNL     1      -6.494 -10.173  17.380  0.00  0.00    +0.201 A 
ATOM     16  C   UNL     1      -8.546  -9.641  17.691  0.00  0.00    +0.155 A 
ATOM     17  C   UNL     1      -8.154 -10.608  18.604  0.00  0.00    +0.110 A 
ATOM     18  C   UNL     1      -9.817  -9.082  17.625  0.00  0.00    +0.048 A 
ATOM     19  C   UNL     1      -9.087 -11.072  19.542  0.00  0.00    +0.031 A 
ATOM     20  C   UNL     1     -10.736  -9.557  18.566  0.00  0.00    +0.004 A 
ATOM     21  C   UNL     1     -10.381 -10.533  19.507  0.00  0.00    +0.002 A 
ENDBRANCH   6  15
BRANCH   2   5
ATOM      5  C   UNL     1      -3.993 -11.324  13.424  0.00  0.00    +0.088 C 
BRANCH   5   4
ATOM      4  C   UNL     1      -3.846 -10.193  12.409  0.00  0.00    +0.003 C 
ATOM      8  C   UNL     1      -2.562 -10.364  11.587  0.00  0.00    +0.005 C 
ATOM      9  C   UNL     1      -5.076 -10.124  11.493  0.00  0.00    +0.005 C 
ATOM     12  C   UNL     1      -2.421  -9.272  10.528  0.00  0.00    +0.000 C 
ATOM     13  C   UNL     1      -4.930  -9.033  10.434  0.00  0.00    +0.000 C 
ATOM     14  C   UNL     1      -3.648  -9.202   9.626  0.00  0.00    +0.000 C 
ENDBRANCH   5   4
ENDBRANCH   2   5
TORSDOF 3
ENDMDL
MODEL 6
REMARK VINA RESULT:      -6.1     27.789     30.709
REMARK  Name = 51137058
REMARK  3 active torsions:
REMARK  status: ('A' for Active; 'I' for Inactive)
REMARK    1  A    between atoms: N_2  and  C_5
REMARK    2  A    between atoms: C_4  and  C_5
REMARK    3  A    between atoms: C_6  and  C_15
REMARK                            x       y       z     vdW  Elec       q    Type
REMARK                         _______ _______ _______ _____ _____    ______ ____
ROOT
ATOM      2  N   UNL     1      -9.404  -8.790  16.727  0.00  0.00    -0.301 NA
ATOM      6  C   UNL     1     -11.158  -7.238  16.600  0.00  0.00    +0.090 C 
ATOM      7  C   UNL     1      -9.788  -7.579  15.997  0.00  0.00    +0.097 C 
ATOM     10  C   UNL     1     -10.620  -9.600  16.780  0.00  0.00    +0.085 C 
ATOM     11  C   UNL     1     -11.694  -8.579  17.133  0.00  0.00    +0.029 C 
ENDROOT
BRANCH   6  15
ATOM      1  O   UNL     1     -11.467  -5.657  14.771  0.00  0.00    -0.439 OA
ATOM      3  N   UNL     1     -13.373  -6.650  15.491  0.00  0.00    -0.213 NA
ATOM     15  C   UNL     1     -12.071  -6.532  15.624  0.00  0.00    +0.201 A 
ATOM     16  C   UNL     1     -12.502  -5.175  14.022  0.00  0.00    +0.155 A 
ATOM     17  C   UNL     1     -13.666  -5.785  14.465  0.00  0.00    +0.110 A 
ATOM     18  C   UNL     1     -12.438  -4.242  12.994  0.00  0.00    +0.048 A 
ATOM     19  C   UNL     1     -14.882  -5.455  13.848  0.00  0.00    +0.031 A 
ATOM     20  C   UNL     1     -13.659  -3.925  12.389  0.00  0.00    +0.004 A 
ATOM     21  C   UNL     1     -14.858  -4.517  12.805  0.00  0.00    +0.002 A 
ENDBRANCH   6  15
BRANCH   2   5
ATOM      5  C   UNL     1      -8.297  -9.492  16.093  0.00  0.00    +0.088 C 
BRANCH   5   4
ATOM      4  C   UNL     1      -7.086  -9.548  17.022  0.00  0.00    +0.003 C 
ATOM      8  C   UNL     1      -7.419 -10.324  18.303  0.00  0.00    +0.005 C 
ATOM      9  C   UNL     1      -5.881 -10.171  16.303  0.00  0.00    +0.005 C 
ATOM     12  C   UNL     1      -6.206 -10.439  19.223  0.00  0.00    +0.000 C 
ATOM     13  C   UNL     1      -4.671 -10.285  17.228  0.00  0.00    +0.000 C 
ATOM     14  C   UNL     1      -5.009 -11.050  18.504  0.00  0.00    +0.000 C 
ENDBRANCH   5   4
ENDBRANCH   2   5
TORSDOF 3
ENDMDL
MODEL 7
REMARK VINA RESULT:      -6.1     26.842     29.671
REMARK  Name = 51137058
REMARK  3 active torsions:
REMARK  status: ('A' for Active; 'I' for Inactive)
REMARK    1  A    between atoms: N_2  and  C_5
REMARK    2  A    between atoms: C_4  and  C_5
REMARK    3  A    between atoms: C_6  and  C_15
REMARK                            x       y       z     vdW  Elec       q    Type
REMARK                         _______ _______ _______ _____ _____    ______ ____
ROOT
ATOM      2  N   UNL     1      -4.836 -11.622  17.138  0.00  0.00    -0.301 NA
ATOM      6  C   UNL     1      -6.421 -10.603  18.534  0.00  0.00    +0.090 C 
ATOM      7  C   UNL     1      -6.100 -10.886  17.060  0.00  0.00    +0.097 C 
ATOM     10  C   UNL     1      -5.014 -12.562  18.244  0.00  0.00    +0.085 C 
ATOM     11  C   UNL     1      -5.683 -11.706  19.312  0.00  0.00    +0.029 C 
ENDROOT
BRANCH   6  15
ATOM      1  O   UNL     1      -8.629  -9.765  17.930  0.00  0.00    -0.439 OA
ATOM      3  N   UNL     1      -8.590 -11.072  19.781  0.00  0.00    -0.213 NA
ATOM     15  C   UNL     1      -7.905 -10.517  18.806  0.00  0.00    +0.201 A 
ATOM     16  C   UNL     1      -9.905  -9.859  18.406  0.00  0.00    +0.155 A 
ATOM     17  C   UNL     1      -9.878 -10.660  19.537  0.00  0.00    +0.110 A 
ATOM     18  C   UNL     1     -11.049  -9.273  17.877  0.00  0.00    +0.048 A 
ATOM     19  C   UNL     1     -11.078 -10.912  20.218  0.00  0.00    +0.031 A 
ATOM     20  C   UNL     1     -12.237  -9.536  18.567  0.00  0.00    +0.004 A 
ATOM     21  C   UNL     1     -12.254 -10.339  19.715  0.00  0.00    +0.002 A 
ENDBRANCH   6  15
BRANCH   2   5
ATOM      5  C   UNL     1      -4.506 -12.293  15.888  0.00  0.00    +0.088 C 
BRANCH   5   4
ATOM      4  C   UNL     1      -3.158 -11.815  15.354  0.00  0.00    +0.003 C 
ATOM      8  C   UNL     1      -3.332 -11.085  14.015  0.00  0.00    +0.005 C 
ATOM      9  C   UNL     1      -2.457 -10.914  16.380  0.00  0.00    +0.005 C 
ATOM     12  C   UNL     1      -2.002 -10.551  13.488  0.00  0.00    +0.000 C 
ATOM     13  C   UNL     1      -1.129 -10.381  15.848  0.00  0.00    +0.000 C 
ATOM     14  C   UNL     1      -1.305  -9.664  14.513  0.00  0.00    +0.000 C 
ENDBRANCH   5   4
ENDBRANCH   2   5
TORSDOF 3
ENDMDL
MODEL 8
REMARK VINA RESULT:      -5.9     27.279     29.812
REMARK  Name = 51137058
REMARK  3 active torsions:
REMARK  status: ('A' for Active; 'I' for Inactive)
REMARK    1  A    between atoms: N_2  and  C_5
REMARK    2  A    between atoms: C_4  and  C_5
REMARK    3  A    between atoms: C_6  and  C_15
REMARK                            x       y       z     vdW  Elec       q    Type
REMARK                         _______ _______ _______ _____ _____    ______ ____
ROOT
ATOM      2  N   UNL     1     -17.103   3.905  25.806  0.00  0.00    -0.301 NA
ATOM      6  C   UNL     1     -16.387   4.696  23.717  0.00  0.00    +0.090 C 
ATOM      7  C   UNL     1     -16.827   5.164  25.111  0.00  0.00    +0.097 C 
ATOM     10  C   UNL     1     -16.001   3.019  25.432  0.00  0.00    +0.085 C 
ATOM     11  C   UNL     1     -15.859   3.267  23.936  0.00  0.00    +0.029 C 
ENDROOT
BRANCH   6  15
ATOM      1  O   UNL     1     -14.337   5.061  22.451  0.00  0.00    -0.439 OA
ATOM      3  N   UNL     1     -15.455   6.955  23.001  0.00  0.00    -0.213 NA
ATOM     15  C   UNL     1     -15.408   5.642  23.060  0.00  0.00    +0.201 A 
ATOM     16  C   UNL     1     -13.636   6.124  21.956  0.00  0.00    +0.155 A 
ATOM     17  C   UNL     1     -14.323   7.280  22.294  0.00  0.00    +0.110 A 
ATOM     18  C   UNL     1     -12.446   6.091  21.238  0.00  0.00    +0.048 A 
ATOM     19  C   UNL     1     -13.802   8.519  21.896  0.00  0.00    +0.031 A 
ATOM     20  C   UNL     1     -11.941   7.335  20.848  0.00  0.00    +0.004 A 
ATOM     21  C   UNL     1     -12.603   8.527  21.169  0.00  0.00    +0.002 A 
ENDBRANCH   6  15
BRANCH   2   5
ATOM      5  C   UNL     1     -17.210   4.078  27.247  0.00  0.00    +0.088 C 
BRANCH   5   4
ATOM      4  C   UNL     1     -16.314   3.083  27.982  0.00  0.00    +0.003 C 
ATOM      8  C   UNL     1     -15.533   3.782  29.104  0.00  0.00    +0.005 C 
ATOM      9  C   UNL     1     -17.142   1.916  28.538  0.00  0.00    +0.005 C 
ATOM     12  C   UNL     1     -14.670   2.796  29.888  0.00  0.00    +0.000 C 
ATOM     13  C   UNL     1     -16.275   0.934  29.323  0.00  0.00    +0.000 C 
ATOM     14  C   UNL     1     -15.494   1.634  30.430  0.00  0.00    +0.000 C 
ENDBRANCH   5   4
ENDBRANCH   2   5
TORSDOF 3
ENDMDL
MODEL 9
REMARK VINA RESULT:      -5.9     26.640     28.364
REMARK  Name = 51137058
REMARK  3 active torsions:
REMARK  status: ('A' for Active; 'I' for Inactive)
REMARK    1  A    between atoms: N_2  and  C_5
REMARK    2  A    between atoms: C_4  and  C_5
REMARK    3  A    between atoms: C_6  and  C_15
REMARK                            x       y       z     vdW  Elec       q    Type
REMARK                         _______ _______ _______ _____ _____    ______ ____
ROOT
ATOM      2  N   UNL     1      -3.704 -11.454  16.714  0.00  0.00    -0.301 NA
ATOM      6  C   UNL     1      -3.405 -11.591  14.392  0.00  0.00    +0.090 C 
ATOM      7  C   UNL     1      -4.460 -11.302  15.469  0.00  0.00    +0.097 C 
ATOM     10  C   UNL     1      -2.428 -10.784  16.465  0.00  0.00    +0.085 C 
ATOM     11  C   UNL     1      -2.061 -11.263  15.066  0.00  0.00    +0.029 C 
ENDROOT
BRANCH   6  15
ATOM      1  O   UNL     1      -4.871 -10.223  13.007  0.00  0.00    -0.439 OA
ATOM      3  N   UNL     1      -2.880 -10.735  12.052  0.00  0.00    -0.213 NA
ATOM     15  C   UNL     1      -3.666 -10.851  13.100  0.00  0.00    +0.201 A 
ATOM     16  C   UNL     1      -4.839  -9.651  11.767  0.00  0.00    +0.155 A 
ATOM     17  C   UNL     1      -3.619  -9.965  11.187  0.00  0.00    +0.110 A 
ATOM     18  C   UNL     1      -5.829  -8.884  11.165  0.00  0.00    +0.048 A 
ATOM     19  C   UNL     1      -3.340  -9.490   9.898  0.00  0.00    +0.031 A 
ATOM     20  C   UNL     1      -5.534  -8.417   9.880  0.00  0.00    +0.004 A 
ATOM     21  C   UNL     1      -4.314  -8.712   9.256  0.00  0.00    +0.002 A 
ENDBRANCH   6  15
BRANCH   2   5
ATOM      5  C   UNL     1      -4.406 -10.898  17.862  0.00  0.00    +0.088 C 
BRANCH   5   4
ATOM      4  C   UNL     1      -5.883 -11.288  17.836  0.00  0.00    +0.003 C 
ATOM      8  C   UNL     1      -6.137 -12.512  18.726  0.00  0.00    +0.005 C 
ATOM      9  C   UNL     1      -6.762 -10.106  18.269  0.00  0.00    +0.005 C 
ATOM     12  C   UNL     1      -7.617 -12.887  18.759  0.00  0.00    +0.000 C 
ATOM     13  C   UNL     1      -8.241 -10.486  18.301  0.00  0.00    +0.000 C 
ATOM     14  C   UNL     1      -8.488 -11.709  19.180  0.00  0.00    +0.000 C 
ENDBRANCH   5   4
ENDBRANCH   2   5
TORSDOF 3
ENDMDL
MODEL 10
REMARK VINA RESULT:      -5.9     21.987     24.778
REMARK  Name = 51137058
REMARK  3 active torsions:
REMARK  status: ('A' for Active; 'I' for Inactive)
REMARK    1  A    between atoms: N_2  and  C_5
REMARK    2  A    between atoms: C_4  and  C_5
REMARK    3  A    between atoms: C_6  and  C_15
REMARK                            x       y       z     vdW  Elec       q    Type
REMARK                         _______ _______ _______ _____ _____    ______ ____
ROOT
ATOM      2  N   UNL     1      -9.567  11.934  16.220  0.00  0.00    -0.301 NA
ATOM      6  C   UNL     1     -10.509   9.839  16.694  0.00  0.00    +0.090 C 
ATOM      7  C   UNL     1      -9.703  10.983  17.325  0.00  0.00    +0.097 C 
ATOM     10  C   UNL     1     -10.886  11.970  15.588  0.00  0.00    +0.085 C 
ATOM     11  C   UNL     1     -11.275  10.498  15.533  0.00  0.00    +0.029 C 
ENDROOT
BRANCH   6  15
ATOM      1  O   UNL     1     -10.718   8.505  18.723  0.00  0.00    -0.439 OA
ATOM      3  N   UNL     1     -12.684   8.978  17.699  0.00  0.00    -0.213 NA
ATOM     15  C   UNL     1     -11.376   9.109  17.694  0.00  0.00    +0.201 A 
ATOM     16  C   UNL     1     -11.721   7.934  19.453  0.00  0.00    +0.155 A 
ATOM     17  C   UNL     1     -12.922   8.226  18.824  0.00  0.00    +0.110 A 
ATOM     18  C   UNL     1     -11.598   7.191  20.621  0.00  0.00    +0.048 A 
ATOM     19  C   UNL     1     -14.114   7.747  19.385  0.00  0.00    +0.031 A 
ATOM     20  C   UNL     1     -12.797   6.721  21.167  0.00  0.00    +0.004 A 
ATOM     21  C   UNL     1     -14.032   6.992  20.564  0.00  0.00    +0.002 A 
ENDBRANCH   6  15
BRANCH   2   5
ATOM      5  C   UNL     1      -9.133  13.249  16.670  0.00  0.00    +0.088 C 
BRANCH   5   4
ATOM      4  C   UNL     1      -7.616  13.391  16.552  0.00  0.00    +0.003 C 
ATOM      8  C   UNL     1      -7.207  13.652  15.097  0.00  0.00    +0.005 C 
ATOM      9  C   UNL     1      -7.103  14.506  17.473  0.00  0.00    +0.005 C 
ATOM     12  C   UNL     1      -5.699  13.850  14.963  0.00  0.00    +0.000 C 
ATOM     13  C   UNL     1      -5.595  14.703  17.335  0.00  0.00    +0.000 C 
ATOM     14  C   UNL     1      -5.192  14.953  15.885  0.00  0.00    +0.000 C 
ENDBRANCH   5   4
ENDBRANCH   2   5
TORSDOF 3
ENDMDL
