MODEL 1
REMARK VINA RESULT:      -7.8      0.000      0.000
REMARK  Name = 11886497
REMARK  6 active torsions:
REMARK  status: ('A' for Active; 'I' for Inactive)
REMARK    1  A    between atoms: O_6  and  C_13
REMARK    2  A    between atoms: O_6  and  C_16
REMARK    3  A    between atoms: N_8  and  C_12
REMARK    4  A    between atoms: N_9  and  C_19
REMARK    5  A    between atoms: C_16  and  C_18
REMARK    6  A    between atoms: C_27  and  C_30
REMARK                            x       y       z     vdW  Elec       q    Type
REMARK                         _______ _______ _______ _____ _____    ______ ____
ROOT
ATOM      7  O   UNL     1     -16.841   1.827  26.862  0.00  0.00    -0.252 OA
ATOM      8  N   UNL     1     -15.968   3.863  26.203  0.00  0.00    -0.292 N 
ATOM      9  N   UNL     1     -15.314   2.982  28.221  0.00  0.00    -0.269 N 
ATOM     17  C   UNL     1     -16.109   2.788  27.088  0.00  0.00    +0.304 C 
ATOM     31  H   UNL     1     -15.293   4.587  26.429  0.00  0.00    +0.151 HD
ATOM     32  H   UNL     1     -14.766   3.837  28.251  0.00  0.00    +0.156 HD
ENDROOT
BRANCH   8  12
ATOM      4  O   UNL     1     -16.540   6.203  24.207  0.00  0.00    -0.369 OA
ATOM      5  O   UNL     1     -16.354   3.622  22.564  0.00  0.00    -0.369 OA
ATOM     10  C   UNL     1     -15.700   4.027  23.785  0.00  0.00    +0.172 C 
ATOM     11  C   UNL     1     -15.410   5.508  23.656  0.00  0.00    +0.180 C 
ATOM     12  C   UNL     1     -16.666   3.947  24.943  0.00  0.00    +0.131 C 
ATOM     13  C   UNL     1     -15.314   5.694  22.160  0.00  0.00    +0.175 C 
ATOM     14  C   UNL     1     -17.429   5.255  24.819  0.00  0.00    +0.185 C 
ATOM     15  C   UNL     1     -16.362   4.729  21.652  0.00  0.00    +0.194 C 
BRANCH  13   6
ATOM      6  O   UNL     1     -15.562   7.016  21.741  0.00  0.00    -0.367 OA
BRANCH   6  16
ATOM     16  C   UNL     1     -14.444   7.869  21.977  0.00  0.00    +0.195 C 
BRANCH  16  18
ATOM     18  C   UNL     1     -13.509   7.786  20.806  0.00  0.00    -0.022 A 
ATOM     20  C   UNL     1     -12.172   7.462  21.016  0.00  0.00    +0.006 A 
ATOM     21  C   UNL     1     -13.986   8.033  19.525  0.00  0.00    +0.006 A 
ATOM     22  C   UNL     1     -11.303   7.385  19.927  0.00  0.00    +0.000 A 
ATOM     23  C   UNL     1     -13.116   7.956  18.437  0.00  0.00    +0.000 A 
ATOM     26  C   UNL     1     -11.774   7.632  18.638  0.00  0.00    +0.000 A 
ENDBRANCH  16  18
ENDBRANCH   6  16
ENDBRANCH  13   6
ENDBRANCH   8  12
BRANCH   9  19
ATOM     19  C   UNL     1     -15.176   2.129  29.341  0.00  0.00    +0.035 A 
ATOM     24  C   UNL     1     -15.101   2.682  30.609  0.00  0.00    +0.035 A 
ATOM     25  C   UNL     1     -15.120   0.759  29.147  0.00  0.00    +0.023 A 
ATOM     27  C   UNL     1     -14.965   1.840  31.714  0.00  0.00    +0.057 A 
ATOM     28  C   UNL     1     -14.984  -0.082  30.251  0.00  0.00    +0.002 A 
ATOM     29  C   UNL     1     -14.907   0.458  31.535  0.00  0.00    +0.012 A 
BRANCH  27  30
ATOM      1  F   UNL     1     -14.672   1.485  34.062  0.00  0.00    -0.166 F 
ATOM      2  F   UNL     1     -16.013   3.083  33.468  0.00  0.00    -0.166 F 
ATOM      3  F   UNL     1     -13.865   3.319  33.217  0.00  0.00    -0.166 F 
ATOM     30  C   UNL     1     -14.883   2.418  33.086  0.00  0.00    +0.417 C 
ENDBRANCH  27  30
ENDBRANCH   9  19
TORSDOF 6
ENDMDL
MODEL 2
REMARK VINA RESULT:      -7.7     31.992     35.101
REMARK  Name = 11886497
REMARK  6 active torsions:
REMARK  status: ('A' for Active; 'I' for Inactive)
REMARK    1  A    between atoms: O_6  and  C_13
REMARK    2  A    between atoms: O_6  and  C_16
REMARK    3  A    between atoms: N_8  and  C_12
REMARK    4  A    between atoms: N_9  and  C_19
REMARK    5  A    between atoms: C_16  and  C_18
REMARK    6  A    between atoms: C_27  and  C_30
REMARK                            x       y       z     vdW  Elec       q    Type
REMARK                         _______ _______ _______ _____ _____    ______ ____
ROOT
ATOM      7  O   UNL     1      17.344   8.485  20.538  0.00  0.00    -0.252 OA
ATOM      8  N   UNL     1      18.194   6.667  21.686  0.00  0.00    -0.292 N 
ATOM      9  N   UNL     1      16.028   6.579  20.925  0.00  0.00    -0.269 N 
ATOM     17  C   UNL     1      17.188   7.356  20.998  0.00  0.00    +0.304 C 
ATOM     31  H   UNL     1      18.011   5.712  21.977  0.00  0.00    +0.151 HD
ATOM     32  H   UNL     1      16.067   5.662  21.361  0.00  0.00    +0.156 HD
ENDROOT
BRANCH   8  12
ATOM      4  O   UNL     1      20.941   5.408  22.496  0.00  0.00    -0.369 OA
ATOM      5  O   UNL     1      21.535   7.872  20.770  0.00  0.00    -0.369 OA
ATOM     10  C   UNL     1      20.433   6.940  20.759  0.00  0.00    +0.172 C 
ATOM     11  C   UNL     1      21.010   5.574  21.070  0.00  0.00    +0.180 C 
ATOM     12  C   UNL     1      19.508   7.215  21.921  0.00  0.00    +0.131 C 
ATOM     13  C   UNL     1      22.436   5.705  20.591  0.00  0.00    +0.175 C 
ATOM     14  C   UNL     1      20.207   6.504  23.066  0.00  0.00    +0.185 C 
ATOM     15  C   UNL     1      22.759   7.142  20.938  0.00  0.00    +0.194 C 
BRANCH  13   6
ATOM      6  O   UNL     1      23.322   4.799  21.207  0.00  0.00    -0.367 OA
BRANCH   6  16
ATOM     16  C   UNL     1      24.121   4.101  20.254  0.00  0.00    +0.195 C 
BRANCH  16  18
ATOM     18  C   UNL     1      24.728   2.897  20.913  0.00  0.00    -0.022 A 
ATOM     20  C   UNL     1      26.022   2.968  21.418  0.00  0.00    +0.006 A 
ATOM     21  C   UNL     1      23.992   1.722  21.012  0.00  0.00    +0.006 A 
ATOM     22  C   UNL     1      26.586   1.848  22.030  0.00  0.00    +0.000 A 
ATOM     23  C   UNL     1      24.557   0.603  21.623  0.00  0.00    +0.000 A 
ATOM     26  C   UNL     1      25.854   0.666  22.132  0.00  0.00    +0.000 A 
ENDBRANCH  16  18
ENDBRANCH   6  16
ENDBRANCH  13   6
ENDBRANCH   8  12
BRANCH   9  19
ATOM     19  C   UNL     1      14.797   6.914  20.316  0.00  0.00    +0.035 A 
ATOM     24  C   UNL     1      13.651   6.977  21.091  0.00  0.00    +0.035 A 
ATOM     25  C   UNL     1      14.761   7.171  18.955  0.00  0.00    +0.023 A 
ATOM     27  C   UNL     1      12.435   7.306  20.489  0.00  0.00    +0.057 A 
ATOM     28  C   UNL     1      13.547   7.501  18.353  0.00  0.00    +0.002 A 
ATOM     29  C   UNL     1      12.384   7.568  19.121  0.00  0.00    +0.012 A 
BRANCH  27  30
ATOM      1  F   UNL     1      11.376   7.966  22.530  0.00  0.00    -0.166 F 
ATOM      2  F   UNL     1      10.644   6.159  21.582  0.00  0.00    -0.166 F 
ATOM      3  F   UNL     1      10.203   8.099  20.703  0.00  0.00    -0.166 F 
ATOM     30  C   UNL     1      11.192   7.379  21.310  0.00  0.00    +0.417 C 
ENDBRANCH  27  30
ENDBRANCH   9  19
TORSDOF 6
ENDMDL
MODEL 3
REMARK VINA RESULT:      -7.6      4.556     10.194
REMARK  Name = 11886497
REMARK  6 active torsions:
REMARK  status: ('A' for Active; 'I' for Inactive)
REMARK    1  A    between atoms: O_6  and  C_13
REMARK    2  A    between atoms: O_6  and  C_16
REMARK    3  A    between atoms: N_8  and  C_12
REMARK    4  A    between atoms: N_9  and  C_19
REMARK    5  A    between atoms: C_16  and  C_18
REMARK    6  A    between atoms: C_27  and  C_30
REMARK                            x       y       z     vdW  Elec       q    Type
REMARK                         _______ _______ _______ _____ _____    ______ ____
ROOT
ATOM      7  O   UNL     1     -17.395   4.595  23.615  0.00  0.00    -0.252 OA
ATOM      8  N   UNL     1     -16.365   2.608  24.197  0.00  0.00    -0.292 N 
ATOM      9  N   UNL     1     -15.311   4.004  22.708  0.00  0.00    -0.269 N 
ATOM     17  C   UNL     1     -16.444   3.823  23.506  0.00  0.00    +0.304 C 
ATOM     31  H   UNL     1     -15.518   2.057  24.106  0.00  0.00    +0.151 HD
ATOM     32  H   UNL     1     -14.615   3.263  22.732  0.00  0.00    +0.156 HD
ENDROOT
BRANCH   8  12
ATOM      4  O   UNL     1     -16.415   0.482  26.491  0.00  0.00    -0.369 OA
ATOM      5  O   UNL     1     -18.441   2.665  27.220  0.00  0.00    -0.369 OA
ATOM     10  C   UNL     1     -17.200   2.719  26.485  0.00  0.00    +0.172 C 
ATOM     11  C   UNL     1     -16.251   1.746  27.155  0.00  0.00    +0.180 C 
ATOM     12  C   UNL     1     -17.390   2.145  25.101  0.00  0.00    +0.131 C 
ATOM     13  C   UNL     1     -16.771   1.705  28.572  0.00  0.00    +0.175 C 
ATOM     14  C   UNL     1     -17.274   0.652  25.352  0.00  0.00    +0.185 C 
ATOM     15  C   UNL     1     -18.265   1.822  28.368  0.00  0.00    +0.194 C 
BRANCH  13   6
ATOM      6  O   UNL     1     -16.420   0.530  29.266  0.00  0.00    -0.367 OA
BRANCH   6  16
ATOM     16  C   UNL     1     -15.009   0.409  29.432  0.00  0.00    +0.195 C 
BRANCH  16  18
ATOM     18  C   UNL     1     -14.580   1.246  30.602  0.00  0.00    -0.022 A 
ATOM     20  C   UNL     1     -13.778   2.363  30.392  0.00  0.00    +0.006 A 
ATOM     21  C   UNL     1     -14.988   0.896  31.884  0.00  0.00    +0.006 A 
ATOM     22  C   UNL     1     -13.380   3.140  31.480  0.00  0.00    +0.000 A 
ATOM     23  C   UNL     1     -14.588   1.674  32.972  0.00  0.00    +0.000 A 
ATOM     26  C   UNL     1     -13.784   2.795  32.770  0.00  0.00    +0.000 A 
ENDBRANCH  16  18
ENDBRANCH   6  16
ENDBRANCH  13   6
ENDBRANCH   8  12
BRANCH   9  19
ATOM     19  C   UNL     1     -15.011   5.096  21.861  0.00  0.00    +0.035 A 
ATOM     24  C   UNL     1     -13.696   5.510  21.727  0.00  0.00    +0.035 A 
ATOM     25  C   UNL     1     -16.039   5.731  21.184  0.00  0.00    +0.023 A 
ATOM     27  C   UNL     1     -13.401   6.588  20.892  0.00  0.00    +0.057 A 
ATOM     28  C   UNL     1     -15.745   6.808  20.349  0.00  0.00    +0.002 A 
ATOM     29  C   UNL     1     -14.425   7.237  20.203  0.00  0.00    +0.012 A 
BRANCH  27  30
ATOM      1  F   UNL     1     -11.482   6.836  19.485  0.00  0.00    -0.166 F 
ATOM      2  F   UNL     1     -11.117   6.426  21.583  0.00  0.00    -0.166 F 
ATOM      3  F   UNL     1     -11.842   8.383  20.971  0.00  0.00    -0.166 F 
ATOM     30  C   UNL     1     -11.990   7.046  20.736  0.00  0.00    +0.417 C 
ENDBRANCH  27  30
ENDBRANCH   9  19
TORSDOF 6
ENDMDL
MODEL 4
REMARK VINA RESULT:      -7.6     30.696     35.138
REMARK  Name = 11886497
REMARK  6 active torsions:
REMARK  status: ('A' for Active; 'I' for Inactive)
REMARK    1  A    between atoms: O_6  and  C_13
REMARK    2  A    between atoms: O_6  and  C_16
REMARK    3  A    between atoms: N_8  and  C_12
REMARK    4  A    between atoms: N_9  and  C_19
REMARK    5  A    between atoms: C_16  and  C_18
REMARK    6  A    between atoms: C_27  and  C_30
REMARK                            x       y       z     vdW  Elec       q    Type
REMARK                         _______ _______ _______ _____ _____    ______ ____
ROOT
ATOM      7  O   UNL     1      10.194   4.125   4.676  0.00  0.00    -0.252 OA
ATOM      8  N   UNL     1      11.651   5.243   3.272  0.00  0.00    -0.292 N 
ATOM      9  N   UNL     1      10.866   6.326   5.140  0.00  0.00    -0.269 N 
ATOM     17  C   UNL     1      10.833   5.138   4.404  0.00  0.00    +0.304 C 
ATOM     31  H   UNL     1      12.200   6.088   3.152  0.00  0.00    +0.151 HD
ATOM     32  H   UNL     1      11.449   7.073   4.772  0.00  0.00    +0.156 HD
ENDROOT
BRANCH   8  12
ATOM      4  O   UNL     1      11.087   4.980   0.207  0.00  0.00    -0.369 OA
ATOM      5  O   UNL     1      13.467   3.162   0.860  0.00  0.00    -0.369 OA
ATOM     10  C   UNL     1      13.028   4.407   1.441  0.00  0.00    +0.172 C 
ATOM     11  C   UNL     1      12.493   5.257   0.307  0.00  0.00    +0.180 C 
ATOM     12  C   UNL     1      11.821   4.174   2.319  0.00  0.00    +0.131 C 
ATOM     13  C   UNL     1      13.254   4.726  -0.885  0.00  0.00    +0.175 C 
ATOM     14  C   UNL     1      10.687   4.149   1.308  0.00  0.00    +0.185 C 
ATOM     15  C   UNL     1      13.355   3.251  -0.568  0.00  0.00    +0.194 C 
BRANCH  13   6
ATOM      6  O   UNL     1      12.608   4.961  -2.115  0.00  0.00    -0.367 OA
BRANCH   6  16
ATOM     16  C   UNL     1      13.029   4.045  -3.123  0.00  0.00    +0.195 C 
BRANCH  16  18
ATOM     18  C   UNL     1      11.825   3.556  -3.875  0.00  0.00    -0.022 A 
ATOM     20  C   UNL     1      11.779   3.685  -5.259  0.00  0.00    +0.006 A 
ATOM     21  C   UNL     1      10.767   2.982  -3.181  0.00  0.00    +0.006 A 
ATOM     22  C   UNL     1      10.659   3.231  -5.957  0.00  0.00    +0.000 A 
ATOM     23  C   UNL     1       9.647   2.529  -3.879  0.00  0.00    +0.000 A 
ATOM     26  C   UNL     1       9.593   2.653  -5.267  0.00  0.00    +0.000 A 
ENDBRANCH  16  18
ENDBRANCH   6  16
ENDBRANCH  13   6
ENDBRANCH   8  12
BRANCH   9  19
ATOM     19  C   UNL     1      10.181   6.622   6.341  0.00  0.00    +0.035 A 
ATOM     24  C   UNL     1      10.090   5.653   7.327  0.00  0.00    +0.035 A 
ATOM     25  C   UNL     1       9.614   7.875   6.507  0.00  0.00    +0.023 A 
ATOM     27  C   UNL     1       9.413   5.946   8.512  0.00  0.00    +0.057 A 
ATOM     28  C   UNL     1       8.938   8.168   7.691  0.00  0.00    +0.002 A 
ATOM     29  C   UNL     1       8.838   7.202   8.694  0.00  0.00    +0.012 A 
BRANCH  27  30
ATOM      1  F   UNL     1      10.329   4.959  10.490  0.00  0.00    -0.166 F 
ATOM      2  F   UNL     1       9.306   3.633   9.112  0.00  0.00    -0.166 F 
ATOM      3  F   UNL     1       8.162   5.035  10.318  0.00  0.00    -0.166 F 
ATOM     30  C   UNL     1       9.307   4.914   9.584  0.00  0.00    +0.417 C 
ENDBRANCH  27  30
ENDBRANCH   9  19
TORSDOF 6
ENDMDL
MODEL 5
REMARK VINA RESULT:      -7.5     16.878     17.995
REMARK  Name = 11886497
REMARK  6 active torsions:
REMARK  status: ('A' for Active; 'I' for Inactive)
REMARK    1  A    between atoms: O_6  and  C_13
REMARK    2  A    between atoms: O_6  and  C_16
REMARK    3  A    between atoms: N_8  and  C_12
REMARK    4  A    between atoms: N_9  and  C_19
REMARK    5  A    between atoms: C_16  and  C_18
REMARK    6  A    between atoms: C_27  and  C_30
REMARK                            x       y       z     vdW  Elec       q    Type
REMARK                         _______ _______ _______ _____ _____    ______ ____
ROOT
ATOM      7  O   UNL     1      -9.039 -10.385  16.089  0.00  0.00    -0.252 OA
ATOM      8  N   UNL     1      -9.342  -8.100  16.262  0.00  0.00    -0.292 N 
ATOM      9  N   UNL     1      -7.209  -8.944  16.390  0.00  0.00    -0.269 N 
ATOM     17  C   UNL     1      -8.562  -9.262  16.233  0.00  0.00    +0.304 C 
ATOM     31  H   UNL     1      -8.869  -7.203  16.317  0.00  0.00    +0.151 HD
ATOM     32  H   UNL     1      -6.983  -7.959  16.500  0.00  0.00    +0.156 HD
ENDROOT
BRANCH   8  12
ATOM      4  O   UNL     1     -11.475  -5.863  15.780  0.00  0.00    -0.369 OA
ATOM      5  O   UNL     1     -12.536  -8.435  14.491  0.00  0.00    -0.369 OA
ATOM     10  C   UNL     1     -11.192  -7.944  14.681  0.00  0.00    +0.172 C 
ATOM     11  C   UNL     1     -11.241  -6.443  14.486  0.00  0.00    +0.180 C 
ATOM     12  C   UNL     1     -10.778  -8.109  16.124  0.00  0.00    +0.131 C 
ATOM     13  C   UNL     1     -12.432  -6.271  13.572  0.00  0.00    +0.175 C 
ATOM     14  C   UNL     1     -11.405  -6.891  16.780  0.00  0.00    +0.185 C 
ATOM     15  C   UNL     1     -13.371  -7.348  14.066  0.00  0.00    +0.194 C 
BRANCH  13   6
ATOM      6  O   UNL     1     -13.012  -4.989  13.640  0.00  0.00    -0.367 OA
BRANCH   6  16
ATOM     16  C   UNL     1     -12.196  -4.000  13.016  0.00  0.00    +0.195 C 
BRANCH  16  18
ATOM     18  C   UNL     1     -12.723  -3.730  11.636  0.00  0.00    -0.022 A 
ATOM     20  C   UNL     1     -11.886  -3.887  10.537  0.00  0.00    +0.006 A 
ATOM     21  C   UNL     1     -14.042  -3.324  11.471  0.00  0.00    +0.006 A 
ATOM     22  C   UNL     1     -12.376  -3.636   9.255  0.00  0.00    +0.000 A 
ATOM     23  C   UNL     1     -14.531  -3.072  10.189  0.00  0.00    +0.000 A 
ATOM     26  C   UNL     1     -13.698  -3.228   9.081  0.00  0.00    +0.000 A 
ENDBRANCH  16  18
ENDBRANCH   6  16
ENDBRANCH  13   6
ENDBRANCH   8  12
BRANCH   9  19
ATOM     19  C   UNL     1      -6.108  -9.830  16.416  0.00  0.00    +0.035 A 
ATOM     24  C   UNL     1      -5.760 -10.446  17.608  0.00  0.00    +0.035 A 
ATOM     25  C   UNL     1      -5.397 -10.063  15.250  0.00  0.00    +0.023 A 
ATOM     27  C   UNL     1      -4.672 -11.319  17.633  0.00  0.00    +0.057 A 
ATOM     28  C   UNL     1      -4.310 -10.936  15.275  0.00  0.00    +0.002 A 
ATOM     29  C   UNL     1      -3.948 -11.564  16.467  0.00  0.00    +0.012 A 
BRANCH  27  30
ATOM      1  F   UNL     1      -5.021 -11.587  19.984  0.00  0.00    -0.166 F 
ATOM      2  F   UNL     1      -2.985 -11.779  19.264  0.00  0.00    -0.166 F 
ATOM      3  F   UNL     1      -4.434 -13.348  18.852  0.00  0.00    -0.166 F 
ATOM     30  C   UNL     1      -4.285 -11.992  18.907  0.00  0.00    +0.417 C 
ENDBRANCH  27  30
ENDBRANCH   9  19
TORSDOF 6
ENDMDL
MODEL 6
REMARK VINA RESULT:      -7.5     31.050     35.507
REMARK  Name = 11886497
REMARK  6 active torsions:
REMARK  status: ('A' for Active; 'I' for Inactive)
REMARK    1  A    between atoms: O_6  and  C_13
REMARK    2  A    between atoms: O_6  and  C_16
REMARK    3  A    between atoms: N_8  and  C_12
REMARK    4  A    between atoms: N_9  and  C_19
REMARK    5  A    between atoms: C_16  and  C_18
REMARK    6  A    between atoms: C_27  and  C_30
REMARK                            x       y       z     vdW  Elec       q    Type
REMARK                         _______ _______ _______ _____ _____    ______ ____
ROOT
ATOM      7  O   UNL     1      12.180   6.610   4.304  0.00  0.00    -0.252 OA
ATOM      8  N   UNL     1      11.642   4.827   2.934  0.00  0.00    -0.292 N 
ATOM      9  N   UNL     1      10.327   5.246   4.771  0.00  0.00    -0.269 N 
ATOM     17  C   UNL     1      11.447   5.659   4.043  0.00  0.00    +0.304 C 
ATOM     31  H   UNL     1      10.954   4.103   2.748  0.00  0.00    +0.151 HD
ATOM     32  H   UNL     1       9.828   4.434   4.417  0.00  0.00    +0.156 HD
ENDROOT
BRANCH   8  12
ATOM      4  O   UNL     1      12.736   3.108   0.561  0.00  0.00    -0.369 OA
ATOM      5  O   UNL     1      13.251   6.052  -0.125  0.00  0.00    -0.369 OA
ATOM     10  C   UNL     1      12.202   5.417   0.635  0.00  0.00    +0.172 C 
ATOM     11  C   UNL     1      11.897   4.101  -0.051  0.00  0.00    +0.180 C 
ATOM     12  C   UNL     1      12.720   5.005   1.993  0.00  0.00    +0.131 C 
ATOM     13  C   UNL     1      12.305   4.376  -1.479  0.00  0.00    +0.175 C 
ATOM     14  C   UNL     1      13.412   3.687   1.688  0.00  0.00    +0.185 C 
ATOM     15  C   UNL     1      13.511   5.270  -1.300  0.00  0.00    +0.194 C 
BRANCH  13   6
ATOM      6  O   UNL     1      12.612   3.211  -2.210  0.00  0.00    -0.367 OA
BRANCH   6  16
ATOM     16  C   UNL     1      11.438   2.513  -2.621  0.00  0.00    +0.195 C 
BRANCH  16  18
ATOM     18  C   UNL     1      11.193   2.783  -4.077  0.00  0.00    -0.022 A 
ATOM     20  C   UNL     1      12.273   2.974  -4.933  0.00  0.00    +0.006 A 
ATOM     21  C   UNL     1       9.890   2.839  -4.557  0.00  0.00    +0.006 A 
ATOM     22  C   UNL     1      12.045   3.225  -6.286  0.00  0.00    +0.000 A 
ATOM     23  C   UNL     1       9.663   3.090  -5.911  0.00  0.00    +0.000 A 
ATOM     26  C   UNL     1      10.740   3.283  -6.775  0.00  0.00    +0.000 A 
ENDBRANCH  16  18
ENDBRANCH   6  16
ENDBRANCH  13   6
ENDBRANCH   8  12
BRANCH   9  19
ATOM     19  C   UNL     1       9.799   5.820   5.950  0.00  0.00    +0.035 A 
ATOM     24  C   UNL     1       9.860   5.110   7.138  0.00  0.00    +0.035 A 
ATOM     25  C   UNL     1       9.229   7.082   5.893  0.00  0.00    +0.023 A 
ATOM     27  C   UNL     1       9.338   5.678   8.301  0.00  0.00    +0.057 A 
ATOM     28  C   UNL     1       8.707   7.649   7.056  0.00  0.00    +0.002 A 
ATOM     29  C   UNL     1       8.762   6.947   8.260  0.00  0.00    +0.012 A 
BRANCH  27  30
ATOM      1  F   UNL     1       8.296   5.107  10.378  0.00  0.00    -0.166 F 
ATOM      2  F   UNL     1      10.459   5.272  10.375  0.00  0.00    -0.166 F 
ATOM      3  F   UNL     1       9.500   3.577   9.406  0.00  0.00    -0.166 F 
ATOM     30  C   UNL     1       9.397   4.927   9.588  0.00  0.00    +0.417 C 
ENDBRANCH  27  30
ENDBRANCH   9  19
TORSDOF 6
ENDMDL
MODEL 7
REMARK VINA RESULT:      -7.4     17.162     18.248
REMARK  Name = 11886497
REMARK  6 active torsions:
REMARK  status: ('A' for Active; 'I' for Inactive)
REMARK    1  A    between atoms: O_6  and  C_13
REMARK    2  A    between atoms: O_6  and  C_16
REMARK    3  A    between atoms: N_8  and  C_12
REMARK    4  A    between atoms: N_9  and  C_19
REMARK    5  A    between atoms: C_16  and  C_18
REMARK    6  A    between atoms: C_27  and  C_30
REMARK                            x       y       z     vdW  Elec       q    Type
REMARK                         _______ _______ _______ _____ _____    ______ ____
ROOT
ATOM      7  O   UNL     1      -9.205 -10.269  16.802  0.00  0.00    -0.252 OA
ATOM      8  N   UNL     1      -9.409  -8.046  16.200  0.00  0.00    -0.292 N 
ATOM      9  N   UNL     1      -7.324  -8.867  16.706  0.00  0.00    -0.269 N 
ATOM     17  C   UNL     1      -8.683  -9.177  16.595  0.00  0.00    +0.304 C 
ATOM     31  H   UNL     1      -8.897  -7.197  15.982  0.00  0.00    +0.151 HD
ATOM     32  H   UNL     1      -7.057  -7.909  16.499  0.00  0.00    +0.156 HD
ENDROOT
BRANCH   8  12
ATOM      4  O   UNL     1     -11.535  -5.799  15.735  0.00  0.00    -0.369 OA
ATOM      5  O   UNL     1     -12.522  -8.311  14.280  0.00  0.00    -0.369 OA
ATOM     10  C   UNL     1     -11.191  -7.824  14.551  0.00  0.00    +0.172 C 
ATOM     11  C   UNL     1     -11.242  -6.315  14.426  0.00  0.00    +0.180 C 
ATOM     12  C   UNL     1     -10.838  -8.056  16.001  0.00  0.00    +0.131 C 
ATOM     13  C   UNL     1     -12.393  -6.105  13.472  0.00  0.00    +0.175 C 
ATOM     14  C   UNL     1     -11.501  -6.874  16.688  0.00  0.00    +0.185 C 
ATOM     15  C   UNL     1     -13.346  -7.209  13.872  0.00  0.00    +0.194 C 
BRANCH  13   6
ATOM      6  O   UNL     1     -12.985  -4.830  13.576  0.00  0.00    -0.367 OA
BRANCH   6  16
ATOM     16  C   UNL     1     -12.214  -3.828  12.916  0.00  0.00    +0.195 C 
BRANCH  16  18
ATOM     18  C   UNL     1     -12.765  -3.619  11.535  0.00  0.00    -0.022 A 
ATOM     20  C   UNL     1     -14.097  -3.255  11.373  0.00  0.00    +0.006 A 
ATOM     21  C   UNL     1     -11.937  -3.790  10.431  0.00  0.00    +0.006 A 
ATOM     22  C   UNL     1     -14.608  -3.061  10.089  0.00  0.00    +0.000 A 
ATOM     23  C   UNL     1     -12.449  -3.596   9.148  0.00  0.00    +0.000 A 
ATOM     26  C   UNL     1     -13.784  -3.232   8.977  0.00  0.00    +0.000 A 
ENDBRANCH  16  18
ENDBRANCH   6  16
ENDBRANCH  13   6
ENDBRANCH   8  12
BRANCH   9  19
ATOM     19  C   UNL     1      -6.266  -9.728  17.078  0.00  0.00    +0.035 A 
ATOM     24  C   UNL     1      -5.225  -9.948  16.189  0.00  0.00    +0.035 A 
ATOM     25  C   UNL     1      -6.291 -10.336  18.322  0.00  0.00    +0.023 A 
ATOM     27  C   UNL     1      -4.182 -10.799  16.557  0.00  0.00    +0.057 A 
ATOM     28  C   UNL     1      -5.248 -11.185  18.690  0.00  0.00    +0.002 A 
ATOM     29  C   UNL     1      -4.193 -11.417  17.806  0.00  0.00    +0.012 A 
BRANCH  27  30
ATOM      1  F   UNL     1      -1.829 -10.732  16.131  0.00  0.00    -0.166 F 
ATOM      2  F   UNL     1      -3.143 -10.328  14.454  0.00  0.00    -0.166 F 
ATOM      3  F   UNL     1      -2.965 -12.353  15.230  0.00  0.00    -0.166 F 
ATOM     30  C   UNL     1      -3.054 -11.045  15.613  0.00  0.00    +0.417 C 
ENDBRANCH  27  30
ENDBRANCH   9  19
TORSDOF 6
ENDMDL
MODEL 8
REMARK VINA RESULT:      -7.2      1.776      2.806
REMARK  Name = 11886497
REMARK  6 active torsions:
REMARK  status: ('A' for Active; 'I' for Inactive)
REMARK    1  A    between atoms: O_6  and  C_13
REMARK    2  A    between atoms: O_6  and  C_16
REMARK    3  A    between atoms: N_8  and  C_12
REMARK    4  A    between atoms: N_9  and  C_19
REMARK    5  A    between atoms: C_16  and  C_18
REMARK    6  A    between atoms: C_27  and  C_30
REMARK                            x       y       z     vdW  Elec       q    Type
REMARK                         _______ _______ _______ _____ _____    ______ ____
ROOT
ATOM      7  O   UNL     1     -17.575   4.410  25.238  0.00  0.00    -0.252 OA
ATOM      8  N   UNL     1     -15.544   4.979  24.289  0.00  0.00    -0.292 N 
ATOM      9  N   UNL     1     -15.554   3.657  26.168  0.00  0.00    -0.269 N 
ATOM     17  C   UNL     1     -16.347   4.346  25.246  0.00  0.00    +0.304 C 
ATOM     31  H   UNL     1     -14.542   4.823  24.323  0.00  0.00    +0.151 HD
ATOM     32  H   UNL     1     -14.548   3.707  26.030  0.00  0.00    +0.156 HD
ENDROOT
BRANCH   8  12
ATOM      4  O   UNL     1     -14.604   7.599  22.862  0.00  0.00    -0.369 OA
ATOM      5  O   UNL     1     -16.113   5.916  20.790  0.00  0.00    -0.369 OA
ATOM     10  C   UNL     1     -15.310   5.537  21.927  0.00  0.00    +0.172 C 
ATOM     11  C   UNL     1     -14.167   6.528  22.008  0.00  0.00    +0.180 C 
ATOM     12  C   UNL     1     -16.080   5.768  23.206  0.00  0.00    +0.131 C 
ATOM     13  C   UNL     1     -14.024   6.980  20.573  0.00  0.00    +0.175 C 
ATOM     14  C   UNL     1     -15.869   7.253  23.446  0.00  0.00    +0.185 C 
ATOM     15  C   UNL     1     -15.460   6.991  20.099  0.00  0.00    +0.194 C 
BRANCH  13   6
ATOM      6  O   UNL     1     -13.411   8.241  20.439  0.00  0.00    -0.367 OA
BRANCH   6  16
ATOM     16  C   UNL     1     -11.999   8.171  20.627  0.00  0.00    +0.195 C 
BRANCH  16  18
ATOM     18  C   UNL     1     -11.315   8.652  19.380  0.00  0.00    -0.022 A 
ATOM     20  C   UNL     1     -11.190   7.797  18.291  0.00  0.00    +0.006 A 
ATOM     21  C   UNL     1     -10.813   9.947  19.327  0.00  0.00    +0.006 A 
ATOM     22  C   UNL     1     -10.554   8.244  17.132  0.00  0.00    +0.000 A 
ATOM     23  C   UNL     1     -10.177  10.393  18.168  0.00  0.00    +0.000 A 
ATOM     26  C   UNL     1     -10.047   9.542  17.071  0.00  0.00    +0.000 A 
ENDBRANCH  16  18
ENDBRANCH   6  16
ENDBRANCH  13   6
ENDBRANCH   8  12
BRANCH   9  19
ATOM     19  C   UNL     1     -15.980   2.895  27.280  0.00  0.00    +0.035 A 
ATOM     24  C   UNL     1     -15.558   3.252  28.550  0.00  0.00    +0.035 A 
ATOM     25  C   UNL     1     -16.811   1.805  27.077  0.00  0.00    +0.023 A 
ATOM     27  C   UNL     1     -15.978   2.499  29.647  0.00  0.00    +0.057 A 
ATOM     28  C   UNL     1     -17.232   1.053  28.173  0.00  0.00    +0.002 A 
ATOM     29  C   UNL     1     -16.815   1.400  29.459  0.00  0.00    +0.012 A 
BRANCH  27  30
ATOM      1  F   UNL     1     -14.346   3.545  31.048  0.00  0.00    -0.166 F 
ATOM      2  F   UNL     1     -15.352   1.798  31.847  0.00  0.00    -0.166 F 
ATOM      3  F   UNL     1     -16.428   3.680  31.663  0.00  0.00    -0.166 F 
ATOM     30  C   UNL     1     -15.534   2.871  31.022  0.00  0.00    +0.417 C 
ENDBRANCH  27  30
ENDBRANCH   9  19
TORSDOF 6
ENDMDL
MODEL 9
REMARK VINA RESULT:      -7.1     32.013     36.357
REMARK  Name = 11886497
REMARK  6 active torsions:
REMARK  status: ('A' for Active; 'I' for Inactive)
REMARK    1  A    between atoms: O_6  and  C_13
REMARK    2  A    between atoms: O_6  and  C_16
REMARK    3  A    between atoms: N_8  and  C_12
REMARK    4  A    between atoms: N_9  and  C_19
REMARK    5  A    between atoms: C_16  and  C_18
REMARK    6  A    between atoms: C_27  and  C_30
REMARK                            x       y       z     vdW  Elec       q    Type
REMARK                         _______ _______ _______ _____ _____    ______ ____
ROOT
ATOM      7  O   UNL     1       9.908   6.051   3.560  0.00  0.00    -0.252 OA
ATOM      8  N   UNL     1      12.119   5.430   3.296  0.00  0.00    -0.292 N 
ATOM      9  N   UNL     1      11.353   5.920   5.406  0.00  0.00    -0.269 N 
ATOM     17  C   UNL     1      11.010   5.827   4.054  0.00  0.00    +0.304 C 
ATOM     31  H   UNL     1      12.978   5.198   3.785  0.00  0.00    +0.151 HD
ATOM     32  H   UNL     1      12.315   5.700   5.647  0.00  0.00    +0.156 HD
ENDROOT
BRANCH   8  12
ATOM      4  O   UNL     1      14.188   5.897   0.997  0.00  0.00    -0.369 OA
ATOM      5  O   UNL     1      12.382   3.570   0.147  0.00  0.00    -0.369 OA
ATOM     10  C   UNL     1      12.829   4.008   1.447  0.00  0.00    +0.172 C 
ATOM     11  C   UNL     1      14.255   4.490   1.282  0.00  0.00    +0.180 C 
ATOM     12  C   UNL     1      12.073   5.247   1.866  0.00  0.00    +0.131 C 
ATOM     13  C   UNL     1      14.731   3.700   0.086  0.00  0.00    +0.175 C 
ATOM     14  C   UNL     1      12.832   6.347   1.142  0.00  0.00    +0.185 C 
ATOM     15  C   UNL     1      13.486   3.633  -0.769  0.00  0.00    +0.194 C 
BRANCH  13   6
ATOM      6  O   UNL     1      15.809   4.302  -0.593  0.00  0.00    -0.367 OA
BRANCH   6  16
ATOM     16  C   UNL     1      15.492   4.584  -1.954  0.00  0.00    +0.195 C 
BRANCH  16  18
ATOM     18  C   UNL     1      16.765   4.814  -2.716  0.00  0.00    -0.022 A 
ATOM     20  C   UNL     1      16.708   5.224  -4.043  0.00  0.00    +0.006 A 
ATOM     21  C   UNL     1      17.988   4.615  -2.087  0.00  0.00    +0.006 A 
ATOM     22  C   UNL     1      17.892   5.438  -4.750  0.00  0.00    +0.000 A 
ATOM     23  C   UNL     1      19.172   4.829  -2.794  0.00  0.00    +0.000 A 
ATOM     26  C   UNL     1      19.124   5.240  -4.126  0.00  0.00    +0.000 A 
ENDBRANCH  16  18
ENDBRANCH   6  16
ENDBRANCH  13   6
ENDBRANCH   8  12
BRANCH   9  19
ATOM     19  C   UNL     1      10.521   6.288   6.488  0.00  0.00    +0.035 A 
ATOM     24  C   UNL     1      10.298   5.381   7.512  0.00  0.00    +0.035 A 
ATOM     25  C   UNL     1       9.945   7.548   6.503  0.00  0.00    +0.023 A 
ATOM     27  C   UNL     1       9.476   5.745   8.579  0.00  0.00    +0.057 A 
ATOM     28  C   UNL     1       9.124   7.912   7.570  0.00  0.00    +0.002 A 
ATOM     29  C   UNL     1       8.890   7.010   8.608  0.00  0.00    +0.012 A 
BRANCH  27  30
ATOM      1  F   UNL     1      10.246   4.714  10.595  0.00  0.00    -0.166 F 
ATOM      2  F   UNL     1       9.039   3.497   9.267  0.00  0.00    -0.166 F 
ATOM      3  F   UNL     1       8.113   5.094  10.416  0.00  0.00    -0.166 F 
ATOM     30  C   UNL     1       9.226   4.782   9.690  0.00  0.00    +0.417 C 
ENDBRANCH  27  30
ENDBRANCH   9  19
TORSDOF 6
ENDMDL
MODEL 10
REMARK VINA RESULT:      -7.1     17.976     19.805
REMARK  Name = 11886497
REMARK  6 active torsions:
REMARK  status: ('A' for Active; 'I' for Inactive)
REMARK    1  A    between atoms: O_6  and  C_13
REMARK    2  A    between atoms: O_6  and  C_16
REMARK    3  A    between atoms: N_8  and  C_12
REMARK    4  A    between atoms: N_9  and  C_19
REMARK    5  A    between atoms: C_16  and  C_18
REMARK    6  A    between atoms: C_27  and  C_30
REMARK                            x       y       z     vdW  Elec       q    Type
REMARK                         _______ _______ _______ _____ _____    ______ ____
ROOT
ATOM      7  O   UNL     1     -11.144  -9.072  14.122  0.00  0.00    -0.252 OA
ATOM      8  N   UNL     1      -9.882  -8.728  16.029  0.00  0.00    -0.292 N 
ATOM      9  N   UNL     1     -11.402  -7.123  15.405  0.00  0.00    -0.269 N 
ATOM     17  C   UNL     1     -10.850  -8.366  15.084  0.00  0.00    +0.304 C 
ATOM     31  H   UNL     1      -9.744  -8.123  16.832  0.00  0.00    +0.151 HD
ATOM     32  H   UNL     1     -11.044  -6.667  16.240  0.00  0.00    +0.156 HD
ENDROOT
BRANCH   8  12
ATOM      4  O   UNL     1      -6.828  -9.404  16.020  0.00  0.00    -0.369 OA
ATOM      5  O   UNL     1      -8.283 -11.750  17.355  0.00  0.00    -0.369 OA
ATOM     10  C   UNL     1      -8.580 -10.339  17.316  0.00  0.00    +0.172 C 
ATOM     11  C   UNL     1      -7.254  -9.609  17.377  0.00  0.00    +0.180 C 
ATOM     12  C   UNL     1      -9.138  -9.962  15.964  0.00  0.00    +0.131 C 
ATOM     13  C   UNL     1      -6.369 -10.600  18.098  0.00  0.00    +0.175 C 
ATOM     14  C   UNL     1      -7.879  -9.806  15.127  0.00  0.00    +0.185 C 
ATOM     15  C   UNL     1      -6.874 -11.923  17.567  0.00  0.00    +0.194 C 
BRANCH  13   6
ATOM      6  O   UNL     1      -4.996 -10.415  17.843  0.00  0.00    -0.367 OA
BRANCH   6  16
ATOM     16  C   UNL     1      -4.409 -11.559  17.226  0.00  0.00    +0.195 C 
BRANCH  16  18
ATOM     18  C   UNL     1      -3.515 -11.107  16.108  0.00  0.00    -0.022 A 
ATOM     20  C   UNL     1      -4.008 -11.060  14.809  0.00  0.00    +0.006 A 
ATOM     21  C   UNL     1      -2.203 -10.740  16.383  0.00  0.00    +0.006 A 
ATOM     22  C   UNL     1      -3.175 -10.640  13.770  0.00  0.00    +0.000 A 
ATOM     23  C   UNL     1      -1.371 -10.320  15.344  0.00  0.00    +0.000 A 
ATOM     26  C   UNL     1      -1.857 -10.270  14.038  0.00  0.00    +0.000 A 
ENDBRANCH  16  18
ENDBRANCH   6  16
ENDBRANCH  13   6
ENDBRANCH   8  12
BRANCH   9  19
ATOM     19  C   UNL     1     -12.405  -6.412  14.705  0.00  0.00    +0.035 A 
ATOM     24  C   UNL     1     -12.034  -5.454  13.775  0.00  0.00    +0.035 A 
ATOM     25  C   UNL     1     -13.737  -6.688  14.964  0.00  0.00    +0.023 A 
ATOM     27  C   UNL     1     -13.024  -4.752  13.086  0.00  0.00    +0.057 A 
ATOM     28  C   UNL     1     -14.727  -5.987  14.275  0.00  0.00    +0.002 A 
ATOM     29  C   UNL     1     -14.370  -5.019  13.335  0.00  0.00    +0.012 A 
BRANCH  27  30
ATOM      1  F   UNL     1     -12.090  -4.238  10.944  0.00  0.00    -0.166 F 
ATOM      2  F   UNL     1     -11.725  -2.819  12.543  0.00  0.00    -0.166 F 
ATOM      3  F   UNL     1     -13.708  -2.974  11.662  0.00  0.00    -0.166 F 
ATOM     30  C   UNL     1     -12.643  -3.719  12.081  0.00  0.00    +0.417 C 
ENDBRANCH  27  30
ENDBRANCH   9  19
TORSDOF 6
ENDMDL
