REMARK  Name = 7051458
REMARK  6 active torsions:
REMARK  status: ('A' for Active; 'I' for Inactive)
REMARK    1  A    between atoms: S_1  and  N_10
REMARK    2  A    between atoms: S_1  and  C_24
REMARK    3  A    between atoms: O_5  and  C_23
REMARK    4  A    between atoms: O_5  and  C_25
REMARK    5  A    between atoms: N_10  and  C_21
REMARK    6  A    between atoms: C_20  and  C_23
REMARK                            x       y       z     vdW  Elec       q    Type
REMARK                         _______ _______ _______ _____ _____    ______ ____
ROOT
ATOM      3  O   UNL     1       1.383   2.843  -0.273  0.00  0.00    -0.266 OA
ATOM      4  O   UNL     1       0.694  -1.990  -2.481  0.00  0.00    -0.272 OA
ATOM      8  N   UNL     1       2.405  -2.041  -0.911  0.00  0.00    -0.298 N 
ATOM      9  N   UNL     1       2.516   0.891   0.357  0.00  0.00    -0.310 N 
ATOM     11  C   UNL     1       4.186  -0.308  -1.167  0.00  0.00    +0.027 C 
ATOM     12  C   UNL     1       3.689  -1.227   1.060  0.00  0.00    +0.054 C 
ATOM     13  C   UNL     1       4.820  -0.783   0.135  0.00  0.00    +0.018 C 
ATOM     14  C   UNL     1       3.384  -1.445  -1.823  0.00  0.00    +0.113 C 
ATOM     15  C   UNL     1       3.314   0.919  -0.875  0.00  0.00    +0.130 C 
ATOM     16  C   UNL     1       2.926  -2.402   0.416  0.00  0.00    +0.117 C 
ATOM     17  C   UNL     1       2.731  -0.084   1.341  0.00  0.00    +0.027 A 
ATOM     18  C   UNL     1       2.073  -0.026   2.513  0.00  0.00    +0.024 A 
ATOM     19  C   UNL     1       1.603   1.950   0.545  0.00  0.00    +0.274 A 
ATOM     20  C   UNL     1       1.112  -2.302  -1.363  0.00  0.00    +0.253 C 
ATOM     21  C   UNL     1       0.891   1.947   1.848  0.00  0.00    +0.112 A 
ATOM     22  C   UNL     1       1.122   1.020   2.778  0.00  0.00    +0.031 A 
ENDROOT
BRANCH  21  10
ATOM     10  N   UNL     1      -0.051   2.947   2.142  0.00  0.00    -0.211 N 
ATOM     36  H   UNL     1       0.256   3.875   1.818  0.00  0.00    +0.174 HD
BRANCH  10   1
ATOM      1  S   UNL     1      -1.657   2.605   1.684  0.00  0.00    +0.073 S 
ATOM      6  O   UNL     1      -2.069   1.329   2.239  0.00  0.00    -0.150 OA
ATOM      7  O   UNL     1      -2.461   3.801   1.851  0.00  0.00    -0.150 OA
BRANCH   1  24
ATOM      2  F   UNL     1      -2.004   4.150  -3.155  0.00  0.00    -0.205 F 
ATOM     24  C   UNL     1      -1.644   2.303  -0.084  0.00  0.00    +0.111 A 
ATOM     26  C   UNL     1      -1.833   3.369  -0.926  0.00  0.00    +0.067 A 
ATOM     27  C   UNL     1      -1.446   1.018  -0.522  0.00  0.00    +0.029 A 
ATOM     30  C   UNL     1      -1.823   3.134  -2.301  0.00  0.00    +0.125 A 
ATOM     31  C   UNL     1      -1.436   0.784  -1.897  0.00  0.00    +0.005 A 
ATOM     32  C   UNL     1      -1.625   1.842  -2.786  0.00  0.00    +0.038 A 
ENDBRANCH   1  24
ENDBRANCH  10   1
ENDBRANCH  21  10
BRANCH  20  23
ATOM     23  C   UNL     1       0.187  -3.002  -0.399  0.00  0.00    +0.324 C 
BRANCH  23   5
ATOM      5  O   UNL     1      -1.054  -3.124  -1.050  0.00  0.00    -0.483 OA
BRANCH   5  25
ATOM     25  C   UNL     1      -2.186  -3.072  -0.268  0.00  0.00    +0.121 A 
ATOM     28  C   UNL     1      -2.130  -3.522   1.043  0.00  0.00    +0.045 A 
ATOM     29  C   UNL     1      -3.362  -2.571  -0.804  0.00  0.00    +0.045 A 
ATOM     33  C   UNL     1      -3.277  -3.469   1.835  0.00  0.00    +0.004 A 
ATOM     34  C   UNL     1      -4.509  -2.518  -0.012  0.00  0.00    +0.004 A 
ATOM     35  C   UNL     1      -4.466  -2.967   1.308  0.00  0.00    +0.000 A 
ENDBRANCH   5  25
ENDBRANCH  23   5
ENDBRANCH  20  23
TORSDOF 6
