MODEL 1
REMARK VINA RESULT:      -6.3      0.000      0.000
REMARK  Name = 56775625
REMARK  10 active torsions:
REMARK  status: ('A' for Active; 'I' for Inactive)
REMARK    1  A    between atoms: N_4  and  C_7
REMARK    2  A    between atoms: N_4  and  C_12
REMARK    3  A    between atoms: N_6  and  C_16
REMARK    4  A    between atoms: N_6  and  C_19
REMARK    5  A    between atoms: N_6  and  C_22
REMARK    6  A    between atoms: C_7  and  C_10
REMARK    7  A    between atoms: C_10  and  C_11
REMARK    8  A    between atoms: C_12  and  C_14
REMARK    9  A    between atoms: C_15  and  C_16
REMARK   10  A    between atoms: C_19  and  C_23
REMARK                            x       y       z     vdW  Elec       q    Type
REMARK                         _______ _______ _______ _____ _____    ______ ____
ROOT
ATOM     10  C   UNL     1      10.828   8.356  20.013  0.00  0.00    +0.085 C 
ENDROOT
BRANCH  10  11
ATOM      3  O   UNL     1      12.968   7.531  17.276  0.00  0.00    -0.358 OA
ATOM      5  N   UNL     1      12.082   7.188  18.289  0.00  0.00    -0.083 NA
ATOM     11  C   UNL     1      11.765   8.345  18.877  0.00  0.00    +0.086 A 
ATOM     13  C   UNL     1      12.413   9.441  18.283  0.00  0.00    +0.072 A 
ATOM     15  C   UNL     1      13.158   8.876  17.282  0.00  0.00    +0.151 A 
BRANCH  15  16
ATOM     16  C   UNL     1      14.095   9.429  16.241  0.00  0.00    +0.161 C 
BRANCH  16   6
ATOM      6  N   UNL     1      14.072  10.890  16.208  0.00  0.00    -0.294 NA
ATOM     22  C   UNL     1      13.972  11.368  14.830  0.00  0.00    +0.105 C 
BRANCH   6  19
ATOM     19  C   UNL     1      15.265  11.435  16.855  0.00  0.00    +0.119 C 
BRANCH  19  23
ATOM     23  C   UNL     1      14.989  11.867  18.270  0.00  0.00    -0.033 A 
ATOM     25  C   UNL     1      13.960  12.771  18.536  0.00  0.00    +0.005 A 
ATOM     26  C   UNL     1      15.761  11.362  19.316  0.00  0.00    +0.005 A 
ATOM     27  C   UNL     1      13.704  13.170  19.849  0.00  0.00    +0.000 A 
ATOM     28  C   UNL     1      15.506  11.762  20.628  0.00  0.00    +0.000 A 
ATOM     29  C   UNL     1      14.478  12.666  20.894  0.00  0.00    +0.000 A 
ENDBRANCH  19  23
ENDBRANCH   6  19
ENDBRANCH  16   6
ENDBRANCH  15  16
ENDBRANCH  10  11
BRANCH  10   7
ATOM      2  O   UNL     1      11.237   9.783  23.049  0.00  0.00    -0.376 OA
ATOM      7  C   UNL     1      11.571   8.547  21.341  0.00  0.00    +0.072 C 
ATOM      8  C   UNL     1      10.784   8.471  22.645  0.00  0.00    +0.184 C 
ATOM      9  C   UNL     1      11.927   9.959  21.791  0.00  0.00    +0.184 C 
BRANCH   7   4
ATOM      4  N   UNL     1      12.754   7.706  21.456  0.00  0.00    -0.302 NA
ATOM     30  H   UNL     1      12.898   7.053  20.687  0.00  0.00    +0.123 HD
BRANCH   4  12
ATOM     12  C   UNL     1      13.940   8.543  21.622  0.00  0.00    +0.117 C 
BRANCH  12  14
ATOM      1  F   UNL     1      18.546   6.095  19.493  0.00  0.00    -0.205 F 
ATOM     14  C   UNL     1      15.171   7.888  21.053  0.00  0.00    -0.033 A 
ATOM     17  C   UNL     1      16.435   8.275  21.498  0.00  0.00    +0.008 A 
ATOM     18  C   UNL     1      15.047   6.896  20.081  0.00  0.00    +0.008 A 
ATOM     20  C   UNL     1      17.575   7.669  20.970  0.00  0.00    +0.038 A 
ATOM     21  C   UNL     1      16.187   6.290  19.553  0.00  0.00    +0.038 A 
ATOM     24  C   UNL     1      17.452   6.676  19.998  0.00  0.00    +0.123 A 
ENDBRANCH  12  14
ENDBRANCH   4  12
ENDBRANCH   7   4
ENDBRANCH  10   7
TORSDOF 9
ENDMDL
MODEL 2
REMARK VINA RESULT:      -6.1      1.617      2.430
REMARK  Name = 56775625
REMARK  10 active torsions:
REMARK  status: ('A' for Active; 'I' for Inactive)
REMARK    1  A    between atoms: N_4  and  C_7
REMARK    2  A    between atoms: N_4  and  C_12
REMARK    3  A    between atoms: N_6  and  C_16
REMARK    4  A    between atoms: N_6  and  C_19
REMARK    5  A    between atoms: N_6  and  C_22
REMARK    6  A    between atoms: C_7  and  C_10
REMARK    7  A    between atoms: C_10  and  C_11
REMARK    8  A    between atoms: C_12  and  C_14
REMARK    9  A    between atoms: C_15  and  C_16
REMARK   10  A    between atoms: C_19  and  C_23
REMARK                            x       y       z     vdW  Elec       q    Type
REMARK                         _______ _______ _______ _____ _____    ______ ____
ROOT
ATOM     10  C   UNL     1      10.550   8.726  21.958  0.00  0.00    +0.085 C 
ENDROOT
BRANCH  10  11
ATOM      3  O   UNL     1      12.015   6.626  19.469  0.00  0.00    -0.358 OA
ATOM      5  N   UNL     1      11.541   6.862  20.754  0.00  0.00    -0.083 NA
ATOM     11  C   UNL     1      11.124   8.131  20.740  0.00  0.00    +0.086 A 
ATOM     13  C   UNL     1      11.306   8.740  19.486  0.00  0.00    +0.072 A 
ATOM     15  C   UNL     1      11.869   7.751  18.724  0.00  0.00    +0.151 A 
BRANCH  15  16
ATOM     16  C   UNL     1      12.333   7.676  17.293  0.00  0.00    +0.161 C 
BRANCH  16   6
ATOM      6  N   UNL     1      12.395   8.997  16.670  0.00  0.00    -0.294 NA
ATOM     22  C   UNL     1      11.261   9.190  15.768  0.00  0.00    +0.105 C 
BRANCH   6  19
ATOM     19  C   UNL     1      13.656   9.164  15.950  0.00  0.00    +0.119 C 
BRANCH  19  23
ATOM     23  C   UNL     1      14.489  10.279  16.524  0.00  0.00    -0.033 A 
ATOM     25  C   UNL     1      14.554  10.461  17.906  0.00  0.00    +0.005 A 
ATOM     26  C   UNL     1      15.197  11.129  15.675  0.00  0.00    +0.005 A 
ATOM     27  C   UNL     1      15.326  11.494  18.438  0.00  0.00    +0.000 A 
ATOM     28  C   UNL     1      15.968  12.162  16.207  0.00  0.00    +0.000 A 
ATOM     29  C   UNL     1      16.032  12.345  17.588  0.00  0.00    +0.000 A 
ENDBRANCH  19  23
ENDBRANCH   6  19
ENDBRANCH  16   6
ENDBRANCH  15  16
ENDBRANCH  10  11
BRANCH  10   7
ATOM      2  O   UNL     1      11.125  11.863  23.078  0.00  0.00    -0.376 OA
ATOM      7  C   UNL     1      11.457   9.831  22.515  0.00  0.00    +0.072 C 
ATOM      8  C   UNL     1      11.015  10.593  23.760  0.00  0.00    +0.184 C 
ATOM      9  C   UNL     1      11.456  11.197  21.838  0.00  0.00    +0.184 C 
BRANCH   7   4
ATOM      4  N   UNL     1      12.836   9.397  22.693  0.00  0.00    -0.302 NA
ATOM     30  H   UNL     1      13.001   8.403  22.537  0.00  0.00    +0.123 HD
BRANCH   4  12
ATOM     12  C   UNL     1      13.716  10.186  21.836  0.00  0.00    +0.117 C 
BRANCH  12  14
ATOM      1  F   UNL     1      18.410   7.370  20.499  0.00  0.00    -0.205 F 
ATOM     14  C   UNL     1      14.971   9.433  21.478  0.00  0.00    -0.033 A 
ATOM     17  C   UNL     1      16.218   9.956  21.819  0.00  0.00    +0.008 A 
ATOM     18  C   UNL     1      14.885   8.214  20.807  0.00  0.00    +0.008 A 
ATOM     20  C   UNL     1      17.380   9.258  21.488  0.00  0.00    +0.038 A 
ATOM     21  C   UNL     1      16.047   7.517  20.476  0.00  0.00    +0.038 A 
ATOM     24  C   UNL     1      17.295   8.039  20.816  0.00  0.00    +0.123 A 
ENDBRANCH  12  14
ENDBRANCH   4  12
ENDBRANCH   7   4
ENDBRANCH  10   7
TORSDOF 9
ENDMDL
MODEL 3
REMARK VINA RESULT:      -5.7      4.025      8.309
REMARK  Name = 56775625
REMARK  10 active torsions:
REMARK  status: ('A' for Active; 'I' for Inactive)
REMARK    1  A    between atoms: N_4  and  C_7
REMARK    2  A    between atoms: N_4  and  C_12
REMARK    3  A    between atoms: N_6  and  C_16
REMARK    4  A    between atoms: N_6  and  C_19
REMARK    5  A    between atoms: N_6  and  C_22
REMARK    6  A    between atoms: C_7  and  C_10
REMARK    7  A    between atoms: C_10  and  C_11
REMARK    8  A    between atoms: C_12  and  C_14
REMARK    9  A    between atoms: C_15  and  C_16
REMARK   10  A    between atoms: C_19  and  C_23
REMARK                            x       y       z     vdW  Elec       q    Type
REMARK                         _______ _______ _______ _____ _____    ______ ____
ROOT
ATOM     10  C   UNL     1      14.811  10.149  15.075  0.00  0.00    +0.085 C 
ENDROOT
BRANCH  10  11
ATOM      3  O   UNL     1      12.172   8.342  16.663  0.00  0.00    -0.358 OA
ATOM      5  N   UNL     1      12.843   8.798  15.536  0.00  0.00    -0.083 NA
ATOM     11  C   UNL     1      13.871   9.508  16.010  0.00  0.00    +0.086 A 
ATOM     13  C   UNL     1      13.900   9.534  17.415  0.00  0.00    +0.072 A 
ATOM     15  C   UNL     1      12.811   8.786  17.776  0.00  0.00    +0.151 A 
BRANCH  15  16
ATOM     16  C   UNL     1      12.217   8.383  19.100  0.00  0.00    +0.161 C 
BRANCH  16   6
ATOM      6  N   UNL     1      13.024   7.367  19.772  0.00  0.00    -0.294 NA
ATOM     22  C   UNL     1      12.178   6.503  20.594  0.00  0.00    +0.105 C 
BRANCH   6  19
ATOM     19  C   UNL     1      14.059   7.997  20.591  0.00  0.00    +0.119 C 
BRANCH  19  23
ATOM     23  C   UNL     1      15.411   7.373  20.367  0.00  0.00    -0.033 A 
ATOM     25  C   UNL     1      16.437   7.579  21.288  0.00  0.00    +0.005 A 
ATOM     26  C   UNL     1      15.635   6.586  19.237  0.00  0.00    +0.005 A 
ATOM     27  C   UNL     1      17.689   7.000  21.079  0.00  0.00    +0.000 A 
ATOM     28  C   UNL     1      16.887   6.007  19.028  0.00  0.00    +0.000 A 
ATOM     29  C   UNL     1      17.914   6.214  19.949  0.00  0.00    +0.000 A 
ENDBRANCH  19  23
ENDBRANCH   6  19
ENDBRANCH  16   6
ENDBRANCH  15  16
ENDBRANCH  10  11
BRANCH  10   7
ATOM      2  O   UNL     1      15.257  13.482  14.737  0.00  0.00    -0.376 OA
ATOM      7  C   UNL     1      14.337  11.556  14.691  0.00  0.00    +0.072 C 
ATOM      8  C   UNL     1      15.210  12.405  13.773  0.00  0.00    +0.184 C 
ATOM      9  C   UNL     1      14.512  12.692  15.692  0.00  0.00    +0.184 C 
BRANCH   7   4
ATOM      4  N   UNL     1      12.969  11.578  14.192  0.00  0.00    -0.302 NA
ATOM     30  H   UNL     1      12.259  11.806  14.886  0.00  0.00    +0.123 HD
BRANCH   4  12
ATOM     12  C   UNL     1      12.870  12.498  13.062  0.00  0.00    +0.117 C 
BRANCH  12  14
ATOM      1  F   UNL     1       8.275  11.511   9.953  0.00  0.00    -0.205 F 
ATOM     14  C   UNL     1      11.642  12.234  12.231  0.00  0.00    -0.033 A 
ATOM     17  C   UNL     1      11.765  11.991  10.863  0.00  0.00    +0.008 A 
ATOM     18  C   UNL     1      10.382  12.232  12.830  0.00  0.00    +0.008 A 
ATOM     20  C   UNL     1      10.627  11.747  10.094  0.00  0.00    +0.038 A 
ATOM     21  C   UNL     1       9.245  11.988  12.060  0.00  0.00    +0.038 A 
ATOM     24  C   UNL     1       9.367  11.745  10.692  0.00  0.00    +0.123 A 
ENDBRANCH  12  14
ENDBRANCH   4  12
ENDBRANCH   7   4
ENDBRANCH  10   7
TORSDOF 9
ENDMDL
MODEL 4
REMARK VINA RESULT:      -5.6     14.879     18.221
REMARK  Name = 56775625
REMARK  10 active torsions:
REMARK  status: ('A' for Active; 'I' for Inactive)
REMARK    1  A    between atoms: N_4  and  C_7
REMARK    2  A    between atoms: N_4  and  C_12
REMARK    3  A    between atoms: N_6  and  C_16
REMARK    4  A    between atoms: N_6  and  C_19
REMARK    5  A    between atoms: N_6  and  C_22
REMARK    6  A    between atoms: C_7  and  C_10
REMARK    7  A    between atoms: C_10  and  C_11
REMARK    8  A    between atoms: C_12  and  C_14
REMARK    9  A    between atoms: C_15  and  C_16
REMARK   10  A    between atoms: C_19  and  C_23
REMARK                            x       y       z     vdW  Elec       q    Type
REMARK                         _______ _______ _______ _____ _____    ______ ____
ROOT
ATOM     10  C   UNL     1      11.081   6.891   2.780  0.00  0.00    +0.085 C 
ENDROOT
BRANCH  10  11
ATOM      3  O   UNL     1       9.831   4.368   0.583  0.00  0.00    -0.358 OA
ATOM      5  N   UNL     1      10.042   4.900   1.849  0.00  0.00    -0.083 NA
ATOM     11  C   UNL     1      10.691   6.048   1.637  0.00  0.00    +0.086 A 
ATOM     13  C   UNL     1      10.914   6.291   0.270  0.00  0.00    +0.072 A 
ATOM     15  C   UNL     1      10.354   5.205  -0.349  0.00  0.00    +0.151 A 
BRANCH  15  16
ATOM     16  C   UNL     1      10.214   4.784  -1.788  0.00  0.00    +0.161 C 
BRANCH  16   6
ATOM      6  N   UNL     1      11.493   4.368  -2.360  0.00  0.00    -0.294 NA
ATOM     22  C   UNL     1      11.355   4.124  -3.796  0.00  0.00    +0.105 C 
BRANCH   6  19
ATOM     19  C   UNL     1      11.991   3.171  -1.683  0.00  0.00    +0.119 C 
BRANCH  19  23
ATOM     23  C   UNL     1      13.188   3.472  -0.820  0.00  0.00    -0.033 A 
ATOM     25  C   UNL     1      14.336   4.026  -1.386  0.00  0.00    +0.005 A 
ATOM     26  C   UNL     1      13.147   3.197   0.547  0.00  0.00    +0.005 A 
ATOM     27  C   UNL     1      15.443   4.305  -0.585  0.00  0.00    +0.000 A 
ATOM     28  C   UNL     1      14.255   3.475   1.348  0.00  0.00    +0.000 A 
ATOM     29  C   UNL     1      15.403   4.029   0.782  0.00  0.00    +0.000 A 
ENDBRANCH  19  23
ENDBRANCH   6  19
ENDBRANCH  16   6
ENDBRANCH  15  16
ENDBRANCH  10  11
BRANCH  10   7
ATOM      2  O   UNL     1       8.704   9.138   3.630  0.00  0.00    -0.376 OA
ATOM      7  C   UNL     1       9.853   7.339   3.582  0.00  0.00    +0.072 C 
ATOM      8  C   UNL     1       8.659   7.929   2.838  0.00  0.00    +0.184 C 
ATOM      9  C   UNL     1       9.896   8.679   4.309  0.00  0.00    +0.184 C 
BRANCH   7   4
ATOM      4  N   UNL     1       9.374   6.320   4.505  0.00  0.00    -0.302 NA
ATOM     30  H   UNL     1       8.951   5.503   4.067  0.00  0.00    +0.123 HD
BRANCH   4  12
ATOM     12  C   UNL     1      10.462   5.902   5.386  0.00  0.00    +0.117 C 
BRANCH  12  14
ATOM      1  F   UNL     1       8.648   4.899  10.626  0.00  0.00    -0.205 F 
ATOM     14  C   UNL     1       9.977   5.634   6.787  0.00  0.00    -0.033 A 
ATOM     17  C   UNL     1      10.050   4.345   7.315  0.00  0.00    +0.008 A 
ATOM     18  C   UNL     1       9.455   6.674   7.554  0.00  0.00    +0.008 A 
ATOM     20  C   UNL     1       9.601   4.098   8.612  0.00  0.00    +0.038 A 
ATOM     21  C   UNL     1       9.005   6.426   8.851  0.00  0.00    +0.038 A 
ATOM     24  C   UNL     1       9.079   5.138   9.381  0.00  0.00    +0.123 A 
ENDBRANCH  12  14
ENDBRANCH   4  12
ENDBRANCH   7   4
ENDBRANCH  10   7
TORSDOF 9
ENDMDL
MODEL 5
REMARK VINA RESULT:      -5.5      3.899      6.138
REMARK  Name = 56775625
REMARK  10 active torsions:
REMARK  status: ('A' for Active; 'I' for Inactive)
REMARK    1  A    between atoms: N_4  and  C_7
REMARK    2  A    between atoms: N_4  and  C_12
REMARK    3  A    between atoms: N_6  and  C_16
REMARK    4  A    between atoms: N_6  and  C_19
REMARK    5  A    between atoms: N_6  and  C_22
REMARK    6  A    between atoms: C_7  and  C_10
REMARK    7  A    between atoms: C_10  and  C_11
REMARK    8  A    between atoms: C_12  and  C_14
REMARK    9  A    between atoms: C_15  and  C_16
REMARK   10  A    between atoms: C_19  and  C_23
REMARK                            x       y       z     vdW  Elec       q    Type
REMARK                         _______ _______ _______ _____ _____    ______ ____
ROOT
ATOM     10  C   UNL     1      12.449  11.971  25.200  0.00  0.00    +0.085 C 
ENDROOT
BRANCH  10  11
ATOM      3  O   UNL     1      15.479  13.527  24.128  0.00  0.00    -0.358 OA
ATOM      5  N   UNL     1      14.303  13.508  24.866  0.00  0.00    -0.083 NA
ATOM     11  C   UNL     1      13.735  12.333  24.580  0.00  0.00    +0.086 A 
ATOM     13  C   UNL     1      14.500  11.576  23.676  0.00  0.00    +0.072 A 
ATOM     15  C   UNL     1      15.586  12.372  23.424  0.00  0.00    +0.151 A 
BRANCH  15  16
ATOM     16  C   UNL     1      16.811  12.219  22.561  0.00  0.00    +0.161 C 
BRANCH  16   6
ATOM      6  N   UNL     1      16.955  10.855  22.057  0.00  0.00    -0.294 NA
ATOM     22  C   UNL     1      18.364  10.543  21.821  0.00  0.00    +0.105 C 
BRANCH   6  19
ATOM     19  C   UNL     1      16.180  10.678  20.829  0.00  0.00    +0.119 C 
BRANCH  19  23
ATOM     23  C   UNL     1      15.520   9.326  20.771  0.00  0.00    -0.033 A 
ATOM     25  C   UNL     1      15.043   8.731  21.939  0.00  0.00    +0.005 A 
ATOM     26  C   UNL     1      15.384   8.670  19.548  0.00  0.00    +0.005 A 
ATOM     27  C   UNL     1      14.431   7.479  21.884  0.00  0.00    +0.000 A 
ATOM     28  C   UNL     1      14.772   7.417  19.493  0.00  0.00    +0.000 A 
ATOM     29  C   UNL     1      14.296   6.822  20.661  0.00  0.00    +0.000 A 
ENDBRANCH  19  23
ENDBRANCH   6  19
ENDBRANCH  16   6
ENDBRANCH  15  16
ENDBRANCH  10  11
BRANCH  10   7
ATOM      2  O   UNL     1      10.716  14.715  24.257  0.00  0.00    -0.376 OA
ATOM      7  C   UNL     1      11.279  12.670  24.496  0.00  0.00    +0.072 C 
ATOM      8  C   UNL     1      11.573  13.809  23.526  0.00  0.00    +0.184 C 
ATOM      9  C   UNL     1      10.470  13.709  25.266  0.00  0.00    +0.184 C 
BRANCH   7   4
ATOM      4  N   UNL     1      10.359  11.737  23.861  0.00  0.00    -0.302 NA
ATOM     30  H   UNL     1      10.092  11.974  22.906  0.00  0.00    +0.123 HD
BRANCH   4  12
ATOM     12  C   UNL     1      10.920  10.389  23.897  0.00  0.00    +0.117 C 
BRANCH  12  14
ATOM      1  F   UNL     1      11.561   8.248  18.724  0.00  0.00    -0.205 F 
ATOM     14  C   UNL     1      11.091   9.816  22.514  0.00  0.00    -0.033 A 
ATOM     17  C   UNL     1      11.723  10.567  21.523  0.00  0.00    +0.008 A 
ATOM     18  C   UNL     1      10.619   8.536  22.226  0.00  0.00    +0.008 A 
ATOM     20  C   UNL     1      11.881  10.037  20.242  0.00  0.00    +0.038 A 
ATOM     21  C   UNL     1      10.777   8.007  20.945  0.00  0.00    +0.038 A 
ATOM     24  C   UNL     1      11.409   8.756  19.953  0.00  0.00    +0.123 A 
ENDBRANCH  12  14
ENDBRANCH   4  12
ENDBRANCH   7   4
ENDBRANCH  10   7
TORSDOF 9
ENDMDL
MODEL 6
REMARK VINA RESULT:      -5.5      2.474      4.829
REMARK  Name = 56775625
REMARK  10 active torsions:
REMARK  status: ('A' for Active; 'I' for Inactive)
REMARK    1  A    between atoms: N_4  and  C_7
REMARK    2  A    between atoms: N_4  and  C_12
REMARK    3  A    between atoms: N_6  and  C_16
REMARK    4  A    between atoms: N_6  and  C_19
REMARK    5  A    between atoms: N_6  and  C_22
REMARK    6  A    between atoms: C_7  and  C_10
REMARK    7  A    between atoms: C_10  and  C_11
REMARK    8  A    between atoms: C_12  and  C_14
REMARK    9  A    between atoms: C_15  and  C_16
REMARK   10  A    between atoms: C_19  and  C_23
REMARK                            x       y       z     vdW  Elec       q    Type
REMARK                         _______ _______ _______ _____ _____    ______ ____
ROOT
ATOM     10  C   UNL     1      11.224   9.650  23.203  0.00  0.00    +0.085 C 
ENDROOT
BRANCH  10  11
ATOM      3  O   UNL     1      11.003   8.163  19.964  0.00  0.00    -0.358 OA
ATOM      5  N   UNL     1      10.494   8.943  20.994  0.00  0.00    -0.083 NA
ATOM     11  C   UNL     1      11.433   8.915  21.944  0.00  0.00    +0.086 A 
ATOM     13  C   UNL     1      12.545   8.140  21.573  0.00  0.00    +0.072 A 
ATOM     15  C   UNL     1      12.224   7.690  20.320  0.00  0.00    +0.151 A 
BRANCH  15  16
ATOM     16  C   UNL     1      12.929   6.818  19.314  0.00  0.00    +0.161 C 
BRANCH  16   6
ATOM      6  N   UNL     1      14.171   7.426  18.842  0.00  0.00    -0.294 NA
ATOM     22  C   UNL     1      14.164   7.537  17.384  0.00  0.00    +0.105 C 
BRANCH   6  19
ATOM     19  C   UNL     1      15.325   6.647  19.290  0.00  0.00    +0.119 C 
BRANCH  19  23
ATOM     23  C   UNL     1      16.291   7.481  20.088  0.00  0.00    -0.033 A 
ATOM     25  C   UNL     1      16.000   8.818  20.359  0.00  0.00    +0.005 A 
ATOM     26  C   UNL     1      17.476   6.915  20.558  0.00  0.00    +0.005 A 
ATOM     27  C   UNL     1      16.896   9.590  21.100  0.00  0.00    +0.000 A 
ATOM     28  C   UNL     1      18.371   7.687  21.298  0.00  0.00    +0.000 A 
ATOM     29  C   UNL     1      18.082   9.025  21.569  0.00  0.00    +0.000 A 
ENDBRANCH  19  23
ENDBRANCH   6  19
ENDBRANCH  16   6
ENDBRANCH  15  16
ENDBRANCH  10  11
BRANCH  10   7
ATOM      2  O   UNL     1      11.832  12.755  24.393  0.00  0.00    -0.376 OA
ATOM      7  C   UNL     1      11.519  11.145  23.026  0.00  0.00    +0.072 C 
ATOM      8  C   UNL     1      12.689  11.762  23.785  0.00  0.00    +0.184 C 
ATOM      9  C   UNL     1      10.666  12.159  23.779  0.00  0.00    +0.184 C 
BRANCH   7   4
ATOM      4  N   UNL     1      11.601  11.547  21.629  0.00  0.00    -0.302 NA
ATOM     30  H   UNL     1      10.807  12.086  21.286  0.00  0.00    +0.123 HD
BRANCH   4  12
ATOM     12  C   UNL     1      12.839  12.288  21.400  0.00  0.00    +0.117 C 
BRANCH  12  14
ATOM      1  F   UNL     1      14.324  12.256  15.965  0.00  0.00    -0.205 F 
ATOM     14  C   UNL     1      13.235  12.279  19.946  0.00  0.00    -0.033 A 
ATOM     17  C   UNL     1      13.530  13.478  19.298  0.00  0.00    +0.008 A 
ATOM     18  C   UNL     1      13.309  11.073  19.251  0.00  0.00    +0.008 A 
ATOM     20  C   UNL     1      13.897  13.470  17.952  0.00  0.00    +0.038 A 
ATOM     21  C   UNL     1      13.677  11.065  17.906  0.00  0.00    +0.038 A 
ATOM     24  C   UNL     1      13.971  12.263  17.256  0.00  0.00    +0.123 A 
ENDBRANCH  12  14
ENDBRANCH   4  12
ENDBRANCH   7   4
ENDBRANCH  10   7
TORSDOF 9
ENDMDL
MODEL 7
REMARK VINA RESULT:      -5.4     26.315     29.819
REMARK  Name = 56775625
REMARK  10 active torsions:
REMARK  status: ('A' for Active; 'I' for Inactive)
REMARK    1  A    between atoms: N_4  and  C_7
REMARK    2  A    between atoms: N_4  and  C_12
REMARK    3  A    between atoms: N_6  and  C_16
REMARK    4  A    between atoms: N_6  and  C_19
REMARK    5  A    between atoms: N_6  and  C_22
REMARK    6  A    between atoms: C_7  and  C_10
REMARK    7  A    between atoms: C_10  and  C_11
REMARK    8  A    between atoms: C_12  and  C_14
REMARK    9  A    between atoms: C_15  and  C_16
REMARK   10  A    between atoms: C_19  and  C_23
REMARK                            x       y       z     vdW  Elec       q    Type
REMARK                         _______ _______ _______ _____ _____    ______ ____
ROOT
ATOM     10  C   UNL     1     -14.173   5.098  22.156  0.00  0.00    +0.085 C 
ENDROOT
BRANCH  10  11
ATOM      3  O   UNL     1     -16.998   3.302  23.399  0.00  0.00    -0.358 OA
ATOM      5  N   UNL     1     -16.195   3.764  22.364  0.00  0.00    -0.083 NA
ATOM     11  C   UNL     1     -15.223   4.456  22.965  0.00  0.00    +0.086 A 
ATOM     13  C   UNL     1     -15.360   4.466  24.364  0.00  0.00    +0.072 A 
ATOM     15  C   UNL     1     -16.491   3.726  24.585  0.00  0.00    +0.151 A 
BRANCH  15  16
ATOM     16  C   UNL     1     -17.241   3.314  25.824  0.00  0.00    +0.161 C 
BRANCH  16   6
ATOM      6  N   UNL     1     -16.568   2.226  26.532  0.00  0.00    -0.294 NA
ATOM     22  C   UNL     1     -16.785   0.956  25.840  0.00  0.00    +0.105 C 
BRANCH   6  19
ATOM     19  C   UNL     1     -17.041   2.145  27.913  0.00  0.00    +0.119 C 
BRANCH  19  23
ATOM     23  C   UNL     1     -15.905   1.980  28.887  0.00  0.00    -0.033 A 
ATOM     25  C   UNL     1     -15.115   3.077  29.232  0.00  0.00    +0.005 A 
ATOM     26  C   UNL     1     -15.642   0.729  29.446  0.00  0.00    +0.005 A 
ATOM     27  C   UNL     1     -14.064   2.924  30.135  0.00  0.00    +0.000 A 
ATOM     28  C   UNL     1     -14.590   0.576  30.349  0.00  0.00    +0.000 A 
ATOM     29  C   UNL     1     -13.800   1.673  30.693  0.00  0.00    +0.000 A 
ENDBRANCH  19  23
ENDBRANCH   6  19
ENDBRANCH  16   6
ENDBRANCH  15  16
ENDBRANCH  10  11
BRANCH  10   7
ATOM      2  O   UNL     1     -16.080   7.878  22.395  0.00  0.00    -0.376 OA
ATOM      7  C   UNL     1     -14.599   6.502  21.709  0.00  0.00    +0.072 C 
ATOM      8  C   UNL     1     -14.705   7.609  22.752  0.00  0.00    +0.184 C 
ATOM      9  C   UNL     1     -16.077   6.778  21.456  0.00  0.00    +0.184 C 
BRANCH   7   4
ATOM      4  N   UNL     1     -13.830   6.995  20.576  0.00  0.00    -0.302 NA
ATOM     30  H   UNL     1     -14.293   7.711  20.016  0.00  0.00    +0.123 HD
BRANCH   4  12
ATOM     12  C   UNL     1     -12.534   7.488  21.035  0.00  0.00    +0.117 C 
BRANCH  12  14
ATOM      1  F   UNL     1      -9.530   9.728  16.827  0.00  0.00    -0.205 F 
ATOM     14  C   UNL     1     -11.731   8.087  19.910  0.00  0.00    -0.033 A 
ATOM     17  C   UNL     1     -11.107   9.322  20.080  0.00  0.00    +0.008 A 
ATOM     18  C   UNL     1     -11.612   7.405  18.699  0.00  0.00    +0.008 A 
ATOM     20  C   UNL     1     -10.363   9.876  19.037  0.00  0.00    +0.038 A 
ATOM     21  C   UNL     1     -10.869   7.960  17.657  0.00  0.00    +0.038 A 
ATOM     24  C   UNL     1     -10.244   9.195  17.826  0.00  0.00    +0.123 A 
ENDBRANCH  12  14
ENDBRANCH   4  12
ENDBRANCH   7   4
ENDBRANCH  10   7
TORSDOF 9
ENDMDL
MODEL 8
REMARK VINA RESULT:      -5.4     27.102     29.212
REMARK  Name = 56775625
REMARK  10 active torsions:
REMARK  status: ('A' for Active; 'I' for Inactive)
REMARK    1  A    between atoms: N_4  and  C_7
REMARK    2  A    between atoms: N_4  and  C_12
REMARK    3  A    between atoms: N_6  and  C_16
REMARK    4  A    between atoms: N_6  and  C_19
REMARK    5  A    between atoms: N_6  and  C_22
REMARK    6  A    between atoms: C_7  and  C_10
REMARK    7  A    between atoms: C_10  and  C_11
REMARK    8  A    between atoms: C_12  and  C_14
REMARK    9  A    between atoms: C_15  and  C_16
REMARK   10  A    between atoms: C_19  and  C_23
REMARK                            x       y       z     vdW  Elec       q    Type
REMARK                         _______ _______ _______ _____ _____    ______ ____
ROOT
ATOM     10  C   UNL     1      -6.821 -11.986  17.176  0.00  0.00    +0.085 C 
ENDROOT
BRANCH  10  11
ATOM      3  O   UNL     1      -4.813 -10.080  14.921  0.00  0.00    -0.358 OA
ATOM      5  N   UNL     1      -6.004 -10.336  15.590  0.00  0.00    -0.083 NA
ATOM     11  C   UNL     1      -5.760 -11.425  16.324  0.00  0.00    +0.086 A 
ATOM     13  C   UNL     1      -4.446 -11.896  16.161  0.00  0.00    +0.072 A 
ATOM     15  C   UNL     1      -3.893 -11.016  15.269  0.00  0.00    +0.151 A 
BRANCH  15  16
ATOM     16  C   UNL     1      -2.533 -10.892  14.634  0.00  0.00    +0.161 C 
BRANCH  16   6
ATOM      6  N   UNL     1      -2.476 -11.560  13.335  0.00  0.00    -0.294 NA
ATOM     22  C   UNL     1      -1.610 -12.737  13.403  0.00  0.00    +0.105 C 
BRANCH   6  19
ATOM     19  C   UNL     1      -2.002 -10.636  12.305  0.00  0.00    +0.119 C 
BRANCH  19  23
ATOM     23  C   UNL     1      -3.084 -10.295  11.316  0.00  0.00    -0.033 A 
ATOM     25  C   UNL     1      -4.304 -10.970  11.354  0.00  0.00    +0.005 A 
ATOM     26  C   UNL     1      -2.867  -9.301  10.361  0.00  0.00    +0.005 A 
ATOM     27  C   UNL     1      -5.306 -10.653  10.437  0.00  0.00    +0.000 A 
ATOM     28  C   UNL     1      -3.869  -8.984   9.444  0.00  0.00    +0.000 A 
ATOM     29  C   UNL     1      -5.088  -9.660   9.482  0.00  0.00    +0.000 A 
ENDBRANCH  19  23
ENDBRANCH   6  19
ENDBRANCH  16   6
ENDBRANCH  15  16
ENDBRANCH  10  11
BRANCH  10   7
ATOM      2  O   UNL     1      -6.369 -11.314  20.458  0.00  0.00    -0.376 OA
ATOM      7  C   UNL     1      -7.029 -11.135  18.435  0.00  0.00    +0.072 C 
ATOM      8  C   UNL     1      -5.813 -10.726  19.260  0.00  0.00    +0.184 C 
ATOM      9  C   UNL     1      -7.505 -11.814  19.714  0.00  0.00    +0.184 C 
BRANCH   7   4
ATOM      4  N   UNL     1      -7.852  -9.958  18.196  0.00  0.00    -0.302 NA
ATOM     30  H   UNL     1      -7.703  -9.501  17.296  0.00  0.00    +0.123 HD
BRANCH   4  12
ATOM     12  C   UNL     1      -9.263 -10.303  18.348  0.00  0.00    +0.117 C 
BRANCH  12  14
ATOM      1  F   UNL     1     -12.623  -6.529  15.853  0.00  0.00    -0.205 F 
ATOM     14  C   UNL     1     -10.161  -9.294  17.680  0.00  0.00    -0.033 A 
ATOM     17  C   UNL     1     -11.521  -9.564  17.530  0.00  0.00    +0.008 A 
ATOM     18  C   UNL     1      -9.632  -8.090  17.214  0.00  0.00    +0.008 A 
ATOM     20  C   UNL     1     -12.352  -8.629  16.912  0.00  0.00    +0.038 A 
ATOM     21  C   UNL     1     -10.464  -7.157  16.596  0.00  0.00    +0.038 A 
ATOM     24  C   UNL     1     -11.824  -7.425  16.445  0.00  0.00    +0.123 A 
ENDBRANCH  12  14
ENDBRANCH   4  12
ENDBRANCH   7   4
ENDBRANCH  10   7
TORSDOF 9
ENDMDL
MODEL 9
REMARK VINA RESULT:      -5.3     28.162     31.178
REMARK  Name = 56775625
REMARK  10 active torsions:
REMARK  status: ('A' for Active; 'I' for Inactive)
REMARK    1  A    between atoms: N_4  and  C_7
REMARK    2  A    between atoms: N_4  and  C_12
REMARK    3  A    between atoms: N_6  and  C_16
REMARK    4  A    between atoms: N_6  and  C_19
REMARK    5  A    between atoms: N_6  and  C_22
REMARK    6  A    between atoms: C_7  and  C_10
REMARK    7  A    between atoms: C_10  and  C_11
REMARK    8  A    between atoms: C_12  and  C_14
REMARK    9  A    between atoms: C_15  and  C_16
REMARK   10  A    between atoms: C_19  and  C_23
REMARK                            x       y       z     vdW  Elec       q    Type
REMARK                         _______ _______ _______ _____ _____    ______ ____
ROOT
ATOM     10  C   UNL     1      -6.344 -12.664  18.547  0.00  0.00    +0.085 C 
ENDROOT
BRANCH  10  11
ATOM      3  O   UNL     1      -8.881 -10.799  20.232  0.00  0.00    -0.358 OA
ATOM      5  N   UNL     1      -7.568 -10.995  19.822  0.00  0.00    -0.083 NA
ATOM     11  C   UNL     1      -7.587 -12.142  19.138  0.00  0.00    +0.086 A 
ATOM     13  C   UNL     1      -8.872 -12.710  19.084  0.00  0.00    +0.072 A 
ATOM     15  C   UNL     1      -9.648 -11.826  19.786  0.00  0.00    +0.151 A 
BRANCH  15  16
ATOM     16  C   UNL     1     -11.111 -11.777  20.140  0.00  0.00    +0.161 C 
BRANCH  16   6
ATOM      6  N   UNL     1     -11.708 -10.485  19.810  0.00  0.00    -0.294 NA
ATOM     22  C   UNL     1     -12.819 -10.189  20.715  0.00  0.00    +0.105 C 
BRANCH   6  19
ATOM     19  C   UNL     1     -12.163 -10.472  18.420  0.00  0.00    +0.119 C 
BRANCH  19  23
ATOM     23  C   UNL     1     -11.666  -9.260  17.678  0.00  0.00    -0.033 A 
ATOM     25  C   UNL     1     -12.550  -8.501  16.911  0.00  0.00    +0.005 A 
ATOM     26  C   UNL     1     -10.322  -8.897  17.758  0.00  0.00    +0.005 A 
ATOM     27  C   UNL     1     -12.089  -7.377  16.224  0.00  0.00    +0.000 A 
ATOM     28  C   UNL     1      -9.862  -7.774  17.071  0.00  0.00    +0.000 A 
ATOM     29  C   UNL     1     -10.745  -7.014  16.303  0.00  0.00    +0.000 A 
ENDBRANCH  19  23
ENDBRANCH   6  19
ENDBRANCH  16   6
ENDBRANCH  15  16
ENDBRANCH  10  11
BRANCH  10   7
ATOM      2  O   UNL     1      -3.789 -11.252  16.842  0.00  0.00    -0.376 OA
ATOM      7  C   UNL     1      -5.768 -11.686  17.515  0.00  0.00    +0.072 C 
ATOM      8  C   UNL     1      -4.802 -12.210  16.458  0.00  0.00    +0.184 C 
ATOM      9  C   UNL     1      -4.618 -10.773  17.926  0.00  0.00    +0.184 C 
BRANCH   7   4
ATOM      4  N   UNL     1      -6.792 -10.884  16.860  0.00  0.00    -0.302 NA
ATOM     30  H   UNL     1      -6.579  -9.890  16.780  0.00  0.00    +0.123 HD
BRANCH   4  12
ATOM     12  C   UNL     1      -7.082 -11.436  15.539  0.00  0.00    +0.117 C 
BRANCH  12  14
ATOM      1  F   UNL     1     -12.161  -9.860  13.676  0.00  0.00    -0.205 F 
ATOM     14  C   UNL     1      -8.440 -11.014  15.041  0.00  0.00    -0.033 A 
ATOM     17  C   UNL     1      -8.566  -9.881  14.238  0.00  0.00    +0.008 A 
ATOM     18  C   UNL     1      -9.569 -11.758  15.384  0.00  0.00    +0.008 A 
ATOM     20  C   UNL     1      -9.824  -9.492  13.777  0.00  0.00    +0.038 A 
ATOM     21  C   UNL     1     -10.826 -11.367  14.923  0.00  0.00    +0.038 A 
ATOM     24  C   UNL     1     -10.954 -10.234  14.119  0.00  0.00    +0.123 A 
ENDBRANCH  12  14
ENDBRANCH   4  12
ENDBRANCH   7   4
ENDBRANCH  10   7
TORSDOF 9
ENDMDL
MODEL 10
REMARK VINA RESULT:      -5.3     25.087     27.144
REMARK  Name = 56775625
REMARK  10 active torsions:
REMARK  status: ('A' for Active; 'I' for Inactive)
REMARK    1  A    between atoms: N_4  and  C_7
REMARK    2  A    between atoms: N_4  and  C_12
REMARK    3  A    between atoms: N_6  and  C_16
REMARK    4  A    between atoms: N_6  and  C_19
REMARK    5  A    between atoms: N_6  and  C_22
REMARK    6  A    between atoms: C_7  and  C_10
REMARK    7  A    between atoms: C_10  and  C_11
REMARK    8  A    between atoms: C_12  and  C_14
REMARK    9  A    between atoms: C_15  and  C_16
REMARK   10  A    between atoms: C_19  and  C_23
REMARK                            x       y       z     vdW  Elec       q    Type
REMARK                         _______ _______ _______ _____ _____    ______ ____
ROOT
ATOM     10  C   UNL     1     -10.460  10.229  18.939  0.00  0.00    +0.085 C 
ENDROOT
BRANCH  10  11
ATOM      3  O   UNL     1     -12.815  12.570  20.254  0.00  0.00    -0.358 OA
ATOM      5  N   UNL     1     -11.932  12.134  19.273  0.00  0.00    -0.083 NA
ATOM     11  C   UNL     1     -11.443  10.981  19.737  0.00  0.00    +0.086 A 
ATOM     13  C   UNL     1     -11.976  10.641  20.993  0.00  0.00    +0.072 A 
ATOM     15  C   UNL     1     -12.833  11.673  21.272  0.00  0.00    +0.151 A 
BRANCH  15  16
ATOM     16  C   UNL     1     -13.742  11.986  22.431  0.00  0.00    +0.161 C 
BRANCH  16   6
ATOM      6  N   UNL     1     -13.377  11.233  23.629  0.00  0.00    -0.294 NA
ATOM     22  C   UNL     1     -14.293  10.110  23.826  0.00  0.00    +0.105 C 
BRANCH   6  19
ATOM     19  C   UNL     1     -13.380  12.107  24.802  0.00  0.00    +0.119 C 
BRANCH  19  23
ATOM     23  C   UNL     1     -12.434  11.620  25.867  0.00  0.00    -0.033 A 
ATOM     25  C   UNL     1     -12.599  12.034  27.189  0.00  0.00    +0.005 A 
ATOM     26  C   UNL     1     -11.394  10.753  25.532  0.00  0.00    +0.005 A 
ATOM     27  C   UNL     1     -11.722  11.582  28.176  0.00  0.00    +0.000 A 
ATOM     28  C   UNL     1     -10.517  10.302  26.518  0.00  0.00    +0.000 A 
ATOM     29  C   UNL     1     -10.681  10.716  27.840  0.00  0.00    +0.000 A 
ENDBRANCH  19  23
ENDBRANCH   6  19
ENDBRANCH  16   6
ENDBRANCH  15  16
ENDBRANCH  10  11
BRANCH  10   7
ATOM      2  O   UNL     1     -10.208   9.534  15.641  0.00  0.00    -0.376 OA
ATOM      7  C   UNL     1     -11.047   9.816  17.584  0.00  0.00    +0.072 C 
ATOM      8  C   UNL     1     -10.381   8.689  16.802  0.00  0.00    +0.184 C 
ATOM      9  C   UNL     1     -10.743  10.670  16.358  0.00  0.00    +0.184 C 
BRANCH   7   4
ATOM      4  N   UNL     1     -12.481   9.568  17.637  0.00  0.00    -0.302 NA
ATOM     30  H   UNL     1     -13.020   9.974  16.873  0.00  0.00    +0.123 HD
BRANCH   4  12
ATOM     12  C   UNL     1     -12.731   8.130  17.709  0.00  0.00    +0.117 C 
BRANCH  12  14
ATOM      1  F   UNL     1     -14.140   6.505  22.917  0.00  0.00    -0.205 F 
ATOM     14  C   UNL     1     -13.107   7.696  19.102  0.00  0.00    -0.033 A 
ATOM     17  C   UNL     1     -14.400   7.919  19.575  0.00  0.00    +0.008 A 
ATOM     18  C   UNL     1     -12.164   7.070  19.916  0.00  0.00    +0.008 A 
ATOM     20  C   UNL     1     -14.748   7.517  20.865  0.00  0.00    +0.038 A 
ATOM     21  C   UNL     1     -12.512   6.669  21.205  0.00  0.00    +0.038 A 
ATOM     24  C   UNL     1     -13.805   6.891  21.680  0.00  0.00    +0.123 A 
ENDBRANCH  12  14
ENDBRANCH   4  12
ENDBRANCH   7   4
ENDBRANCH  10   7
TORSDOF 9
ENDMDL
