MODEL 1
REMARK VINA RESULT:      -6.8      0.000      0.000
REMARK  Name = 11885122
REMARK  5 active torsions:
REMARK  status: ('A' for Active; 'I' for Inactive)
REMARK    1  A    between atoms: O_3  and  C_27
REMARK    2  A    between atoms: O_3  and  C_31
REMARK    3  A    between atoms: C_15  and  C_18
REMARK    4  A    between atoms: C_16  and  C_19
REMARK    5  A    between atoms: C_18  and  C_20
REMARK                            x       y       z     vdW  Elec       q    Type
REMARK                         _______ _______ _______ _____ _____    ______ ____
ROOT
ATOM      1  O   UNL     1       9.717   7.184   1.967  0.00  0.00    -0.267 OA
ATOM      2  O   UNL     1      12.152  10.177   5.669  0.00  0.00    -0.275 OA
ATOM      4  N   UNL     1      10.588   8.767   6.651  0.00  0.00    -0.300 N 
ATOM      5  N   UNL     1       9.413   6.992   4.271  0.00  0.00    -0.311 N 
ATOM      6  C   UNL     1       8.293   8.821   5.670  0.00  0.00    +0.027 C 
ATOM      7  C   UNL     1       9.105   6.773   6.761  0.00  0.00    +0.054 C 
ATOM      8  C   UNL     1       7.884   7.675   6.588  0.00  0.00    +0.018 C 
ATOM      9  C   UNL     1       9.454   9.619   6.285  0.00  0.00    +0.113 C 
ATOM     10  C   UNL     1       8.652   8.249   4.293  0.00  0.00    +0.130 C 
ATOM     11  C   UNL     1      10.244   7.568   7.430  0.00  0.00    +0.117 C 
ATOM     12  C   UNL     1       9.574   6.225   5.427  0.00  0.00    +0.027 A 
ATOM     13  C   UNL     1      10.169   5.023   5.361  0.00  0.00    +0.022 A 
ATOM     14  C   UNL     1       9.871   6.552   3.014  0.00  0.00    +0.259 A 
ATOM     15  C   UNL     1      11.885   9.166   6.324  0.00  0.00    +0.220 C 
ATOM     16  C   UNL     1      10.565   5.218   2.977  0.00  0.00    +0.047 A 
ATOM     17  C   UNL     1      10.674   4.518   4.116  0.00  0.00    +0.015 A 
ENDROOT
BRANCH  16  19
ATOM     19  C   UNL     1      11.125   4.682   1.724  0.00  0.00    -0.012 A 
ATOM     21  C   UNL     1      12.391   4.096   1.717  0.00  0.00    +0.012 A 
ATOM     22  C   UNL     1      10.388   4.762   0.541  0.00  0.00    +0.012 A 
ATOM     25  C   UNL     1      12.920   3.590   0.530  0.00  0.00    +0.046 A 
ATOM     26  C   UNL     1      10.918   4.256  -0.646  0.00  0.00    +0.046 A 
ATOM     27  C   UNL     1      12.184   3.670  -0.652  0.00  0.00    +0.120 A 
BRANCH  27   3
ATOM      3  O   UNL     1      12.701   3.176  -1.810  0.00  0.00    -0.495 OA
ATOM     31  C   UNL     1      11.813   2.452  -2.661  0.00  0.00    +0.277 C 
ENDBRANCH  27   3
ENDBRANCH  16  19
BRANCH  15  18
ATOM     18  C   UNL     1      13.006   8.283   6.808  0.00  0.00    +0.131 C 
BRANCH  18  20
ATOM     20  C   UNL     1      13.847   7.822   5.659  0.00  0.00    -0.039 A 
ATOM     23  C   UNL     1      15.235   7.889   5.748  0.00  0.00    +0.004 A 
ATOM     24  C   UNL     1      13.238   7.330   4.509  0.00  0.00    +0.004 A 
ATOM     28  C   UNL     1      16.019   7.460   4.676  0.00  0.00    +0.000 A 
ATOM     29  C   UNL     1      14.022   6.901   3.438  0.00  0.00    +0.000 A 
ATOM     30  C   UNL     1      15.412   6.966   3.522  0.00  0.00    +0.000 A 
ENDBRANCH  18  20
ENDBRANCH  15  18
TORSDOF 4
ENDMDL
MODEL 2
REMARK VINA RESULT:      -6.8     31.696     33.978
REMARK  Name = 11885122
REMARK  5 active torsions:
REMARK  status: ('A' for Active; 'I' for Inactive)
REMARK    1  A    between atoms: O_3  and  C_27
REMARK    2  A    between atoms: O_3  and  C_31
REMARK    3  A    between atoms: C_15  and  C_18
REMARK    4  A    between atoms: C_16  and  C_19
REMARK    5  A    between atoms: C_18  and  C_20
REMARK                            x       y       z     vdW  Elec       q    Type
REMARK                         _______ _______ _______ _____ _____    ______ ____
ROOT
ATOM      1  O   UNL     1       9.361 -11.492  31.872  0.00  0.00    -0.267 OA
ATOM      2  O   UNL     1       6.907 -10.391  36.493  0.00  0.00    -0.275 OA
ATOM      4  N   UNL     1       7.287  -8.446  35.281  0.00  0.00    -0.300 N 
ATOM      5  N   UNL     1       8.594  -9.389  32.525  0.00  0.00    -0.311 N 
ATOM      6  C   UNL     1       9.624  -8.092  34.477  0.00  0.00    +0.027 C 
ATOM      7  C   UNL     1       7.744  -7.123  33.224  0.00  0.00    +0.054 C 
ATOM      8  C   UNL     1       9.165  -6.854  33.717  0.00  0.00    +0.018 C 
ATOM      9  C   UNL     1       8.696  -8.367  35.672  0.00  0.00    +0.113 C 
ATOM     10  C   UNL     1       9.682  -9.278  33.507  0.00  0.00    +0.130 C 
ATOM     11  C   UNL     1       6.811  -7.343  34.432  0.00  0.00    +0.117 C 
ATOM     12  C   UNL     1       7.701  -8.336  32.314  0.00  0.00    +0.027 A 
ATOM     13  C   UNL     1       6.790  -8.412  31.330  0.00  0.00    +0.022 A 
ATOM     14  C   UNL     1       8.569 -10.558  31.739  0.00  0.00    +0.259 A 
ATOM     15  C   UNL     1       6.488  -9.474  35.782  0.00  0.00    +0.220 C 
ATOM     16  C   UNL     1       7.513 -10.629  30.669  0.00  0.00    +0.047 A 
ATOM     17  C   UNL     1       6.696  -9.579  30.501  0.00  0.00    +0.015 A 
ENDROOT
BRANCH  16  19
ATOM     19  C   UNL     1       7.367 -11.824  29.819  0.00  0.00    -0.012 A 
ATOM     21  C   UNL     1       8.234 -12.030  28.746  0.00  0.00    +0.012 A 
ATOM     22  C   UNL     1       6.359 -12.752  30.088  0.00  0.00    +0.012 A 
ATOM     25  C   UNL     1       8.094 -13.161  27.942  0.00  0.00    +0.046 A 
ATOM     26  C   UNL     1       6.220 -13.883  29.284  0.00  0.00    +0.046 A 
ATOM     27  C   UNL     1       7.088 -14.088  28.211  0.00  0.00    +0.120 A 
BRANCH  27   3
ATOM      3  O   UNL     1       6.951 -15.191  27.427  0.00  0.00    -0.495 OA
ATOM     31  C   UNL     1       5.623 -15.591  27.092  0.00  0.00    +0.277 C 
ENDBRANCH  27   3
ENDBRANCH  16  19
BRANCH  15  18
ATOM     18  C   UNL     1       5.028  -9.441  35.406  0.00  0.00    +0.131 C 
BRANCH  18  20
ATOM     20  C   UNL     1       4.625 -10.723  34.748  0.00  0.00    -0.039 A 
ATOM     23  C   UNL     1       3.402 -11.308  35.066  0.00  0.00    +0.004 A 
ATOM     24  C   UNL     1       5.473 -11.324  33.823  0.00  0.00    +0.004 A 
ATOM     28  C   UNL     1       3.025 -12.504  34.453  0.00  0.00    +0.000 A 
ATOM     29  C   UNL     1       5.097 -12.519  33.210  0.00  0.00    +0.000 A 
ATOM     30  C   UNL     1       3.873 -13.109  33.526  0.00  0.00    +0.000 A 
ENDBRANCH  18  20
ENDBRANCH  15  18
TORSDOF 4
ENDMDL
MODEL 3
REMARK VINA RESULT:      -6.7     23.902     26.147
REMARK  Name = 11885122
REMARK  5 active torsions:
REMARK  status: ('A' for Active; 'I' for Inactive)
REMARK    1  A    between atoms: O_3  and  C_27
REMARK    2  A    between atoms: O_3  and  C_31
REMARK    3  A    between atoms: C_15  and  C_18
REMARK    4  A    between atoms: C_16  and  C_19
REMARK    5  A    between atoms: C_18  and  C_20
REMARK                            x       y       z     vdW  Elec       q    Type
REMARK                         _______ _______ _______ _____ _____    ______ ____
ROOT
ATOM      1  O   UNL     1      -4.884 -12.948  10.059  0.00  0.00    -0.267 OA
ATOM      2  O   UNL     1      -5.621 -13.264  15.346  0.00  0.00    -0.275 OA
ATOM      4  N   UNL     1      -3.380 -12.905  14.849  0.00  0.00    -0.300 N 
ATOM      5  N   UNL     1      -3.240 -12.590  11.675  0.00  0.00    -0.311 N 
ATOM      6  C   UNL     1      -2.362 -14.463  13.184  0.00  0.00    +0.027 C 
ATOM      7  C   UNL     1      -1.474 -12.183  13.424  0.00  0.00    +0.054 C 
ATOM      8  C   UNL     1      -1.077 -13.644  13.218  0.00  0.00    +0.018 C 
ATOM      9  C   UNL     1      -3.137 -14.308  14.503  0.00  0.00    +0.113 C 
ATOM     10  C   UNL     1      -3.194 -14.029  11.972  0.00  0.00    +0.130 C 
ATOM     11  C   UNL     1      -2.201 -12.030  14.774  0.00  0.00    +0.117 C 
ATOM     12  C   UNL     1      -2.368 -11.696  12.300  0.00  0.00    +0.027 A 
ATOM     13  C   UNL     1      -2.345 -10.406  11.927  0.00  0.00    +0.022 A 
ATOM     14  C   UNL     1      -4.125 -12.182  10.657  0.00  0.00    +0.259 A 
ATOM     15  C   UNL     1      -4.644 -12.513  15.291  0.00  0.00    +0.220 C 
ATOM     16  C   UNL     1      -4.101 -10.724  10.287  0.00  0.00    +0.047 A 
ATOM     17  C   UNL     1      -3.230  -9.916  10.908  0.00  0.00    +0.015 A 
ENDROOT
BRANCH  16  19
ATOM     19  C   UNL     1      -5.017 -10.180   9.268  0.00  0.00    -0.012 A 
ATOM     21  C   UNL     1      -6.114  -9.409   9.654  0.00  0.00    +0.012 A 
ATOM     22  C   UNL     1      -4.788 -10.437   7.916  0.00  0.00    +0.012 A 
ATOM     25  C   UNL     1      -6.980  -8.895   8.689  0.00  0.00    +0.046 A 
ATOM     26  C   UNL     1      -5.655  -9.924   6.951  0.00  0.00    +0.046 A 
ATOM     27  C   UNL     1      -6.751  -9.152   7.338  0.00  0.00    +0.120 A 
BRANCH  27   3
ATOM      3  O   UNL     1      -7.597  -8.651   6.398  0.00  0.00    -0.495 OA
ATOM     31  C   UNL     1      -7.082  -8.500   5.075  0.00  0.00    +0.277 C 
ENDBRANCH  27   3
ENDBRANCH  16  19
BRANCH  15  18
ATOM     18  C   UNL     1      -4.796 -11.073  15.711  0.00  0.00    +0.131 C 
BRANCH  18  20
ATOM     20  C   UNL     1      -5.234 -10.985  17.140  0.00  0.00    -0.039 A 
ATOM     23  C   UNL     1      -6.447 -10.380  17.456  0.00  0.00    +0.004 A 
ATOM     24  C   UNL     1      -4.425 -11.509  18.145  0.00  0.00    +0.004 A 
ATOM     28  C   UNL     1      -6.854 -10.297  18.787  0.00  0.00    +0.000 A 
ATOM     29  C   UNL     1      -4.833 -11.426  19.476  0.00  0.00    +0.000 A 
ATOM     30  C   UNL     1      -6.047 -10.820  19.797  0.00  0.00    +0.000 A 
ENDBRANCH  18  20
ENDBRANCH  15  18
TORSDOF 4
ENDMDL
MODEL 4
REMARK VINA RESULT:      -6.6     25.420     28.132
REMARK  Name = 11885122
REMARK  5 active torsions:
REMARK  status: ('A' for Active; 'I' for Inactive)
REMARK    1  A    between atoms: O_3  and  C_27
REMARK    2  A    between atoms: O_3  and  C_31
REMARK    3  A    between atoms: C_15  and  C_18
REMARK    4  A    between atoms: C_16  and  C_19
REMARK    5  A    between atoms: C_18  and  C_20
REMARK                            x       y       z     vdW  Elec       q    Type
REMARK                         _______ _______ _______ _____ _____    ______ ____
ROOT
ATOM      1  O   UNL     1      -6.561 -10.651  14.397  0.00  0.00    -0.267 OA
ATOM      2  O   UNL     1      -3.965 -14.674  12.015  0.00  0.00    -0.275 OA
ATOM      4  N   UNL     1      -2.567 -12.838  12.282  0.00  0.00    -0.300 N 
ATOM      5  N   UNL     1      -4.291 -10.663  13.860  0.00  0.00    -0.311 N 
ATOM      6  C   UNL     1      -3.448 -10.657  11.443  0.00  0.00    +0.027 C 
ATOM      7  C   UNL     1      -1.836 -10.689  13.299  0.00  0.00    +0.054 C 
ATOM      8  C   UNL     1      -2.225  -9.954  12.017  0.00  0.00    +0.018 C 
ATOM      9  C   UNL     1      -3.127 -12.129  11.129  0.00  0.00    +0.113 C 
ATOM     10  C   UNL     1      -4.610 -10.519  12.433  0.00  0.00    +0.130 C 
ATOM     11  C   UNL     1      -1.463 -12.147  12.965  0.00  0.00    +0.117 C 
ATOM     12  C   UNL     1      -2.969 -10.666  14.308  0.00  0.00    +0.027 A 
ATOM     13  C   UNL     1      -2.703 -10.678  15.624  0.00  0.00    +0.022 A 
ATOM     14  C   UNL     1      -5.381 -10.687  14.752  0.00  0.00    +0.259 A 
ATOM     15  C   UNL     1      -3.037 -14.112  12.602  0.00  0.00    +0.220 C 
ATOM     16  C   UNL     1      -5.052 -10.738  16.220  0.00  0.00    +0.047 A 
ATOM     17  C   UNL     1      -3.763 -10.719  16.590  0.00  0.00    +0.015 A 
ENDROOT
BRANCH  16  19
ATOM     19  C   UNL     1      -6.114 -10.813  17.238  0.00  0.00    -0.012 A 
ATOM     21  C   UNL     1      -5.994 -11.699  18.309  0.00  0.00    +0.012 A 
ATOM     22  C   UNL     1      -7.241  -9.998  17.132  0.00  0.00    +0.012 A 
ATOM     25  C   UNL     1      -7.000 -11.769  19.273  0.00  0.00    +0.046 A 
ATOM     26  C   UNL     1      -8.248 -10.068  18.096  0.00  0.00    +0.046 A 
ATOM     27  C   UNL     1      -8.126 -10.955  19.167  0.00  0.00    +0.120 A 
BRANCH  27   3
ATOM      3  O   UNL     1      -9.108 -11.024  20.107  0.00  0.00    -0.495 OA
ATOM     31  C   UNL     1     -10.361 -10.423  19.784  0.00  0.00    +0.277 C 
ENDBRANCH  27   3
ENDBRANCH  16  19
BRANCH  15  18
ATOM     18  C   UNL     1      -2.354 -14.817  13.747  0.00  0.00    +0.131 C 
BRANCH  18  20
ATOM     20  C   UNL     1      -3.339 -15.149  14.824  0.00  0.00    -0.039 A 
ATOM     23  C   UNL     1      -3.367 -16.432  15.363  0.00  0.00    +0.004 A 
ATOM     24  C   UNL     1      -4.221 -14.174  15.280  0.00  0.00    +0.004 A 
ATOM     28  C   UNL     1      -4.285 -16.742  16.367  0.00  0.00    +0.000 A 
ATOM     29  C   UNL     1      -5.139 -14.484  16.283  0.00  0.00    +0.000 A 
ATOM     30  C   UNL     1      -5.171 -15.768  16.827  0.00  0.00    +0.000 A 
ENDBRANCH  18  20
ENDBRANCH  15  18
TORSDOF 4
ENDMDL
MODEL 5
REMARK VINA RESULT:      -6.5      2.963      7.892
REMARK  Name = 11885122
REMARK  5 active torsions:
REMARK  status: ('A' for Active; 'I' for Inactive)
REMARK    1  A    between atoms: O_3  and  C_27
REMARK    2  A    between atoms: O_3  and  C_31
REMARK    3  A    between atoms: C_15  and  C_18
REMARK    4  A    between atoms: C_16  and  C_19
REMARK    5  A    between atoms: C_18  and  C_20
REMARK                            x       y       z     vdW  Elec       q    Type
REMARK                         _______ _______ _______ _____ _____    ______ ____
ROOT
ATOM      1  O   UNL     1      12.093   7.895   1.981  0.00  0.00    -0.267 OA
ATOM      2  O   UNL     1      13.037   5.443  -2.676  0.00  0.00    -0.275 OA
ATOM      4  N   UNL     1      13.541   4.041  -0.893  0.00  0.00    -0.300 N 
ATOM      5  N   UNL     1      12.738   5.667   1.736  0.00  0.00    -0.311 N 
ATOM      6  C   UNL     1      15.046   4.991   0.858  0.00  0.00    +0.027 C 
ATOM      7  C   UNL     1      13.413   3.256   1.464  0.00  0.00    +0.054 C 
ATOM      8  C   UNL     1      14.845   3.736   1.698  0.00  0.00    +0.018 C 
ATOM      9  C   UNL     1      14.831   4.684  -0.633  0.00  0.00    +0.113 C 
ATOM     10  C   UNL     1      14.098   6.084   1.364  0.00  0.00    +0.130 C 
ATOM     11  C   UNL     1      13.225   2.898  -0.023  0.00  0.00    +0.117 C 
ATOM     12  C   UNL     1      12.408   4.317   1.869  0.00  0.00    +0.027 A 
ATOM     13  C   UNL     1      11.196   3.962   2.325  0.00  0.00    +0.022 A 
ATOM     14  C   UNL     1      11.827   6.694   2.053  0.00  0.00    +0.259 A 
ATOM     15  C   UNL     1      12.754   4.481  -1.958  0.00  0.00    +0.220 C 
ATOM     16  C   UNL     1      10.464   6.264   2.526  0.00  0.00    +0.047 A 
ATOM     17  C   UNL     1      10.211   4.953   2.652  0.00  0.00    +0.015 A 
ENDROOT
BRANCH  16  19
ATOM     19  C   UNL     1       9.419   7.254   2.841  0.00  0.00    -0.012 A 
ATOM     21  C   UNL     1       8.897   7.332   4.133  0.00  0.00    +0.012 A 
ATOM     22  C   UNL     1       8.949   8.113   1.847  0.00  0.00    +0.012 A 
ATOM     25  C   UNL     1       7.907   8.269   4.431  0.00  0.00    +0.046 A 
ATOM     26  C   UNL     1       7.959   9.049   2.145  0.00  0.00    +0.046 A 
ATOM     27  C   UNL     1       7.438   9.127   3.437  0.00  0.00    +0.120 A 
BRANCH  27   3
ATOM      3  O   UNL     1       6.472  10.040   3.727  0.00  0.00    -0.495 OA
ATOM     31  C   UNL     1       6.894  11.267   4.321  0.00  0.00    +0.277 C 
ENDBRANCH  27   3
ENDBRANCH  16  19
BRANCH  15  18
ATOM     18  C   UNL     1      11.480   3.716  -2.218  0.00  0.00    +0.131 C 
BRANCH  18  20
ATOM     20  C   UNL     1      10.320   4.653  -2.342  0.00  0.00    -0.039 A 
ATOM     23  C   UNL     1       9.538   4.637  -3.494  0.00  0.00    +0.004 A 
ATOM     24  C   UNL     1      10.028   5.535  -1.305  0.00  0.00    +0.004 A 
ATOM     28  C   UNL     1       8.457   5.511  -3.610  0.00  0.00    +0.000 A 
ATOM     29  C   UNL     1       8.947   6.408  -1.422  0.00  0.00    +0.000 A 
ATOM     30  C   UNL     1       8.161   6.396  -2.574  0.00  0.00    +0.000 A 
ENDBRANCH  18  20
ENDBRANCH  15  18
TORSDOF 4
ENDMDL
MODEL 6
REMARK VINA RESULT:      -6.4     24.817     27.469
REMARK  Name = 11885122
REMARK  5 active torsions:
REMARK  status: ('A' for Active; 'I' for Inactive)
REMARK    1  A    between atoms: O_3  and  C_27
REMARK    2  A    between atoms: O_3  and  C_31
REMARK    3  A    between atoms: C_15  and  C_18
REMARK    4  A    between atoms: C_16  and  C_19
REMARK    5  A    between atoms: C_18  and  C_20
REMARK                            x       y       z     vdW  Elec       q    Type
REMARK                         _______ _______ _______ _____ _____    ______ ____
ROOT
ATOM      1  O   UNL     1      -6.992  -9.918  14.139  0.00  0.00    -0.267 OA
ATOM      2  O   UNL     1      -6.554 -13.151   9.903  0.00  0.00    -0.275 OA
ATOM      4  N   UNL     1      -4.795 -11.635   9.963  0.00  0.00    -0.300 N 
ATOM      5  N   UNL     1      -5.199  -9.954  12.648  0.00  0.00    -0.311 N 
ATOM      6  C   UNL     1      -5.427  -9.231  10.202  0.00  0.00    +0.027 C 
ATOM      7  C   UNL     1      -3.255 -10.011  11.048  0.00  0.00    +0.054 C 
ATOM      8  C   UNL     1      -3.953  -8.865  10.317  0.00  0.00    +0.018 C 
ATOM      9  C   UNL     1      -5.599 -10.540   9.414  0.00  0.00    +0.113 C 
ATOM     10  C   UNL     1      -6.027  -9.322  11.611  0.00  0.00    +0.130 C 
ATOM     11  C   UNL     1      -3.385 -11.306  10.222  0.00  0.00    +0.117 C 
ATOM     12  C   UNL     1      -3.846 -10.219  12.429  0.00  0.00    +0.027 A 
ATOM     13  C   UNL     1      -3.080 -10.685  13.430  0.00  0.00    +0.022 A 
ATOM     14  C   UNL     1      -5.810 -10.172  13.898  0.00  0.00    +0.259 A 
ATOM     15  C   UNL     1      -5.368 -12.897  10.126  0.00  0.00    +0.220 C 
ATOM     16  C   UNL     1      -4.936 -10.729  14.989  0.00  0.00    +0.047 A 
ATOM     17  C   UNL     1      -3.639 -10.947  14.725  0.00  0.00    +0.015 A 
ENDROOT
BRANCH  16  19
ATOM     19  C   UNL     1      -5.482 -11.040  16.322  0.00  0.00    -0.012 A 
ATOM     21  C   UNL     1      -6.664 -11.772  16.439  0.00  0.00    +0.012 A 
ATOM     22  C   UNL     1      -4.818 -10.602  17.468  0.00  0.00    +0.012 A 
ATOM     25  C   UNL     1      -7.181 -12.065  17.701  0.00  0.00    +0.046 A 
ATOM     26  C   UNL     1      -5.335 -10.895  18.730  0.00  0.00    +0.046 A 
ATOM     27  C   UNL     1      -6.517 -11.627  18.846  0.00  0.00    +0.120 A 
BRANCH  27   3
ATOM      3  O   UNL     1      -7.022 -11.913  20.077  0.00  0.00    -0.495 OA
ATOM     31  C   UNL     1      -8.119 -12.823  20.135  0.00  0.00    +0.277 C 
ENDBRANCH  27   3
ENDBRANCH  16  19
BRANCH  15  18
ATOM     18  C   UNL     1      -4.457 -13.995  10.614  0.00  0.00    +0.131 C 
BRANCH  18  20
ATOM     20  C   UNL     1      -4.569 -14.151  12.098  0.00  0.00    -0.039 A 
ATOM     23  C   UNL     1      -3.424 -14.376  12.858  0.00  0.00    +0.004 A 
ATOM     24  C   UNL     1      -5.815 -14.070  12.711  0.00  0.00    +0.004 A 
ATOM     28  C   UNL     1      -3.527 -14.522  14.241  0.00  0.00    +0.000 A 
ATOM     29  C   UNL     1      -5.919 -14.217  14.094  0.00  0.00    +0.000 A 
ATOM     30  C   UNL     1      -4.775 -14.442  14.859  0.00  0.00    +0.000 A 
ENDBRANCH  18  20
ENDBRANCH  15  18
TORSDOF 4
ENDMDL
MODEL 7
REMARK VINA RESULT:      -6.3      2.934      8.303
REMARK  Name = 11885122
REMARK  5 active torsions:
REMARK  status: ('A' for Active; 'I' for Inactive)
REMARK    1  A    between atoms: O_3  and  C_27
REMARK    2  A    between atoms: O_3  and  C_31
REMARK    3  A    between atoms: C_15  and  C_18
REMARK    4  A    between atoms: C_16  and  C_19
REMARK    5  A    between atoms: C_18  and  C_20
REMARK                            x       y       z     vdW  Elec       q    Type
REMARK                         _______ _______ _______ _____ _____    ______ ____
ROOT
ATOM      1  O   UNL     1      12.775   7.385   3.354  0.00  0.00    -0.267 OA
ATOM      2  O   UNL     1      11.147   7.155  -1.734  0.00  0.00    -0.275 OA
ATOM      4  N   UNL     1      12.046   5.119  -1.067  0.00  0.00    -0.300 N 
ATOM      5  N   UNL     1      12.777   5.471   2.022  0.00  0.00    -0.311 N 
ATOM      6  C   UNL     1      14.309   5.212  -0.014  0.00  0.00    +0.027 C 
ATOM      7  C   UNL     1      12.757   3.402   0.586  0.00  0.00    +0.054 C 
ATOM      8  C   UNL     1      14.220   3.720   0.283  0.00  0.00    +0.018 C 
ATOM      9  C   UNL     1      13.429   5.575  -1.223  0.00  0.00    +0.113 C 
ATOM     10  C   UNL     1      13.910   5.992   1.244  0.00  0.00    +0.130 C 
ATOM     11  C   UNL     1      11.893   3.717  -0.651  0.00  0.00    +0.117 C 
ATOM     12  C   UNL     1      12.259   4.197   1.778  0.00  0.00    +0.027 A 
ATOM     13  C   UNL     1      11.305   3.694   2.577  0.00  0.00    +0.022 A 
ATOM     14  C   UNL     1      12.320   6.272   3.086  0.00  0.00    +0.259 A 
ATOM     15  C   UNL     1      10.996   5.981  -1.387  0.00  0.00    +0.220 C 
ATOM     16  C   UNL     1      11.224   5.695   3.942  0.00  0.00    +0.047 A 
ATOM     17  C   UNL     1      10.779   4.459   3.671  0.00  0.00    +0.015 A 
ENDROOT
BRANCH  16  19
ATOM     19  C   UNL     1      10.639   6.465   5.054  0.00  0.00    -0.012 A 
ATOM     21  C   UNL     1      11.307   6.546   6.276  0.00  0.00    +0.012 A 
ATOM     22  C   UNL     1       9.415   7.114   4.885  0.00  0.00    +0.012 A 
ATOM     25  C   UNL     1      10.752   7.274   7.328  0.00  0.00    +0.046 A 
ATOM     26  C   UNL     1       8.860   7.843   5.937  0.00  0.00    +0.046 A 
ATOM     27  C   UNL     1       9.529   7.923   7.159  0.00  0.00    +0.120 A 
BRANCH  27   3
ATOM      3  O   UNL     1       8.988   8.633   8.186  0.00  0.00    -0.495 OA
ATOM     31  C   UNL     1       9.522   9.934   8.430  0.00  0.00    +0.277 C 
ENDBRANCH  27   3
ENDBRANCH  16  19
BRANCH  15  18
ATOM     18  C   UNL     1       9.602   5.415  -1.285  0.00  0.00    +0.131 C 
BRANCH  18  20
ATOM     20  C   UNL     1       8.936   5.411  -2.625  0.00  0.00    -0.039 A 
ATOM     23  C   UNL     1       9.378   4.536  -3.614  0.00  0.00    +0.004 A 
ATOM     24  C   UNL     1       7.879   6.281  -2.875  0.00  0.00    +0.004 A 
ATOM     28  C   UNL     1       8.758   4.533  -4.864  0.00  0.00    +0.000 A 
ATOM     29  C   UNL     1       7.259   6.277  -4.125  0.00  0.00    +0.000 A 
ATOM     30  C   UNL     1       7.698   5.403  -5.119  0.00  0.00    +0.000 A 
ENDBRANCH  18  20
ENDBRANCH  15  18
TORSDOF 4
ENDMDL
MODEL 8
REMARK VINA RESULT:      -6.2     32.278     34.588
REMARK  Name = 11885122
REMARK  5 active torsions:
REMARK  status: ('A' for Active; 'I' for Inactive)
REMARK    1  A    between atoms: O_3  and  C_27
REMARK    2  A    between atoms: O_3  and  C_31
REMARK    3  A    between atoms: C_15  and  C_18
REMARK    4  A    between atoms: C_16  and  C_19
REMARK    5  A    between atoms: C_18  and  C_20
REMARK                            x       y       z     vdW  Elec       q    Type
REMARK                         _______ _______ _______ _____ _____    ______ ____
ROOT
ATOM      1  O   UNL     1       9.311  -9.584  33.215  0.00  0.00    -0.267 OA
ATOM      2  O   UNL     1       8.074  -7.912  38.141  0.00  0.00    -0.275 OA
ATOM      4  N   UNL     1       8.118  -6.127  36.655  0.00  0.00    -0.300 N 
ATOM      5  N   UNL     1       8.707  -7.406  33.789  0.00  0.00    -0.311 N 
ATOM      6  C   UNL     1      10.178  -5.912  35.259  0.00  0.00    +0.027 C 
ATOM      7  C   UNL     1       8.034  -5.060  34.409  0.00  0.00    +0.054 C 
ATOM      8  C   UNL     1       9.530  -4.762  34.498  0.00  0.00    +0.018 C 
ATOM      9  C   UNL     1       9.580  -6.030  36.671  0.00  0.00    +0.113 C 
ATOM     10  C   UNL     1      10.004  -7.202  34.450  0.00  0.00    +0.130 C 
ATOM     11  C   UNL     1       7.434  -5.121  35.828  0.00  0.00    +0.117 C 
ATOM     12  C   UNL     1       7.779  -6.368  33.686  0.00  0.00    +0.027 A 
ATOM     13  C   UNL     1       6.652  -6.540  32.975  0.00  0.00    +0.022 A 
ATOM     14  C   UNL     1       8.500  -8.657  33.176  0.00  0.00    +0.259 A 
ATOM     15  C   UNL     1       7.481  -7.076  37.455  0.00  0.00    +0.220 C 
ATOM     16  C   UNL     1       7.212  -8.832  32.417  0.00  0.00    +0.047 A 
ATOM     17  C   UNL     1       6.367  -7.794  32.337  0.00  0.00    +0.015 A 
ENDROOT
BRANCH  16  19
ATOM     19  C   UNL     1       6.872 -10.114  31.776  0.00  0.00    -0.012 A 
ATOM     21  C   UNL     1       6.404 -11.179  32.547  0.00  0.00    +0.012 A 
ATOM     22  C   UNL     1       7.018 -10.265  30.397  0.00  0.00    +0.012 A 
ATOM     25  C   UNL     1       6.083 -12.393  31.940  0.00  0.00    +0.046 A 
ATOM     26  C   UNL     1       6.696 -11.479  29.789  0.00  0.00    +0.046 A 
ATOM     27  C   UNL     1       6.228 -12.543  30.561  0.00  0.00    +0.120 A 
BRANCH  27   3
ATOM      3  O   UNL     1       5.915 -13.727  29.969  0.00  0.00    -0.495 OA
ATOM     31  C   UNL     1       4.529 -14.019  29.793  0.00  0.00    +0.277 C 
ENDBRANCH  27   3
ENDBRANCH  16  19
BRANCH  15  18
ATOM     18  C   UNL     1       5.973  -7.060  37.452  0.00  0.00    +0.131 C 
BRANCH  18  20
ATOM     20  C   UNL     1       5.433  -8.395  37.047  0.00  0.00    -0.039 A 
ATOM     23  C   UNL     1       5.489  -8.787  35.712  0.00  0.00    +0.004 A 
ATOM     24  C   UNL     1       4.876  -9.237  38.005  0.00  0.00    +0.004 A 
ATOM     28  C   UNL     1       4.985 -10.031  35.333  0.00  0.00    +0.000 A 
ATOM     29  C   UNL     1       4.372 -10.481  37.626  0.00  0.00    +0.000 A 
ATOM     30  C   UNL     1       4.426 -10.878  36.290  0.00  0.00    +0.000 A 
ENDBRANCH  18  20
ENDBRANCH  15  18
TORSDOF 4
ENDMDL
MODEL 9
REMARK VINA RESULT:      -6.2      2.596      4.026
REMARK  Name = 11885122
REMARK  5 active torsions:
REMARK  status: ('A' for Active; 'I' for Inactive)
REMARK    1  A    between atoms: O_3  and  C_27
REMARK    2  A    between atoms: O_3  and  C_31
REMARK    3  A    between atoms: C_15  and  C_18
REMARK    4  A    between atoms: C_16  and  C_19
REMARK    5  A    between atoms: C_18  and  C_20
REMARK                            x       y       z     vdW  Elec       q    Type
REMARK                         _______ _______ _______ _____ _____    ______ ____
ROOT
ATOM      1  O   UNL     1      11.926   8.546   2.564  0.00  0.00    -0.267 OA
ATOM      2  O   UNL     1      11.349   8.653   7.879  0.00  0.00    -0.275 OA
ATOM      4  N   UNL     1       9.988  10.245   6.874  0.00  0.00    -0.300 N 
ATOM      5  N   UNL     1      10.391   9.861   3.729  0.00  0.00    -0.311 N 
ATOM      6  C   UNL     1      11.109  11.785   5.259  0.00  0.00    +0.027 C 
ATOM      7  C   UNL     1       8.722  11.263   4.990  0.00  0.00    +0.054 C 
ATOM      8  C   UNL     1       9.754  12.387   4.907  0.00  0.00    +0.018 C 
ATOM      9  C   UNL     1      11.086  11.195   6.679  0.00  0.00    +0.113 C 
ATOM     10  C   UNL     1      11.475  10.735   4.204  0.00  0.00    +0.130 C 
ATOM     11  C   UNL     1       8.668  10.717   6.431  0.00  0.00    +0.117 C 
ATOM     12  C   UNL     1       9.056  10.141   4.026  0.00  0.00    +0.027 A 
ATOM     13  C   UNL     1       8.076   9.400   3.484  0.00  0.00    +0.022 A 
ATOM     14  C   UNL     1      10.761   8.803   2.877  0.00  0.00    +0.259 A 
ATOM     15  C   UNL     1      10.232   9.030   7.515  0.00  0.00    +0.220 C 
ATOM     16  C   UNL     1       9.643   7.968   2.314  0.00  0.00    +0.047 A 
ATOM     17  C   UNL     1       8.379   8.295   2.619  0.00  0.00    +0.015 A 
ENDROOT
BRANCH  16  19
ATOM     19  C   UNL     1       9.918   6.807   1.449  0.00  0.00    -0.012 A 
ATOM     21  C   UNL     1       9.898   6.949   0.061  0.00  0.00    +0.012 A 
ATOM     22  C   UNL     1      10.198   5.564   2.017  0.00  0.00    +0.012 A 
ATOM     25  C   UNL     1      10.158   5.850  -0.758  0.00  0.00    +0.046 A 
ATOM     26  C   UNL     1      10.457   4.464   1.199  0.00  0.00    +0.046 A 
ATOM     27  C   UNL     1      10.438   4.608  -0.189  0.00  0.00    +0.120 A 
BRANCH  27   3
ATOM      3  O   UNL     1      10.691   3.536  -0.988  0.00  0.00    -0.495 OA
ATOM     31  C   UNL     1      10.991   3.801  -2.357  0.00  0.00    +0.277 C 
ENDBRANCH  27   3
ENDBRANCH  16  19
BRANCH  15  18
ATOM     18  C   UNL     1       9.039   8.142   7.758  0.00  0.00    +0.131 C 
BRANCH  18  20
ATOM     20  C   UNL     1       9.302   6.757   7.254  0.00  0.00    -0.039 A 
ATOM     23  C   UNL     1       9.547   5.727   8.158  0.00  0.00    +0.004 A 
ATOM     24  C   UNL     1       9.301   6.507   5.885  0.00  0.00    +0.004 A 
ATOM     28  C   UNL     1       9.793   4.437   7.689  0.00  0.00    +0.000 A 
ATOM     29  C   UNL     1       9.547   5.216   5.416  0.00  0.00    +0.000 A 
ATOM     30  C   UNL     1       9.792   4.181   6.318  0.00  0.00    +0.000 A 
ENDBRANCH  18  20
ENDBRANCH  15  18
TORSDOF 4
ENDMDL
MODEL 10
REMARK VINA RESULT:      -6.2      3.390      5.904
REMARK  Name = 11885122
REMARK  5 active torsions:
REMARK  status: ('A' for Active; 'I' for Inactive)
REMARK    1  A    between atoms: O_3  and  C_27
REMARK    2  A    between atoms: O_3  and  C_31
REMARK    3  A    between atoms: C_15  and  C_18
REMARK    4  A    between atoms: C_16  and  C_19
REMARK    5  A    between atoms: C_18  and  C_20
REMARK                            x       y       z     vdW  Elec       q    Type
REMARK                         _______ _______ _______ _____ _____    ______ ____
ROOT
ATOM      1  O   UNL     1      12.881   8.209   3.728  0.00  0.00    -0.267 OA
ATOM      2  O   UNL     1       8.887  10.609   6.351  0.00  0.00    -0.275 OA
ATOM      4  N   UNL     1       8.892   8.324   6.776  0.00  0.00    -0.300 N 
ATOM      5  N   UNL     1      11.445   7.170   5.244  0.00  0.00    -0.311 N 
ATOM      6  C   UNL     1       8.951   6.836   4.771  0.00  0.00    +0.027 C 
ATOM      7  C   UNL     1       9.906   6.056   6.898  0.00  0.00    +0.054 C 
ATOM      8  C   UNL     1       9.081   5.625   5.687  0.00  0.00    +0.018 C 
ATOM      9  C   UNL     1       8.249   7.993   5.502  0.00  0.00    +0.113 C 
ATOM     10  C   UNL     1      10.345   7.232   4.271  0.00  0.00    +0.130 C 
ATOM     11  C   UNL     1       9.167   7.177   7.654  0.00  0.00    +0.117 C 
ATOM     12  C   UNL     1      11.282   6.539   6.479  0.00  0.00    +0.027 A 
ATOM     13  C   UNL     1      12.332   6.388   7.303  0.00  0.00    +0.022 A 
ATOM     14  C   UNL     1      12.690   7.677   4.824  0.00  0.00    +0.259 A 
ATOM     15  C   UNL     1       9.124   9.661   7.104  0.00  0.00    +0.220 C 
ATOM     16  C   UNL     1      13.839   7.526   5.783  0.00  0.00    +0.047 A 
ATOM     17  C   UNL     1      13.627   6.895   6.947  0.00  0.00    +0.015 A 
ENDROOT
BRANCH  16  19
ATOM     19  C   UNL     1      15.175   8.062   5.466  0.00  0.00    -0.012 A 
ATOM     21  C   UNL     1      15.682   9.146   6.183  0.00  0.00    +0.012 A 
ATOM     22  C   UNL     1      15.933   7.486   4.446  0.00  0.00    +0.012 A 
ATOM     25  C   UNL     1      16.946   9.653   5.882  0.00  0.00    +0.046 A 
ATOM     26  C   UNL     1      17.197   7.993   4.144  0.00  0.00    +0.046 A 
ATOM     27  C   UNL     1      17.704   9.077   4.863  0.00  0.00    +0.120 A 
BRANCH  27   3
ATOM      3  O   UNL     1      18.936   9.572   4.568  0.00  0.00    -0.495 OA
ATOM     31  C   UNL     1      20.057   8.925   5.169  0.00  0.00    +0.277 C 
ENDBRANCH  27   3
ENDBRANCH  16  19
BRANCH  15  18
ATOM     18  C   UNL     1       9.710   9.930   8.467  0.00  0.00    +0.131 C 
BRANCH  18  20
ATOM     20  C   UNL     1      10.984  10.706   8.349  0.00  0.00    -0.039 A 
ATOM     23  C   UNL     1      11.980  10.271   7.479  0.00  0.00    +0.004 A 
ATOM     24  C   UNL     1      11.167  11.857   9.109  0.00  0.00    +0.004 A 
ATOM     28  C   UNL     1      13.169  10.993   7.369  0.00  0.00    +0.000 A 
ATOM     29  C   UNL     1      12.355  12.580   8.999  0.00  0.00    +0.000 A 
ATOM     30  C   UNL     1      13.355  12.148   8.129  0.00  0.00    +0.000 A 
ENDBRANCH  18  20
ENDBRANCH  15  18
TORSDOF 4
ENDMDL
