REMARK  Name = 11886118
REMARK  5 active torsions:
REMARK  status: ('A' for Active; 'I' for Inactive)
REMARK    1  A    between atoms: N_7  and  C_15
REMARK    2  A    between atoms: N_8  and  C_16
REMARK    3  A    between atoms: N_12  and  C_24
REMARK    4  A    between atoms: C_19  and  C_21
REMARK    5  A    between atoms: C_30  and  C_33
REMARK                            x       y       z     vdW  Elec       q    Type
REMARK                         _______ _______ _______ _____ _____    ______ ____
ROOT
ATOM      4  O   UNL     1       2.008   3.003   0.140  0.00  0.00    -0.370 OA
ATOM      5  O   UNL     1       2.085   0.487   2.025  0.00  0.00    -0.370 OA
ATOM     13  C   UNL     1       2.170   0.669   0.600  0.00  0.00    +0.176 C 
ATOM     14  C   UNL     1       1.228   1.801   0.236  0.00  0.00    +0.171 C 
ATOM     15  C   UNL     1       3.548   1.181   0.226  0.00  0.00    +0.168 C 
ATOM     16  C   UNL     1       0.277   1.886   1.409  0.00  0.00    +0.131 C 
ATOM     17  C   UNL     1       3.394   2.693   0.336  0.00  0.00    +0.190 C 
ATOM     18  C   UNL     1       1.145   1.426   2.564  0.00  0.00    +0.185 C 
ENDROOT
BRANCH  16   8
ATOM      6  O   UNL     1      -2.276   2.595   0.318  0.00  0.00    -0.252 OA
ATOM      8  N   UNL     1      -0.857   1.012   1.226  0.00  0.00    -0.292 N 
ATOM     12  N   UNL     1      -2.982   0.378   0.629  0.00  0.00    -0.269 N 
ATOM     20  C   UNL     1      -2.074   1.440   0.683  0.00  0.00    +0.304 C 
ATOM     34  H   UNL     1      -0.745   0.026   1.441  0.00  0.00    +0.151 HD
ATOM     35  H   UNL     1      -2.654  -0.520   0.976  0.00  0.00    +0.156 HD
BRANCH  12  24
ATOM     24  C   UNL     1      -4.313   0.398   0.149  0.00  0.00    +0.035 A 
ATOM     27  C   UNL     1      -5.062  -0.767   0.180  0.00  0.00    +0.035 A 
ATOM     29  C   UNL     1      -4.839   1.582  -0.340  0.00  0.00    +0.023 A 
ATOM     30  C   UNL     1      -6.375  -0.747  -0.291  0.00  0.00    +0.057 A 
ATOM     31  C   UNL     1      -6.152   1.602  -0.812  0.00  0.00    +0.002 A 
ATOM     32  C   UNL     1      -6.920   0.438  -0.788  0.00  0.00    +0.012 A 
BRANCH  30  33
ATOM      1  F   UNL     1      -6.663  -3.014  -0.996  0.00  0.00    -0.166 F 
ATOM      2  F   UNL     1      -8.460  -1.824  -0.756  0.00  0.00    -0.166 F 
ATOM      3  F   UNL     1      -7.357  -2.487   0.997  0.00  0.00    -0.166 F 
ATOM     33  C   UNL     1      -7.197  -1.991  -0.265  0.00  0.00    +0.417 C 
ENDBRANCH  30  33
ENDBRANCH  12  24
ENDBRANCH  16   8
BRANCH  15   7
ATOM      7  N   UNL     1       3.992   0.696  -1.084  0.00  0.00    -0.217 N 
ATOM      9  N   UNL     1       3.683   1.370  -2.196  0.00  0.00    -0.043 NA
ATOM     10  N   UNL     1       4.879  -0.446  -2.691  0.00  0.00    -0.108 NA
ATOM     11  N   UNL     1       4.230   0.665  -3.180  0.00  0.00    -0.023 NA
ATOM     19  C   UNL     1       4.718  -0.406  -1.388  0.00  0.00    +0.182 A 
BRANCH  19  21
ATOM     21  C   UNL     1       5.214  -1.354  -0.424  0.00  0.00    +0.021 A 
ATOM     22  C   UNL     1       6.473  -1.174   0.151  0.00  0.00    +0.011 A 
ATOM     23  C   UNL     1       4.436  -2.455  -0.062  0.00  0.00    +0.011 A 
ATOM     25  C   UNL     1       6.953  -2.092   1.085  0.00  0.00    +0.001 A 
ATOM     26  C   UNL     1       4.917  -3.373   0.872  0.00  0.00    +0.001 A 
ATOM     28  C   UNL     1       6.175  -3.192   1.446  0.00  0.00    +0.000 A 
ENDBRANCH  19  21
ENDBRANCH  15   7
TORSDOF 5
