REMARK  Name = 45784357
REMARK  5 active torsions:
REMARK  status: ('A' for Active; 'I' for Inactive)
REMARK    1  A    between atoms: O_3  and  C_23
REMARK    2  A    between atoms: O_3  and  C_24
REMARK    3  A    between atoms: N_5  and  C_7
REMARK    4  A    between atoms: C_8  and  C_14
REMARK    5  A    between atoms: C_19  and  C_23
REMARK                            x       y       z     vdW  Elec       q    Type
REMARK                         _______ _______ _______ _____ _____    ______ ____
ROOT
ATOM      2  O   UNL     1      -1.166   0.371   0.284  0.00  0.00    -0.439 OA
ATOM      6  N   UNL     1      -1.593   2.550  -0.171  0.00  0.00    -0.213 NA
ATOM     14  C   UNL     1      -0.707   1.651   0.197  0.00  0.00    +0.201 A 
ATOM     17  C   UNL     1      -2.481   0.478  -0.068  0.00  0.00    +0.169 A 
ATOM     18  C   UNL     1      -2.739   1.812  -0.346  0.00  0.00    +0.110 A 
ATOM     19  C   UNL     1      -3.421  -0.543  -0.145  0.00  0.00    +0.103 A 
ATOM     20  C   UNL     1      -4.033   2.186  -0.735  0.00  0.00    +0.031 A 
ATOM     21  C   UNL     1      -4.707  -0.153  -0.535  0.00  0.00    +0.019 A 
ATOM     22  C   UNL     1      -5.010   1.183  -0.824  0.00  0.00    +0.003 A 
ENDROOT
BRANCH  14   8
ATOM      5  N   UNL     1       2.843   0.795   0.495  0.00  0.00    -0.298 NA
ATOM      8  C   UNL     1       0.751   1.854   0.538  0.00  0.00    +0.090 C 
ATOM      9  C   UNL     1       1.695   1.060  -0.375  0.00  0.00    +0.097 C 
ATOM     10  C   UNL     1       2.262   0.414   1.782  0.00  0.00    +0.085 C 
ATOM     11  C   UNL     1       1.146   1.435   1.965  0.00  0.00    +0.029 C 
BRANCH   5   7
ATOM      1  O   UNL     1       6.350  -1.023  -0.927  0.00  0.00    -0.380 OA
ATOM      7  C   UNL     1       3.725  -0.237  -0.045  0.00  0.00    +0.061 C 
ATOM     12  C   UNL     1       4.307   0.208  -1.389  0.00  0.00    +0.047 C 
ATOM     13  C   UNL     1       4.857  -0.562   0.934  0.00  0.00    +0.047 C 
ATOM     15  C   UNL     1       5.320  -0.813  -1.893  0.00  0.00    +0.161 C 
ATOM     16  C   UNL     1       5.840  -1.541   0.302  0.00  0.00    +0.161 C 
ENDBRANCH   5   7
ENDBRANCH  14   8
BRANCH  19  23
ATOM      4  O   UNL     1      -1.974  -2.322   0.506  0.00  0.00    -0.245 OA
ATOM     23  C   UNL     1      -3.096  -1.922   0.157  0.00  0.00    +0.343 C 
BRANCH  23   3
ATOM      3  O   UNL     1      -4.182  -2.744   0.012  0.00  0.00    -0.464 OA
ATOM     24  C   UNL     1      -3.987  -4.136   0.284  0.00  0.00    +0.280 C 
ENDBRANCH  23   3
ENDBRANCH  19  23
TORSDOF 4
