MODEL 1
REMARK VINA RESULT:      -6.7      0.000      0.000
REMARK  Name = 45361700
REMARK  10 active torsions:
REMARK  status: ('A' for Active; 'I' for Inactive)
REMARK    1  A    between atoms: N_7  and  C_21
REMARK    2  A    between atoms: N_9  and  C_37
REMARK    3  A    between atoms: N_9  and  C_38
REMARK    4  A    between atoms: N_9  and  C_39
REMARK    5  A    between atoms: C_10  and  C_14
REMARK    6  A    between atoms: C_13  and  C_22
REMARK    7  A    between atoms: C_14  and  C_21
REMARK    8  A    between atoms: C_17  and  C_29
REMARK    9  A    between atoms: C_21  and  C_30
REMARK   10  A    between atoms: C_31  and  C_32
REMARK                            x       y       z     vdW  Elec       q    Type
REMARK                         _______ _______ _______ _____ _____    ______ ____
ROOT
ATOM      1  O   UNL     1      -1.733 -10.808  11.960  0.00  0.00    -0.275 OA
ATOM      4  O   UNL     1      -3.875 -12.231  18.302  0.00  0.00    -0.270 OA
ATOM      5  N   UNL     1      -3.382 -10.912  13.600  0.00  0.00    -0.287 N 
ATOM      6  N   UNL     1      -4.088 -10.958  16.354  0.00  0.00    -0.294 N 
ATOM     17  C   UNL     1      -2.484 -11.556  14.571  0.00  0.00    +0.179 C 
ATOM     22  C   UNL     1      -2.908 -10.661  12.308  0.00  0.00    +0.219 C 
ATOM     26  C   UNL     1      -2.673 -11.047  16.000  0.00  0.00    +0.140 C 
ATOM     27  C   UNL     1      -4.786 -10.737  14.015  0.00  0.00    +0.127 C 
ATOM     28  C   UNL     1      -4.889 -10.160  15.422  0.00  0.00    +0.127 C 
ATOM     31  C   UNL     1      -4.553 -11.562  17.523  0.00  0.00    +0.247 C 
ENDROOT
BRANCH  22  13
ATOM     13  C   UNL     1      -3.913 -10.181  11.305  0.00  0.00    +0.075 C 
ATOM     19  C   UNL     1      -4.530 -11.387  10.594  0.00  0.00    +0.013 C 
ATOM     20  C   UNL     1      -3.244  -9.228  10.314  0.00  0.00    +0.013 C 
ATOM     23  C   UNL     1      -5.493 -10.955   9.491  0.00  0.00    +0.001 C 
ATOM     24  C   UNL     1      -4.211  -8.797   9.214  0.00  0.00    +0.001 C 
ATOM     25  C   UNL     1      -4.826 -10.000   8.504  0.00  0.00    +0.000 C 
ENDBRANCH  22  13
BRANCH  31  32
ATOM     32  C   UNL     1      -5.974 -11.413  17.861  0.00  0.00    +0.037 A 
ATOM     33  C   UNL     1      -6.373 -10.463  18.801  0.00  0.00    +0.015 A 
ATOM     34  C   UNL     1      -6.926 -12.223  17.241  0.00  0.00    +0.015 A 
ATOM     35  C   UNL     1      -7.722 -10.323  19.123  0.00  0.00    +0.024 A 
ATOM     36  C   UNL     1      -8.277 -12.083  17.564  0.00  0.00    +0.024 A 
ATOM     37  C   UNL     1      -8.674 -11.133  18.504  0.00  0.00    +0.029 A 
BRANCH  37   9
ATOM      9  N   UNL     1     -10.039 -10.991  18.828  0.00  0.00    -0.336 N 
ATOM     38  C   UNL     1     -11.064 -11.431  17.902  0.00  0.00    +0.129 C 
ATOM     39  C   UNL     1     -10.437 -10.398  20.089  0.00  0.00    +0.129 C 
ENDBRANCH  37   9
ENDBRANCH  31  32
BRANCH  17  29
ATOM      2  O   UNL     1      -3.546 -13.601  15.205  0.00  0.00    -0.274 OA
ATOM      7  N   UNL     1      -1.960 -13.635  13.501  0.00  0.00    -0.302 N 
ATOM     29  C   UNL     1      -2.741 -13.032  14.472  0.00  0.00    +0.236 C 
ATOM     40  H   UNL     1      -1.306 -13.072  12.966  0.00  0.00    +0.150 HD
BRANCH   7  21
ATOM     21  C   UNL     1      -2.001 -15.053  13.222  0.00  0.00    +0.159 C 
BRANCH  21  30
ATOM      3  O   UNL     1      -0.571 -16.526  14.521  0.00  0.00    -0.274 OA
ATOM      8  N   UNL     1       0.403 -15.147  12.964  0.00  0.00    -0.328 N 
ATOM     30  C   UNL     1      -0.675 -15.671  13.645  0.00  0.00    +0.231 C 
ATOM     41  H   UNL     1       1.346 -15.469  13.157  0.00  0.00    +0.145 HD
ATOM     42  H   UNL     1       0.305 -14.427  12.256  0.00  0.00    +0.145 HD
ENDBRANCH  21  30
BRANCH  21  14
ATOM     14  C   UNL     1      -2.353 -15.345  11.760  0.00  0.00    +0.035 C 
BRANCH  14  10
ATOM     10  C   UNL     1      -3.712 -14.802  11.322  0.00  0.00    -0.009 C 
ATOM     11  C   UNL     1      -4.821 -15.300  12.256  0.00  0.00    +0.003 C 
ATOM     12  C   UNL     1      -4.007 -15.192   9.867  0.00  0.00    +0.003 C 
ATOM     15  C   UNL     1      -6.198 -14.813  11.808  0.00  0.00    +0.000 C 
ATOM     16  C   UNL     1      -5.385 -14.704   9.422  0.00  0.00    +0.000 C 
ATOM     18  C   UNL     1      -6.485 -15.194  10.359  0.00  0.00    +0.000 C 
ENDBRANCH  14  10
ENDBRANCH  21  14
ENDBRANCH   7  21
ENDBRANCH  17  29
TORSDOF 8
ENDMDL
MODEL 2
REMARK VINA RESULT:      -6.6      2.568      4.055
REMARK  Name = 45361700
REMARK  10 active torsions:
REMARK  status: ('A' for Active; 'I' for Inactive)
REMARK    1  A    between atoms: N_7  and  C_21
REMARK    2  A    between atoms: N_9  and  C_37
REMARK    3  A    between atoms: N_9  and  C_38
REMARK    4  A    between atoms: N_9  and  C_39
REMARK    5  A    between atoms: C_10  and  C_14
REMARK    6  A    between atoms: C_13  and  C_22
REMARK    7  A    between atoms: C_14  and  C_21
REMARK    8  A    between atoms: C_17  and  C_29
REMARK    9  A    between atoms: C_21  and  C_30
REMARK   10  A    between atoms: C_31  and  C_32
REMARK                            x       y       z     vdW  Elec       q    Type
REMARK                         _______ _______ _______ _____ _____    ______ ____
ROOT
ATOM      1  O   UNL     1      -5.933  -9.263  12.797  0.00  0.00    -0.275 OA
ATOM      4  O   UNL     1      -6.571 -10.353  19.523  0.00  0.00    -0.270 OA
ATOM      5  N   UNL     1      -6.913 -10.317  14.626  0.00  0.00    -0.287 N 
ATOM      6  N   UNL     1      -7.545 -10.310  17.399  0.00  0.00    -0.294 N 
ATOM     17  C   UNL     1      -5.989  -9.687  15.582  0.00  0.00    +0.179 C 
ATOM     22  C   UNL     1      -6.730 -10.083  13.259  0.00  0.00    +0.219 C 
ATOM     26  C   UNL     1      -6.664  -9.263  16.887  0.00  0.00    +0.140 C 
ATOM     27  C   UNL     1      -7.866 -11.297  15.179  0.00  0.00    +0.127 C 
ATOM     28  C   UNL     1      -8.548 -10.771  16.436  0.00  0.00    +0.127 C 
ATOM     31  C   UNL     1      -7.417 -10.745  18.719  0.00  0.00    +0.247 C 
ENDROOT
BRANCH  22  13
ATOM     13  C   UNL     1      -7.573 -10.893  12.321  0.00  0.00    +0.075 C 
ATOM     19  C   UNL     1      -6.942 -12.275  12.143  0.00  0.00    +0.013 C 
ATOM     20  C   UNL     1      -7.711 -10.162  10.985  0.00  0.00    +0.013 C 
ATOM     23  C   UNL     1      -7.706 -13.112  11.120  0.00  0.00    +0.001 C 
ATOM     24  C   UNL     1      -8.477 -11.003   9.965  0.00  0.00    +0.001 C 
ATOM     25  C   UNL     1      -7.847 -12.382   9.787  0.00  0.00    +0.000 C 
ENDBRANCH  22  13
BRANCH  31  32
ATOM     32  C   UNL     1      -8.349 -11.770  19.204  0.00  0.00    +0.037 A 
ATOM     33  C   UNL     1      -9.544 -11.393  19.817  0.00  0.00    +0.015 A 
ATOM     34  C   UNL     1      -8.039 -13.121  19.052  0.00  0.00    +0.015 A 
ATOM     35  C   UNL     1     -10.429 -12.366  20.278  0.00  0.00    +0.024 A 
ATOM     36  C   UNL     1      -8.925 -14.096  19.515  0.00  0.00    +0.024 A 
ATOM     37  C   UNL     1     -10.119 -13.718  20.128  0.00  0.00    +0.029 A 
BRANCH  37   9
ATOM      9  N   UNL     1     -11.014 -14.704  20.593  0.00  0.00    -0.336 N 
ATOM     38  C   UNL     1     -10.619 -15.613  21.651  0.00  0.00    +0.129 C 
ATOM     39  C   UNL     1     -12.338 -14.824  20.018  0.00  0.00    +0.129 C 
ENDBRANCH  37   9
ENDBRANCH  31  32
BRANCH  17  29
ATOM      2  O   UNL     1      -4.950 -11.503  16.737  0.00  0.00    -0.274 OA
ATOM      7  N   UNL     1      -3.840 -10.528  14.938  0.00  0.00    -0.302 N 
ATOM     29  C   UNL     1      -4.890 -10.680  15.827  0.00  0.00    +0.236 C 
ATOM     40  H   UNL     1      -3.883  -9.795  14.235  0.00  0.00    +0.150 HD
BRANCH   7  21
ATOM     21  C   UNL     1      -2.649 -11.346  14.974  0.00  0.00    +0.159 C 
BRANCH  21  30
ATOM      3  O   UNL     1      -0.792  -9.895  15.568  0.00  0.00    -0.274 OA
ATOM      8  N   UNL     1      -1.772 -11.151  17.222  0.00  0.00    -0.328 N 
ATOM     30  C   UNL     1      -1.645 -10.704  15.923  0.00  0.00    +0.231 C 
ATOM     41  H   UNL     1      -1.157 -10.808  17.952  0.00  0.00    +0.145 HD
ATOM     42  H   UNL     1      -2.468 -11.835  17.499  0.00  0.00    +0.145 HD
ENDBRANCH  21  30
BRANCH  21  14
ATOM     14  C   UNL     1      -2.071 -11.589  13.576  0.00  0.00    +0.035 C 
BRANCH  14  10
ATOM     10  C   UNL     1      -3.124 -11.853  12.501  0.00  0.00    -0.009 C 
ATOM     11  C   UNL     1      -2.950 -13.255  11.904  0.00  0.00    +0.003 C 
ATOM     12  C   UNL     1      -3.059 -10.781  11.405  0.00  0.00    +0.003 C 
ATOM     15  C   UNL     1      -3.959 -13.523  10.789  0.00  0.00    +0.000 C 
ATOM     16  C   UNL     1      -4.069 -11.052  10.291  0.00  0.00    +0.000 C 
ATOM     18  C   UNL     1      -3.898 -12.450   9.706  0.00  0.00    +0.000 C 
ENDBRANCH  14  10
ENDBRANCH  21  14
ENDBRANCH   7  21
ENDBRANCH  17  29
TORSDOF 8
ENDMDL
MODEL 3
REMARK VINA RESULT:      -6.5      2.557      7.511
REMARK  Name = 45361700
REMARK  10 active torsions:
REMARK  status: ('A' for Active; 'I' for Inactive)
REMARK    1  A    between atoms: N_7  and  C_21
REMARK    2  A    between atoms: N_9  and  C_37
REMARK    3  A    between atoms: N_9  and  C_38
REMARK    4  A    between atoms: N_9  and  C_39
REMARK    5  A    between atoms: C_10  and  C_14
REMARK    6  A    between atoms: C_13  and  C_22
REMARK    7  A    between atoms: C_14  and  C_21
REMARK    8  A    between atoms: C_17  and  C_29
REMARK    9  A    between atoms: C_21  and  C_30
REMARK   10  A    between atoms: C_31  and  C_32
REMARK                            x       y       z     vdW  Elec       q    Type
REMARK                         _______ _______ _______ _____ _____    ______ ____
ROOT
ATOM      1  O   UNL     1      -3.612 -15.232  15.877  0.00  0.00    -0.275 OA
ATOM      4  O   UNL     1      -2.022 -10.082  11.660  0.00  0.00    -0.270 OA
ATOM      5  N   UNL     1      -4.153 -13.683  14.225  0.00  0.00    -0.287 N 
ATOM      6  N   UNL     1      -3.317 -11.973  12.112  0.00  0.00    -0.294 N 
ATOM     17  C   UNL     1      -2.833 -13.037  14.290  0.00  0.00    +0.179 C 
ATOM     22  C   UNL     1      -4.441 -14.717  15.122  0.00  0.00    +0.219 C 
ATOM     26  C   UNL     1      -2.291 -12.628  12.921  0.00  0.00    +0.140 C 
ATOM     27  C   UNL     1      -5.144 -13.068  13.324  0.00  0.00    +0.127 C 
ATOM     28  C   UNL     1      -4.546 -12.755  11.958  0.00  0.00    +0.127 C 
ATOM     31  C   UNL     1      -3.057 -10.734  11.526  0.00  0.00    +0.247 C 
ENDROOT
BRANCH  22  13
ATOM     13  C   UNL     1      -5.856 -15.212  15.144  0.00  0.00    +0.075 C 
ATOM     19  C   UNL     1      -6.628 -14.485  16.245  0.00  0.00    +0.013 C 
ATOM     20  C   UNL     1      -5.873 -16.727  15.353  0.00  0.00    +0.013 C 
ATOM     23  C   UNL     1      -8.052 -15.019  16.379  0.00  0.00    +0.001 C 
ATOM     24  C   UNL     1      -7.299 -17.257  15.483  0.00  0.00    +0.001 C 
ATOM     25  C   UNL     1      -8.069 -16.532  16.584  0.00  0.00    +0.000 C 
ENDBRANCH  22  13
BRANCH  31  32
ATOM     32  C   UNL     1      -4.101 -10.131  10.688  0.00  0.00    +0.037 A 
ATOM     33  C   UNL     1      -5.112  -9.368  11.274  0.00  0.00    +0.015 A 
ATOM     34  C   UNL     1      -4.083 -10.322   9.307  0.00  0.00    +0.015 A 
ATOM     35  C   UNL     1      -6.104  -8.797  10.479  0.00  0.00    +0.024 A 
ATOM     36  C   UNL     1      -5.077  -9.750   8.511  0.00  0.00    +0.024 A 
ATOM     37  C   UNL     1      -6.087  -8.988   9.097  0.00  0.00    +0.029 A 
BRANCH  37   9
ATOM      9  N   UNL     1      -7.090  -8.410   8.292  0.00  0.00    -0.336 N 
ATOM     38  C   UNL     1      -7.236  -8.803   6.904  0.00  0.00    +0.129 C 
ATOM     39  C   UNL     1      -7.985  -7.410   8.839  0.00  0.00    +0.129 C 
ENDBRANCH  37   9
ENDBRANCH  31  32
BRANCH  17  29
ATOM      2  O   UNL     1      -2.493 -10.759  14.931  0.00  0.00    -0.274 OA
ATOM      7  N   UNL     1      -3.707 -12.158  16.342  0.00  0.00    -0.302 N 
ATOM     29  C   UNL     1      -2.986 -11.852  15.200  0.00  0.00    +0.236 C 
ATOM     40  H   UNL     1      -4.051 -13.104  16.476  0.00  0.00    +0.150 HD
BRANCH   7  21
ATOM     21  C   UNL     1      -3.976 -11.197  17.387  0.00  0.00    +0.159 C 
BRANCH  21  30
ATOM      3  O   UNL     1      -4.854 -11.411  19.643  0.00  0.00    -0.274 OA
ATOM      8  N   UNL     1      -4.098 -13.301  18.579  0.00  0.00    -0.328 N 
ATOM     30  C   UNL     1      -4.371 -11.951  18.651  0.00  0.00    +0.231 C 
ATOM     41  H   UNL     1      -4.306 -13.915  19.359  0.00  0.00    +0.145 HD
ATOM     42  H   UNL     1      -3.680 -13.731  17.761  0.00  0.00    +0.145 HD
ENDBRANCH  21  30
BRANCH  21  14
ATOM     14  C   UNL     1      -5.021 -10.159  16.965  0.00  0.00    +0.035 C 
BRANCH  14  10
ATOM     10  C   UNL     1      -6.187 -10.735  16.164  0.00  0.00    -0.009 C 
ATOM     11  C   UNL     1      -6.412  -9.931  14.878  0.00  0.00    +0.003 C 
ATOM     12  C   UNL     1      -7.463 -10.771  17.016  0.00  0.00    +0.003 C 
ATOM     15  C   UNL     1      -7.607 -10.455  14.085  0.00  0.00    +0.000 C 
ATOM     16  C   UNL     1      -8.657 -11.295  16.220  0.00  0.00    +0.000 C 
ATOM     18  C   UNL     1      -8.872 -10.498  14.938  0.00  0.00    +0.000 C 
ENDBRANCH  14  10
ENDBRANCH  21  14
ENDBRANCH   7  21
ENDBRANCH  17  29
TORSDOF 8
ENDMDL
MODEL 4
REMARK VINA RESULT:      -6.4      3.399      5.607
REMARK  Name = 45361700
REMARK  10 active torsions:
REMARK  status: ('A' for Active; 'I' for Inactive)
REMARK    1  A    between atoms: N_7  and  C_21
REMARK    2  A    between atoms: N_9  and  C_37
REMARK    3  A    between atoms: N_9  and  C_38
REMARK    4  A    between atoms: N_9  and  C_39
REMARK    5  A    between atoms: C_10  and  C_14
REMARK    6  A    between atoms: C_13  and  C_22
REMARK    7  A    between atoms: C_14  and  C_21
REMARK    8  A    between atoms: C_17  and  C_29
REMARK    9  A    between atoms: C_21  and  C_30
REMARK   10  A    between atoms: C_31  and  C_32
REMARK                            x       y       z     vdW  Elec       q    Type
REMARK                         _______ _______ _______ _____ _____    ______ ____
ROOT
ATOM      1  O   UNL     1      -3.823 -12.086  18.427  0.00  0.00    -0.275 OA
ATOM      4  O   UNL     1     -10.426 -10.367  18.962  0.00  0.00    -0.270 OA
ATOM      5  N   UNL     1      -5.741 -11.021  17.650  0.00  0.00    -0.287 N 
ATOM      6  N   UNL     1      -8.279  -9.858  18.192  0.00  0.00    -0.294 N 
ATOM     17  C   UNL     1      -6.576 -11.566  18.731  0.00  0.00    +0.179 C 
ATOM     22  C   UNL     1      -4.402 -11.418  17.567  0.00  0.00    +0.219 C 
ATOM     26  C   UNL     1      -7.595 -10.564  19.273  0.00  0.00    +0.140 C 
ATOM     27  C   UNL     1      -6.433 -10.223  16.621  0.00  0.00    +0.127 C 
ATOM     28  C   UNL     1      -7.377  -9.200  17.243  0.00  0.00    +0.127 C 
ATOM     31  C   UNL     1      -9.674  -9.812  18.161  0.00  0.00    +0.247 C 
ENDROOT
BRANCH  22  13
ATOM     13  C   UNL     1      -3.649 -10.988  16.345  0.00  0.00    +0.075 C 
ATOM     19  C   UNL     1      -3.732 -12.089  15.287  0.00  0.00    +0.013 C 
ATOM     20  C   UNL     1      -2.199 -10.672  16.714  0.00  0.00    +0.013 C 
ATOM     23  C   UNL     1      -2.900 -11.747  14.054  0.00  0.00    +0.001 C 
ATOM     24  C   UNL     1      -1.370 -10.328  15.478  0.00  0.00    +0.001 C 
ATOM     25  C   UNL     1      -1.453 -11.429  14.422  0.00  0.00    +0.000 C 
ENDBRANCH  22  13
BRANCH  31  32
ATOM     32  C   UNL     1     -10.318  -9.058  17.079  0.00  0.00    +0.037 A 
ATOM     33  C   UNL     1     -10.501  -7.680  17.202  0.00  0.00    +0.015 A 
ATOM     34  C   UNL     1     -10.749  -9.719  15.929  0.00  0.00    +0.015 A 
ATOM     35  C   UNL     1     -11.114  -6.964  16.175  0.00  0.00    +0.024 A 
ATOM     36  C   UNL     1     -11.363  -9.002  14.901  0.00  0.00    +0.024 A 
ATOM     37  C   UNL     1     -11.546  -7.624  15.024  0.00  0.00    +0.029 A 
BRANCH  37   9
ATOM      9  N   UNL     1     -12.165  -6.901  13.985  0.00  0.00    -0.336 N 
ATOM     38  C   UNL     1     -12.638  -7.582  12.795  0.00  0.00    +0.129 C 
ATOM     39  C   UNL     1     -12.332  -5.466  14.088  0.00  0.00    +0.129 C 
ENDBRANCH  37   9
ENDBRANCH  31  32
BRANCH  17  29
ATOM      2  O   UNL     1      -8.407 -13.077  18.455  0.00  0.00    -0.274 OA
ATOM      7  N   UNL     1      -6.402 -13.522  17.358  0.00  0.00    -0.302 N 
ATOM     29  C   UNL     1      -7.246 -12.789  18.174  0.00  0.00    +0.236 C 
ATOM     40  H   UNL     1      -5.449 -13.204  17.212  0.00  0.00    +0.150 HD
BRANCH   7  21
ATOM     21  C   UNL     1      -6.798 -14.755  16.716  0.00  0.00    +0.159 C 
BRANCH  21  30
ATOM      3  O   UNL     1      -5.524 -16.543  15.673  0.00  0.00    -0.274 OA
ATOM      8  N   UNL     1      -4.458 -15.169  17.174  0.00  0.00    -0.328 N 
ATOM     30  C   UNL     1      -5.551 -15.585  16.442  0.00  0.00    +0.231 C 
ATOM     41  H   UNL     1      -3.566 -15.644  17.090  0.00  0.00    +0.145 HD
ATOM     42  H   UNL     1      -4.498 -14.389  17.821  0.00  0.00    +0.145 HD
ENDBRANCH  21  30
BRANCH  21  14
ATOM     14  C   UNL     1      -7.634 -14.508  15.456  0.00  0.00    +0.035 C 
BRANCH  14  10
ATOM     10  C   UNL     1      -7.184 -13.303  14.632  0.00  0.00    -0.009 C 
ATOM     11  C   UNL     1      -8.366 -12.368  14.348  0.00  0.00    +0.003 C 
ATOM     12  C   UNL     1      -6.522 -13.758  13.325  0.00  0.00    +0.003 C 
ATOM     15  C   UNL     1      -7.952 -11.182  13.479  0.00  0.00    +0.000 C 
ATOM     16  C   UNL     1      -6.109 -12.570  12.458  0.00  0.00    +0.000 C 
ATOM     18  C   UNL     1      -7.285 -11.638  12.185  0.00  0.00    +0.000 C 
ENDBRANCH  14  10
ENDBRANCH  21  14
ENDBRANCH   7  21
ENDBRANCH  17  29
TORSDOF 8
ENDMDL
MODEL 5
REMARK VINA RESULT:      -6.1     28.103     30.499
REMARK  Name = 45361700
REMARK  10 active torsions:
REMARK  status: ('A' for Active; 'I' for Inactive)
REMARK    1  A    between atoms: N_7  and  C_21
REMARK    2  A    between atoms: N_9  and  C_37
REMARK    3  A    between atoms: N_9  and  C_38
REMARK    4  A    between atoms: N_9  and  C_39
REMARK    5  A    between atoms: C_10  and  C_14
REMARK    6  A    between atoms: C_13  and  C_22
REMARK    7  A    between atoms: C_14  and  C_21
REMARK    8  A    between atoms: C_17  and  C_29
REMARK    9  A    between atoms: C_21  and  C_30
REMARK   10  A    between atoms: C_31  and  C_32
REMARK                            x       y       z     vdW  Elec       q    Type
REMARK                         _______ _______ _______ _____ _____    ______ ____
ROOT
ATOM      1  O   UNL     1      15.593  11.732  14.782  0.00  0.00    -0.275 OA
ATOM      4  O   UNL     1      14.710  10.534  21.462  0.00  0.00    -0.270 OA
ATOM      5  N   UNL     1      14.579  12.161  16.833  0.00  0.00    -0.287 N 
ATOM      6  N   UNL     1      14.663  12.036  19.672  0.00  0.00    -0.294 N 
ATOM     17  C   UNL     1      15.260  11.036  17.492  0.00  0.00    +0.179 C 
ATOM     22  C   UNL     1      14.772  12.354  15.460  0.00  0.00    +0.219 C 
ATOM     26  C   UNL     1      15.711  11.353  18.918  0.00  0.00    +0.140 C 
ATOM     27  C   UNL     1      13.597  12.905  17.643  0.00  0.00    +0.127 C 
ATOM     28  C   UNL     1      14.148  13.244  19.023  0.00  0.00    +0.127 C 
ATOM     31  C   UNL     1      14.273  11.550  20.922  0.00  0.00    +0.247 C 
ENDROOT
BRANCH  22  13
ATOM     13  C   UNL     1      13.914  13.391  14.801  0.00  0.00    +0.075 C 
ATOM     19  C   UNL     1      13.137  12.745  13.653  0.00  0.00    +0.013 C 
ATOM     20  C   UNL     1      14.784  14.548  14.309  0.00  0.00    +0.013 C 
ATOM     23  C   UNL     1      12.318  13.777  12.881  0.00  0.00    +0.001 C 
ATOM     24  C   UNL     1      13.960  15.578  13.539  0.00  0.00    +0.001 C 
ATOM     25  C   UNL     1      13.185  14.934  12.392  0.00  0.00    +0.000 C 
ENDBRANCH  22  13
BRANCH  31  32
ATOM     32  C   UNL     1      13.245  12.290  21.663  0.00  0.00    +0.037 A 
ATOM     33  C   UNL     1      13.617  13.220  22.634  0.00  0.00    +0.015 A 
ATOM     34  C   UNL     1      11.895  12.062  21.396  0.00  0.00    +0.015 A 
ATOM     35  C   UNL     1      12.640  13.922  23.339  0.00  0.00    +0.024 A 
ATOM     36  C   UNL     1      10.917  12.765  22.102  0.00  0.00    +0.024 A 
ATOM     37  C   UNL     1      11.290  13.694  23.074  0.00  0.00    +0.029 A 
BRANCH  37   9
ATOM      9  N   UNL     1      10.301  14.405  23.785  0.00  0.00    -0.336 N 
ATOM     38  C   UNL     1       9.115  14.891  23.107  0.00  0.00    +0.129 C 
ATOM     39  C   UNL     1      10.460  14.663  25.201  0.00  0.00    +0.129 C 
ENDBRANCH  37   9
ENDBRANCH  31  32
BRANCH  17  29
ATOM      2  O   UNL     1      13.513   9.717  16.531  0.00  0.00    -0.274 OA
ATOM      7  N   UNL     1      14.402   9.085  18.588  0.00  0.00    -0.302 N 
ATOM     29  C   UNL     1      14.299   9.883  17.461  0.00  0.00    +0.236 C 
ATOM     40  H   UNL     1      15.073   9.327  19.312  0.00  0.00    +0.150 HD
BRANCH   7  21
ATOM     21  C   UNL     1      13.573   7.922  18.812  0.00  0.00    +0.159 C 
BRANCH  21  30
ATOM      3  O   UNL     1      12.107   8.631  20.616  0.00  0.00    -0.274 OA
ATOM      8  N   UNL     1      11.228   8.438  18.503  0.00  0.00    -0.328 N 
ATOM     30  C   UNL     1      12.253   8.375  19.423  0.00  0.00    +0.231 C 
ATOM     41  H   UNL     1      10.294   8.719  18.783  0.00  0.00    +0.145 HD
ATOM     42  H   UNL     1      11.357   8.205  17.524  0.00  0.00    +0.145 HD
ENDBRANCH  21  30
BRANCH  21  14
ATOM     14  C   UNL     1      14.283   6.859  19.655  0.00  0.00    +0.035 C 
BRANCH  14  10
ATOM     10  C   UNL     1      15.794   7.050  19.761  0.00  0.00    -0.009 C 
ATOM     11  C   UNL     1      16.537   5.834  19.194  0.00  0.00    +0.003 C 
ATOM     12  C   UNL     1      16.207   7.312  21.216  0.00  0.00    +0.003 C 
ATOM     15  C   UNL     1      18.050   5.979  19.337  0.00  0.00    +0.000 C 
ATOM     16  C   UNL     1      17.721   7.456  21.356  0.00  0.00    +0.000 C 
ATOM     18  C   UNL     1      18.456   6.248  20.783  0.00  0.00    +0.000 C 
ENDBRANCH  14  10
ENDBRANCH  21  14
ENDBRANCH   7  21
ENDBRANCH  17  29
TORSDOF 8
ENDMDL
MODEL 6
REMARK VINA RESULT:      -6.1     29.365     32.329
REMARK  Name = 45361700
REMARK  10 active torsions:
REMARK  status: ('A' for Active; 'I' for Inactive)
REMARK    1  A    between atoms: N_7  and  C_21
REMARK    2  A    between atoms: N_9  and  C_37
REMARK    3  A    between atoms: N_9  and  C_38
REMARK    4  A    between atoms: N_9  and  C_39
REMARK    5  A    between atoms: C_10  and  C_14
REMARK    6  A    between atoms: C_13  and  C_22
REMARK    7  A    between atoms: C_14  and  C_21
REMARK    8  A    between atoms: C_17  and  C_29
REMARK    9  A    between atoms: C_21  and  C_30
REMARK   10  A    between atoms: C_31  and  C_32
REMARK                            x       y       z     vdW  Elec       q    Type
REMARK                         _______ _______ _______ _____ _____    ______ ____
ROOT
ATOM      1  O   UNL     1      11.101  12.741  21.153  0.00  0.00    -0.275 OA
ATOM      4  O   UNL     1      17.069  12.285  17.835  0.00  0.00    -0.270 OA
ATOM      5  N   UNL     1      13.427  12.655  21.104  0.00  0.00    -0.287 N 
ATOM      6  N   UNL     1      15.856  13.049  19.680  0.00  0.00    -0.294 N 
ATOM     17  C   UNL     1      13.465  12.424  19.652  0.00  0.00    +0.179 C 
ATOM     22  C   UNL     1      12.184  12.718  21.744  0.00  0.00    +0.219 C 
ATOM     26  C   UNL     1      14.597  13.174  18.950  0.00  0.00    +0.140 C 
ATOM     27  C   UNL     1      14.721  12.628  21.810  0.00  0.00    +0.127 C 
ATOM     28  C   UNL     1      15.775  13.455  21.085  0.00  0.00    +0.127 C 
ATOM     31  C   UNL     1      17.008  12.624  19.016  0.00  0.00    +0.247 C 
ENDROOT
BRANCH  22  13
ATOM     13  C   UNL     1      12.201  12.764  23.242  0.00  0.00    +0.075 C 
ATOM     19  C   UNL     1      11.160  11.786  23.788  0.00  0.00    +0.013 C 
ATOM     20  C   UNL     1      11.935  14.192  23.720  0.00  0.00    +0.013 C 
ATOM     23  C   UNL     1      11.064  11.861  25.309  0.00  0.00    +0.001 C 
ATOM     24  C   UNL     1      11.842  14.262  25.243  0.00  0.00    +0.001 C 
ATOM     25  C   UNL     1      10.802  13.286  25.788  0.00  0.00    +0.000 C 
ENDBRANCH  22  13
BRANCH  31  32
ATOM     32  C   UNL     1      18.260  12.552  19.779  0.00  0.00    +0.037 A 
ATOM     33  C   UNL     1      19.123  13.648  19.809  0.00  0.00    +0.015 A 
ATOM     34  C   UNL     1      18.587  11.387  20.473  0.00  0.00    +0.015 A 
ATOM     35  C   UNL     1      20.313  13.579  20.532  0.00  0.00    +0.024 A 
ATOM     36  C   UNL     1      19.778  11.318  21.197  0.00  0.00    +0.024 A 
ATOM     37  C   UNL     1      20.641  12.414  21.226  0.00  0.00    +0.029 A 
BRANCH  37   9
ATOM      9  N   UNL     1      21.843  12.344  21.959  0.00  0.00    -0.336 N 
ATOM     38  C   UNL     1      22.677  13.520  22.117  0.00  0.00    +0.129 C 
ATOM     39  C   UNL     1      22.265  11.096  22.560  0.00  0.00    +0.129 C 
ENDBRANCH  37   9
ENDBRANCH  31  32
BRANCH  17  29
ATOM      2  O   UNL     1      14.456  10.445  18.751  0.00  0.00    -0.274 OA
ATOM      7  N   UNL     1      12.607  10.243  20.150  0.00  0.00    -0.302 N 
ATOM     29  C   UNL     1      13.585  10.939  19.462  0.00  0.00    +0.236 C 
ATOM     40  H   UNL     1      11.917  10.755  20.693  0.00  0.00    +0.150 HD
BRANCH   7  21
ATOM     21  C   UNL     1      12.489   8.803  20.115  0.00  0.00    +0.159 C 
BRANCH  21  30
ATOM      3  O   UNL     1      10.465   8.676  18.775  0.00  0.00    -0.274 OA
ATOM      8  N   UNL     1      10.415   7.844  20.916  0.00  0.00    -0.328 N 
ATOM     30  C   UNL     1      11.036   8.439  19.837  0.00  0.00    +0.231 C 
ATOM     41  H   UNL     1       9.443   7.561  20.864  0.00  0.00    +0.145 HD
ATOM     42  H   UNL     1      10.893   7.673  21.794  0.00  0.00    +0.145 HD
ENDBRANCH  21  30
BRANCH  21  14
ATOM     14  C   UNL     1      13.031   8.146  21.388  0.00  0.00    +0.035 C 
BRANCH  14  10
ATOM     10  C   UNL     1      14.354   7.407  21.197  0.00  0.00    -0.009 C 
ATOM     11  C   UNL     1      15.529   8.259  21.694  0.00  0.00    +0.003 C 
ATOM     12  C   UNL     1      14.548   7.015  19.726  0.00  0.00    +0.003 C 
ATOM     15  C   UNL     1      16.868   7.562  21.464  0.00  0.00    +0.000 C 
ATOM     16  C   UNL     1      15.888   6.319  19.499  0.00  0.00    +0.000 C 
ATOM     18  C   UNL     1      17.054   7.166  20.002  0.00  0.00    +0.000 C 
ENDBRANCH  14  10
ENDBRANCH  21  14
ENDBRANCH   7  21
ENDBRANCH  17  29
TORSDOF 8
ENDMDL
MODEL 7
REMARK VINA RESULT:      -6.0     25.048     29.348
REMARK  Name = 45361700
REMARK  10 active torsions:
REMARK  status: ('A' for Active; 'I' for Inactive)
REMARK    1  A    between atoms: N_7  and  C_21
REMARK    2  A    between atoms: N_9  and  C_37
REMARK    3  A    between atoms: N_9  and  C_38
REMARK    4  A    between atoms: N_9  and  C_39
REMARK    5  A    between atoms: C_10  and  C_14
REMARK    6  A    between atoms: C_13  and  C_22
REMARK    7  A    between atoms: C_14  and  C_21
REMARK    8  A    between atoms: C_17  and  C_29
REMARK    9  A    between atoms: C_21  and  C_30
REMARK   10  A    between atoms: C_31  and  C_32
REMARK                            x       y       z     vdW  Elec       q    Type
REMARK                         _______ _______ _______ _____ _____    ______ ____
ROOT
ATOM      1  O   UNL     1       9.466   7.963   5.521  0.00  0.00    -0.275 OA
ATOM      4  O   UNL     1      15.224  10.989   3.393  0.00  0.00    -0.270 OA
ATOM      5  N   UNL     1      11.785   8.141   5.432  0.00  0.00    -0.287 N 
ATOM      6  N   UNL     1      14.098   9.743   5.018  0.00  0.00    -0.294 N 
ATOM     17  C   UNL     1      11.741   9.247   4.464  0.00  0.00    +0.179 C 
ATOM     22  C   UNL     1      10.584   7.537   5.821  0.00  0.00    +0.219 C 
ATOM     26  C   UNL     1      12.790  10.326   4.730  0.00  0.00    +0.140 C 
ATOM     27  C   UNL     1      13.122   7.632   5.791  0.00  0.00    +0.127 C 
ATOM     28  C   UNL     1      14.089   8.765   6.109  0.00  0.00    +0.127 C 
ATOM     31  C   UNL     1      15.223  10.167   4.309  0.00  0.00    +0.247 C 
ENDROOT
BRANCH  22  13
ATOM     13  C   UNL     1      10.696   6.299   6.658  0.00  0.00    +0.075 C 
ATOM     19  C   UNL     1       9.873   5.181   6.015  0.00  0.00    +0.013 C 
ATOM     20  C   UNL     1      10.227   6.591   8.084  0.00  0.00    +0.013 C 
ATOM     23  C   UNL     1       9.870   3.921   6.876  0.00  0.00    +0.001 C 
ATOM     24  C   UNL     1      10.227   5.328   8.942  0.00  0.00    +0.001 C 
ATOM     25  C   UNL     1       9.405   4.213   8.300  0.00  0.00    +0.000 C 
ENDBRANCH  22  13
BRANCH  31  32
ATOM     32  C   UNL     1      16.523   9.583   4.660  0.00  0.00    +0.037 A 
ATOM     33  C   UNL     1      17.230  10.063   5.763  0.00  0.00    +0.015 A 
ATOM     34  C   UNL     1      17.053   8.549   3.889  0.00  0.00    +0.015 A 
ATOM     35  C   UNL     1      18.465   9.509   6.095  0.00  0.00    +0.024 A 
ATOM     36  C   UNL     1      18.290   7.995   4.221  0.00  0.00    +0.024 A 
ATOM     37  C   UNL     1      18.996   8.475   5.324  0.00  0.00    +0.029 A 
BRANCH  37   9
ATOM      9  N   UNL     1      20.245   7.913   5.660  0.00  0.00    -0.336 N 
ATOM     38  C   UNL     1      20.891   8.255   6.912  0.00  0.00    +0.129 C 
ATOM     39  C   UNL     1      20.902   6.992   4.756  0.00  0.00    +0.129 C 
ENDBRANCH  37   9
ENDBRANCH  31  32
BRANCH  17  29
ATOM      2  O   UNL     1      12.888   8.880   2.400  0.00  0.00    -0.274 OA
ATOM      7  N   UNL     1      10.863   7.795   2.772  0.00  0.00    -0.302 N 
ATOM     29  C   UNL     1      11.915   8.629   3.107  0.00  0.00    +0.236 C 
ATOM     40  H   UNL     1      10.093   7.676   3.425  0.00  0.00    +0.150 HD
BRANCH   7  21
ATOM     21  C   UNL     1      10.779   7.096   1.510  0.00  0.00    +0.159 C 
BRANCH  21  30
ATOM      3  O   UNL     1       8.971   8.434   0.590  0.00  0.00    -0.274 OA
ATOM      8  N   UNL     1      10.938   8.295  -0.587  0.00  0.00    -0.328 N 
ATOM     30  C   UNL     1      10.120   8.013   0.487  0.00  0.00    +0.231 C 
ATOM     41  H   UNL     1      10.616   8.889  -1.343  0.00  0.00    +0.145 HD
ATOM     42  H   UNL     1      11.879   7.924  -0.669  0.00  0.00    +0.145 HD
ENDBRANCH  21  30
BRANCH  21  14
ATOM     14  C   UNL     1      10.066   5.746   1.642  0.00  0.00    +0.035 C 
BRANCH  14  10
ATOM     10  C   UNL     1      10.902   4.550   1.193  0.00  0.00    -0.009 C 
ATOM     11  C   UNL     1      12.176   4.430   2.038  0.00  0.00    +0.003 C 
ATOM     12  C   UNL     1      11.244   4.657  -0.299  0.00  0.00    +0.003 C 
ATOM     15  C   UNL     1      13.056   3.271   1.573  0.00  0.00    +0.000 C 
ATOM     16  C   UNL     1      12.124   3.497  -0.761  0.00  0.00    +0.000 C 
ATOM     18  C   UNL     1      13.387   3.377   0.088  0.00  0.00    +0.000 C 
ENDBRANCH  14  10
ENDBRANCH  21  14
ENDBRANCH   7  21
ENDBRANCH  17  29
TORSDOF 8
ENDMDL
MODEL 8
REMARK VINA RESULT:      -6.0     29.337     32.395
REMARK  Name = 45361700
REMARK  10 active torsions:
REMARK  status: ('A' for Active; 'I' for Inactive)
REMARK    1  A    between atoms: N_7  and  C_21
REMARK    2  A    between atoms: N_9  and  C_37
REMARK    3  A    between atoms: N_9  and  C_38
REMARK    4  A    between atoms: N_9  and  C_39
REMARK    5  A    between atoms: C_10  and  C_14
REMARK    6  A    between atoms: C_13  and  C_22
REMARK    7  A    between atoms: C_14  and  C_21
REMARK    8  A    between atoms: C_17  and  C_29
REMARK    9  A    between atoms: C_21  and  C_30
REMARK   10  A    between atoms: C_31  and  C_32
REMARK                            x       y       z     vdW  Elec       q    Type
REMARK                         _______ _______ _______ _____ _____    ______ ____
ROOT
ATOM      1  O   UNL     1      11.897  11.518  21.026  0.00  0.00    -0.275 OA
ATOM      4  O   UNL     1      15.932  12.369  15.565  0.00  0.00    -0.270 OA
ATOM      5  N   UNL     1      13.883  12.197  20.022  0.00  0.00    -0.287 N 
ATOM      6  N   UNL     1      15.274  13.062  17.697  0.00  0.00    -0.294 N 
ATOM     17  C   UNL     1      13.480  11.690  18.701  0.00  0.00    +0.179 C 
ATOM     22  C   UNL     1      13.036  11.980  21.114  0.00  0.00    +0.219 C 
ATOM     26  C   UNL     1      13.895  12.606  17.549  0.00  0.00    +0.140 C 
ATOM     27  C   UNL     1      15.246  12.750  20.128  0.00  0.00    +0.127 C 
ATOM     28  C   UNL     1      15.557  13.706  18.982  0.00  0.00    +0.127 C 
ATOM     31  C   UNL     1      16.176  12.911  16.642  0.00  0.00    +0.247 C 
ENDROOT
BRANCH  22  13
ATOM     13  C   UNL     1      13.575  12.346  22.464  0.00  0.00    +0.075 C 
ATOM     19  C   UNL     1      14.059  11.080  23.173  0.00  0.00    +0.013 C 
ATOM     20  C   UNL     1      12.497  13.066  23.276  0.00  0.00    +0.013 C 
ATOM     23  C   UNL     1      14.529  11.378  24.594  0.00  0.00    +0.001 C 
ATOM     24  C   UNL     1      12.973  13.364  24.696  0.00  0.00    +0.001 C 
ATOM     25  C   UNL     1      13.455  12.100  25.404  0.00  0.00    +0.000 C 
ENDBRANCH  22  13
BRANCH  31  32
ATOM     32  C   UNL     1      17.541  13.421  16.820  0.00  0.00    +0.037 A 
ATOM     33  C   UNL     1      18.494  12.647  17.483  0.00  0.00    +0.015 A 
ATOM     34  C   UNL     1      17.885  14.679  16.326  0.00  0.00    +0.015 A 
ATOM     35  C   UNL     1      19.790  13.131  17.652  0.00  0.00    +0.024 A 
ATOM     36  C   UNL     1      19.183  15.164  16.496  0.00  0.00    +0.024 A 
ATOM     37  C   UNL     1      20.135  14.390  17.160  0.00  0.00    +0.029 A 
BRANCH  37   9
ATOM      9  N   UNL     1      21.446  14.880  17.330  0.00  0.00    -0.336 N 
ATOM     38  C   UNL     1      22.432  14.722  16.278  0.00  0.00    +0.129 C 
ATOM     39  C   UNL     1      21.828  15.543  18.560  0.00  0.00    +0.129 C 
ENDBRANCH  37   9
ENDBRANCH  31  32
BRANCH  17  29
ATOM      2  O   UNL     1      15.150  10.142  17.975  0.00  0.00    -0.274 OA
ATOM      7  N   UNL     1      13.311   9.344  19.159  0.00  0.00    -0.302 N 
ATOM     29  C   UNL     1      14.089  10.324  18.568  0.00  0.00    +0.236 C 
ATOM     40  H   UNL     1      12.435   9.603  19.604  0.00  0.00    +0.150 HD
BRANCH   7  21
ATOM     21  C   UNL     1      13.664   7.943  19.151  0.00  0.00    +0.159 C 
BRANCH  21  30
ATOM      3  O   UNL     1      11.947   7.364  17.531  0.00  0.00    -0.274 OA
ATOM      8  N   UNL     1      12.051   6.170  19.491  0.00  0.00    -0.328 N 
ATOM     30  C   UNL     1      12.482   7.145  18.615  0.00  0.00    +0.231 C 
ATOM     41  H   UNL     1      11.265   5.573  19.257  0.00  0.00    +0.145 HD
ATOM     42  H   UNL     1      12.489   6.013  20.392  0.00  0.00    +0.145 HD
ENDBRANCH  21  30
BRANCH  21  14
ATOM     14  C   UNL     1      14.134   7.456  20.525  0.00  0.00    +0.035 C 
BRANCH  14  10
ATOM     10  C   UNL     1      15.428   6.646  20.494  0.00  0.00    -0.009 C 
ATOM     11  C   UNL     1      16.498   7.297  21.379  0.00  0.00    +0.003 C 
ATOM     12  C   UNL     1      15.934   6.488  19.053  0.00  0.00    +0.003 C 
ATOM     15  C   UNL     1      17.819   6.533  21.323  0.00  0.00    +0.000 C 
ATOM     16  C   UNL     1      17.256   5.725  19.000  0.00  0.00    +0.000 C 
ATOM     18  C   UNL     1      18.314   6.371  19.889  0.00  0.00    +0.000 C 
ENDBRANCH  14  10
ENDBRANCH  21  14
ENDBRANCH   7  21
ENDBRANCH  17  29
TORSDOF 8
ENDMDL
MODEL 9
REMARK VINA RESULT:      -5.9     23.825     26.564
REMARK  Name = 45361700
REMARK  10 active torsions:
REMARK  status: ('A' for Active; 'I' for Inactive)
REMARK    1  A    between atoms: N_7  and  C_21
REMARK    2  A    between atoms: N_9  and  C_37
REMARK    3  A    between atoms: N_9  and  C_38
REMARK    4  A    between atoms: N_9  and  C_39
REMARK    5  A    between atoms: C_10  and  C_14
REMARK    6  A    between atoms: C_13  and  C_22
REMARK    7  A    between atoms: C_14  and  C_21
REMARK    8  A    between atoms: C_17  and  C_29
REMARK    9  A    between atoms: C_21  and  C_30
REMARK   10  A    between atoms: C_31  and  C_32
REMARK                            x       y       z     vdW  Elec       q    Type
REMARK                         _______ _______ _______ _____ _____    ______ ____
ROOT
ATOM      1  O   UNL     1      18.367  -2.562  26.655  0.00  0.00    -0.275 OA
ATOM      4  O   UNL     1      17.310  -8.383  30.094  0.00  0.00    -0.270 OA
ATOM      5  N   UNL     1      17.542  -4.732  26.822  0.00  0.00    -0.287 N 
ATOM      6  N   UNL     1      16.621  -6.877  28.446  0.00  0.00    -0.294 N 
ATOM     17  C   UNL     1      18.117  -4.931  28.161  0.00  0.00    +0.179 C 
ATOM     22  C   UNL     1      17.804  -3.534  26.147  0.00  0.00    +0.219 C 
ATOM     26  C   UNL     1      17.200  -5.708  29.105  0.00  0.00    +0.140 C 
ATOM     27  C   UNL     1      16.869  -5.895  26.214  0.00  0.00    +0.127 C 
ATOM     28  C   UNL     1      15.920  -6.572  27.196  0.00  0.00    +0.127 C 
ATOM     31  C   UNL     1      16.720  -8.134  29.043  0.00  0.00    +0.247 C 
ENDROOT
BRANCH  22  13
ATOM     13  C   UNL     1      17.357  -3.457  24.719  0.00  0.00    +0.075 C 
ATOM     19  C   UNL     1      18.543  -3.054  23.841  0.00  0.00    +0.013 C 
ATOM     20  C   UNL     1      16.200  -2.466  24.589  0.00  0.00    +0.013 C 
ATOM     23  C   UNL     1      18.124  -2.865  22.385  0.00  0.00    +0.001 C 
ATOM     24  C   UNL     1      15.783  -2.281  23.132  0.00  0.00    +0.001 C 
ATOM     25  C   UNL     1      16.967  -1.877  22.256  0.00  0.00    +0.000 C 
ENDBRANCH  22  13
BRANCH  31  32
ATOM     32  C   UNL     1      16.088  -9.274  28.366  0.00  0.00    +0.037 A 
ATOM     33  C   UNL     1      14.898  -9.808  28.862  0.00  0.00    +0.015 A 
ATOM     34  C   UNL     1      16.678  -9.823  27.228  0.00  0.00    +0.015 A 
ATOM     35  C   UNL     1      14.299 -10.891  28.220  0.00  0.00    +0.024 A 
ATOM     36  C   UNL     1      16.078 -10.907  26.585  0.00  0.00    +0.024 A 
ATOM     37  C   UNL     1      14.889 -11.441  27.082  0.00  0.00    +0.029 A 
BRANCH  37   9
ATOM      9  N   UNL     1      14.283 -12.535  26.431  0.00  0.00    -0.336 N 
ATOM     38  C   UNL     1      14.530 -12.782  25.024  0.00  0.00    +0.129 C 
ATOM     39  C   UNL     1      13.400 -13.424  27.158  0.00  0.00    +0.129 C 
ENDBRANCH  37   9
ENDBRANCH  31  32
BRANCH  17  29
ATOM      2  O   UNL     1      19.815  -6.516  28.723  0.00  0.00    -0.274 OA
ATOM      7  N   UNL     1      20.115  -5.158  26.856  0.00  0.00    -0.302 N 
ATOM     29  C   UNL     1      19.428  -5.635  27.959  0.00  0.00    +0.236 C 
ATOM     40  H   UNL     1      19.711  -4.406  26.304  0.00  0.00    +0.150 HD
BRANCH   7  21
ATOM     21  C   UNL     1      21.412  -5.654  26.456  0.00  0.00    +0.159 C 
BRANCH  21  30
ATOM      3  O   UNL     1      23.538  -4.558  26.031  0.00  0.00    -0.274 OA
ATOM      8  N   UNL     1      21.640  -3.269  26.114  0.00  0.00    -0.328 N 
ATOM     30  C   UNL     1      22.321  -4.467  26.170  0.00  0.00    +0.231 C 
ATOM     41  H   UNL     1      22.131  -2.399  25.938  0.00  0.00    +0.145 HD
ATOM     42  H   UNL     1      20.636  -3.204  26.251  0.00  0.00    +0.145 HD
ENDBRANCH  21  30
BRANCH  21  14
ATOM     14  C   UNL     1      21.320  -6.629  25.278  0.00  0.00    +0.035 C 
BRANCH  14  10
ATOM     10  C   UNL     1      20.401  -6.165  24.151  0.00  0.00    -0.009 C 
ATOM     11  C   UNL     1      19.208  -7.117  23.996  0.00  0.00    +0.003 C 
ATOM     12  C   UNL     1      21.178  -6.044  22.833  0.00  0.00    +0.003 C 
ATOM     15  C   UNL     1      18.301  -6.702  22.839  0.00  0.00    +0.000 C 
ATOM     16  C   UNL     1      20.268  -5.629  21.678  0.00  0.00    +0.000 C 
ATOM     18  C   UNL     1      19.079  -6.574  21.532  0.00  0.00    +0.000 C 
ENDBRANCH  14  10
ENDBRANCH  21  14
ENDBRANCH   7  21
ENDBRANCH  17  29
TORSDOF 8
ENDMDL
MODEL 10
REMARK VINA RESULT:      -5.9      3.341      8.340
REMARK  Name = 45361700
REMARK  10 active torsions:
REMARK  status: ('A' for Active; 'I' for Inactive)
REMARK    1  A    between atoms: N_7  and  C_21
REMARK    2  A    between atoms: N_9  and  C_37
REMARK    3  A    between atoms: N_9  and  C_38
REMARK    4  A    between atoms: N_9  and  C_39
REMARK    5  A    between atoms: C_10  and  C_14
REMARK    6  A    between atoms: C_13  and  C_22
REMARK    7  A    between atoms: C_14  and  C_21
REMARK    8  A    between atoms: C_17  and  C_29
REMARK    9  A    between atoms: C_21  and  C_30
REMARK   10  A    between atoms: C_31  and  C_32
REMARK                            x       y       z     vdW  Elec       q    Type
REMARK                         _______ _______ _______ _____ _____    ______ ____
ROOT
ATOM      1  O   UNL     1      -7.525 -12.588  15.990  0.00  0.00    -0.275 OA
ATOM      4  O   UNL     1      -5.568 -11.799   9.480  0.00  0.00    -0.270 OA
ATOM      5  N   UNL     1      -7.708 -11.595  13.893  0.00  0.00    -0.287 N 
ATOM      6  N   UNL     1      -7.263 -11.715  11.087  0.00  0.00    -0.294 N 
ATOM     17  C   UNL     1      -6.523 -12.295  13.373  0.00  0.00    +0.179 C 
ATOM     22  C   UNL     1      -8.057 -11.769  15.237  0.00  0.00    +0.219 C 
ATOM     26  C   UNL     1      -6.682 -12.761  11.926  0.00  0.00    +0.140 C 
ATOM     27  C   UNL     1      -8.343 -10.616  12.993  0.00  0.00    +0.127 C 
ATOM     28  C   UNL     1      -8.531 -11.180  11.589  0.00  0.00    +0.127 C 
ATOM     31  C   UNL     1      -6.634 -11.346   9.897  0.00  0.00    +0.247 C 
ENDROOT
BRANCH  22  13
ATOM     13  C   UNL     1      -9.152 -10.892  15.765  0.00  0.00    +0.075 C 
ATOM     19  C   UNL     1      -8.583  -9.508  16.078  0.00  0.00    +0.013 C 
ATOM     20  C   UNL     1      -9.780 -11.534  17.003  0.00  0.00    +0.013 C 
ATOM     23  C   UNL     1      -9.633  -8.600  16.712  0.00  0.00    +0.001 C 
ATOM     24  C   UNL     1     -10.831 -10.623  17.632  0.00  0.00    +0.001 C 
ATOM     25  C   UNL     1     -10.262  -9.241  17.946  0.00  0.00    +0.000 C 
ENDBRANCH  22  13
BRANCH  31  32
ATOM     32  C   UNL     1      -7.273 -10.319   9.065  0.00  0.00    +0.037 A 
ATOM     33  C   UNL     1      -8.112 -10.694   8.015  0.00  0.00    +0.015 A 
ATOM     34  C   UNL     1      -7.041  -8.968   9.324  0.00  0.00    +0.015 A 
ATOM     35  C   UNL     1      -8.719  -9.719   7.225  0.00  0.00    +0.024 A 
ATOM     36  C   UNL     1      -7.648  -7.992   8.532  0.00  0.00    +0.024 A 
ATOM     37  C   UNL     1      -8.487  -8.368   7.482  0.00  0.00    +0.029 A 
BRANCH  37   9
ATOM      9  N   UNL     1      -9.100  -7.381   6.684  0.00  0.00    -0.336 N 
ATOM     38  C   UNL     1      -8.939  -7.397   5.243  0.00  0.00    +0.129 C 
ATOM     39  C   UNL     1      -9.896  -6.334   7.293  0.00  0.00    +0.129 C 
ENDBRANCH  37   9
ENDBRANCH  31  32
BRANCH  17  29
ATOM      2  O   UNL     1      -5.150 -10.457  12.704  0.00  0.00    -0.274 OA
ATOM      7  N   UNL     1      -4.613 -11.616  14.651  0.00  0.00    -0.302 N 
ATOM     29  C   UNL     1      -5.370 -11.345  13.524  0.00  0.00    +0.236 C 
ATOM     40  H   UNL     1      -4.872 -12.394  15.251  0.00  0.00    +0.150 HD
BRANCH   7  21
ATOM     21  C   UNL     1      -3.435 -10.860  15.011  0.00  0.00    +0.159 C 
BRANCH  21  30
ATOM      3  O   UNL     1      -2.189 -12.774  14.181  0.00  0.00    -0.274 OA
ATOM      8  N   UNL     1      -1.155 -11.352  15.658  0.00  0.00    -0.328 N 
ATOM     30  C   UNL     1      -2.216 -11.765  14.881  0.00  0.00    +0.231 C 
ATOM     41  H   UNL     1      -0.285 -11.874  15.668  0.00  0.00    +0.145 HD
ATOM     42  H   UNL     1      -1.197 -10.528  16.248  0.00  0.00    +0.145 HD
ENDBRANCH  21  30
BRANCH  21  14
ATOM     14  C   UNL     1      -3.556 -10.227  16.401  0.00  0.00    +0.035 C 
BRANCH  14  10
ATOM     10  C   UNL     1      -4.500 -10.967  17.346  0.00  0.00    -0.009 C 
ATOM     11  C   UNL     1      -5.623 -10.041  17.828  0.00  0.00    +0.003 C 
ATOM     12  C   UNL     1      -3.727 -11.552  18.536  0.00  0.00    +0.003 C 
ATOM     15  C   UNL     1      -6.551 -10.744  18.817  0.00  0.00    +0.000 C 
ATOM     16  C   UNL     1      -4.657 -12.254  19.523  0.00  0.00    +0.000 C 
ATOM     18  C   UNL     1      -5.778 -11.332  19.993  0.00  0.00    +0.000 C 
ENDBRANCH  14  10
ENDBRANCH  21  14
ENDBRANCH   7  21
ENDBRANCH  17  29
TORSDOF 8
ENDMDL
