MODEL 1
REMARK VINA RESULT:      -6.6      0.000      0.000
REMARK  Name = 56775233
REMARK  3 active torsions:
REMARK  status: ('A' for Active; 'I' for Inactive)
REMARK    1  A    between atoms: N_5  and  C_12
REMARK    2  A    between atoms: C_8  and  C_12
REMARK    3  A    between atoms: C_18  and  C_19
REMARK                            x       y       z     vdW  Elec       q    Type
REMARK                         _______ _______ _______ _____ _____    ______ ____
ROOT
ATOM      1  O   UNL     1      12.325   8.497  20.260  0.00  0.00    -0.364 OA
ATOM      2  O   UNL     1      15.039   8.850  22.535  0.00  0.00    -0.273 OA
ATOM      3  O   UNL     1      11.760   9.050  15.524  0.00  0.00    -0.267 OA
ATOM      5  N   UNL     1      15.053   7.974  20.379  0.00  0.00    -0.292 N 
ATOM      6  N   UNL     1      13.111   8.647  17.369  0.00  0.00    -0.291 N 
ATOM      9  C   UNL     1      14.305   7.677  19.165  0.00  0.00    +0.124 C 
ATOM     13  C   UNL     1      12.809   7.474  19.394  0.00  0.00    +0.158 C 
ATOM     14  C   UNL     1      14.335   8.823  18.149  0.00  0.00    +0.133 C 
ATOM     15  C   UNL     1      12.214   7.691  18.008  0.00  0.00    +0.141 C 
ATOM     16  C   UNL     1      14.440   8.458  21.532  0.00  0.00    +0.242 C 
ATOM     17  C   UNL     1      12.923   8.398  21.533  0.00  0.00    +0.256 C 
ATOM     18  C   UNL     1      12.805   9.225  16.146  0.00  0.00    +0.285 C 
ENDROOT
BRANCH  18  19
ATOM      4  O   UNL     1      14.705   9.568  14.672  0.00  0.00    -0.350 OA
ATOM      7  N   UNL     1      15.564  10.560  14.219  0.00  0.00    -0.086 NA
ATOM     19  C   UNL     1      13.814  10.109  15.541  0.00  0.00    +0.222 A 
ATOM     20  C   UNL     1      14.060  11.449  15.678  0.00  0.00    +0.077 A 
ATOM     21  C   UNL     1      15.159  11.675  14.834  0.00  0.00    +0.157 A 
ENDBRANCH  18  19
BRANCH   5  12
ATOM     12  C   UNL     1      16.506   7.902  20.293  0.00  0.00    +0.111 C 
BRANCH  12   8
ATOM      8  C   UNL     1      16.978   6.489  20.342  0.00  0.00    +0.006 C 
ATOM     10  C   UNL     1      17.536   5.860  19.099  0.00  0.00    +0.005 C 
ATOM     11  C   UNL     1      18.448   6.204  20.241  0.00  0.00    +0.005 C 
ENDBRANCH  12   8
ENDBRANCH   5  12
TORSDOF 3
ENDMDL
MODEL 2
REMARK VINA RESULT:      -5.9      2.507      4.183
REMARK  Name = 56775233
REMARK  3 active torsions:
REMARK  status: ('A' for Active; 'I' for Inactive)
REMARK    1  A    between atoms: N_5  and  C_12
REMARK    2  A    between atoms: C_8  and  C_12
REMARK    3  A    between atoms: C_18  and  C_19
REMARK                            x       y       z     vdW  Elec       q    Type
REMARK                         _______ _______ _______ _____ _____    ______ ____
ROOT
ATOM      1  O   UNL     1      11.531   7.045  20.429  0.00  0.00    -0.364 OA
ATOM      2  O   UNL     1      10.160   9.528  22.579  0.00  0.00    -0.273 OA
ATOM      3  O   UNL     1      14.325   7.090  16.525  0.00  0.00    -0.267 OA
ATOM      5  N   UNL     1      12.270   9.456  21.600  0.00  0.00    -0.292 N 
ATOM      6  N   UNL     1      13.557   8.086  18.477  0.00  0.00    -0.291 N 
ATOM      9  C   UNL     1      13.194   8.760  20.714  0.00  0.00    +0.124 C 
ATOM     13  C   UNL     1      12.929   7.262  20.597  0.00  0.00    +0.158 C 
ATOM     14  C   UNL     1      13.097   9.232  19.259  0.00  0.00    +0.133 C 
ATOM     15  C   UNL     1      13.636   6.885  19.301  0.00  0.00    +0.141 C 
ATOM     16  C   UNL     1      11.030   8.926  21.947  0.00  0.00    +0.242 C 
ATOM     17  C   UNL     1      10.819   7.471  21.569  0.00  0.00    +0.256 C 
ATOM     18  C   UNL     1      13.946   8.080  17.146  0.00  0.00    +0.285 C 
ENDROOT
BRANCH  18  19
ATOM      4  O   UNL     1      13.068   9.481  15.366  0.00  0.00    -0.350 OA
ATOM      7  N   UNL     1      13.188  10.755  14.826  0.00  0.00    -0.086 NA
ATOM     19  C   UNL     1      13.912   9.361  16.423  0.00  0.00    +0.222 A 
ATOM     20  C   UNL     1      14.596  10.534  16.601  0.00  0.00    +0.077 A 
ATOM     21  C   UNL     1      14.106  11.366  15.580  0.00  0.00    +0.157 A 
ENDBRANCH  18  19
BRANCH   5  12
ATOM     12  C   UNL     1      12.622  10.817  21.984  0.00  0.00    +0.111 C 
BRANCH  12   8
ATOM      8  C   UNL     1      11.896  11.816  21.150  0.00  0.00    +0.006 C 
ATOM     10  C   UNL     1      11.083  12.881  21.826  0.00  0.00    +0.005 C 
ATOM     11  C   UNL     1      12.367  13.241  21.138  0.00  0.00    +0.005 C 
ENDBRANCH  12   8
ENDBRANCH   5  12
TORSDOF 3
ENDMDL
MODEL 3
REMARK VINA RESULT:      -5.7      3.453      5.410
REMARK  Name = 56775233
REMARK  3 active torsions:
REMARK  status: ('A' for Active; 'I' for Inactive)
REMARK    1  A    between atoms: N_5  and  C_12
REMARK    2  A    between atoms: C_8  and  C_12
REMARK    3  A    between atoms: C_18  and  C_19
REMARK                            x       y       z     vdW  Elec       q    Type
REMARK                         _______ _______ _______ _____ _____    ______ ____
ROOT
ATOM      1  O   UNL     1      11.010   9.519  22.716  0.00  0.00    -0.364 OA
ATOM      2  O   UNL     1      10.777  13.053  23.066  0.00  0.00    -0.273 OA
ATOM      3  O   UNL     1      12.168   6.519  19.151  0.00  0.00    -0.267 OA
ATOM      5  N   UNL     1      12.362  11.808  21.902  0.00  0.00    -0.292 N 
ATOM      6  N   UNL     1      12.272   8.613  20.150  0.00  0.00    -0.291 N 
ATOM      9  C   UNL     1      12.823  10.495  21.471  0.00  0.00    +0.124 C 
ATOM     13  C   UNL     1      12.387   9.354  22.388  0.00  0.00    +0.158 C 
ATOM     14  C   UNL     1      12.247  10.074  20.116  0.00  0.00    +0.133 C 
ATOM     15  C   UNL     1      12.528   8.124  21.500  0.00  0.00    +0.141 C 
ATOM     16  C   UNL     1      11.290  11.970  22.776  0.00  0.00    +0.242 C 
ATOM     17  C   UNL     1      10.813  10.701  23.459  0.00  0.00    +0.256 C 
ATOM     18  C   UNL     1      12.143   7.746  19.076  0.00  0.00    +0.285 C 
ENDROOT
BRANCH  18  19
ATOM      4  O   UNL     1      10.762   8.229  17.136  0.00  0.00    -0.350 OA
ATOM      7  N   UNL     1      10.811   8.849  15.894  0.00  0.00    -0.086 NA
ATOM     19  C   UNL     1      11.973   8.340  17.741  0.00  0.00    +0.222 A 
ATOM     20  C   UNL     1      12.834   9.024  16.924  0.00  0.00    +0.077 A 
ATOM     21  C   UNL     1      12.058   9.316  15.790  0.00  0.00    +0.157 A 
ENDBRANCH  18  19
BRANCH   5  12
ATOM     12  C   UNL     1      12.963  12.964  21.252  0.00  0.00    +0.111 C 
BRANCH  12   8
ATOM      8  C   UNL     1      12.116  13.450  20.127  0.00  0.00    +0.006 C 
ATOM     10  C   UNL     1      11.650  14.877  20.124  0.00  0.00    +0.005 C 
ATOM     11  C   UNL     1      12.692  14.425  19.143  0.00  0.00    +0.005 C 
ENDBRANCH  12   8
ENDBRANCH   5  12
TORSDOF 3
ENDMDL
MODEL 4
REMARK VINA RESULT:      -5.6      3.019      5.029
REMARK  Name = 56775233
REMARK  3 active torsions:
REMARK  status: ('A' for Active; 'I' for Inactive)
REMARK    1  A    between atoms: N_5  and  C_12
REMARK    2  A    between atoms: C_8  and  C_12
REMARK    3  A    between atoms: C_18  and  C_19
REMARK                            x       y       z     vdW  Elec       q    Type
REMARK                         _______ _______ _______ _____ _____    ______ ____
ROOT
ATOM      1  O   UNL     1      16.141   5.961  18.924  0.00  0.00    -0.364 OA
ATOM      2  O   UNL     1      18.504   6.422  21.545  0.00  0.00    -0.273 OA
ATOM      3  O   UNL     1      11.616   7.357  18.136  0.00  0.00    -0.267 OA
ATOM      5  N   UNL     1      16.980   7.950  20.676  0.00  0.00    -0.292 N 
ATOM      6  N   UNL     1      13.670   7.642  19.181  0.00  0.00    -0.291 N 
ATOM      9  C   UNL     1      15.896   8.212  19.738  0.00  0.00    +0.124 C 
ATOM     13  C   UNL     1      15.908   7.304  18.511  0.00  0.00    +0.158 C 
ATOM     14  C   UNL     1      14.511   7.948  20.336  0.00  0.00    +0.133 C 
ATOM     15  C   UNL     1      14.479   7.408  17.990  0.00  0.00    +0.141 C 
ATOM     16  C   UNL     1      17.675   6.744  20.692  0.00  0.00    +0.242 C 
ATOM     17  C   UNL     1      17.420   5.833  19.505  0.00  0.00    +0.256 C 
ATOM     18  C   UNL     1      12.284   7.622  19.132  0.00  0.00    +0.285 C 
ENDROOT
BRANCH  18  19
ATOM      4  O   UNL     1      11.008   6.942  21.084  0.00  0.00    -0.350 OA
ATOM      7  N   UNL     1      10.371   7.464  22.203  0.00  0.00    -0.086 NA
ATOM     19  C   UNL     1      11.557   7.956  20.367  0.00  0.00    +0.222 A 
ATOM     20  C   UNL     1      11.299   9.150  20.986  0.00  0.00    +0.077 A 
ATOM     21  C   UNL     1      10.558   8.785  22.122  0.00  0.00    +0.157 A 
ENDBRANCH  18  19
BRANCH   5  12
ATOM     12  C   UNL     1      17.205   8.944  21.717  0.00  0.00    +0.111 C 
BRANCH  12   8
ATOM      8  C   UNL     1      18.050  10.065  21.217  0.00  0.00    +0.006 C 
ATOM     10  C   UNL     1      18.798  10.915  22.202  0.00  0.00    +0.005 C 
ATOM     11  C   UNL     1      19.544   9.959  21.318  0.00  0.00    +0.005 C 
ENDBRANCH  12   8
ENDBRANCH   5  12
TORSDOF 3
ENDMDL
MODEL 5
REMARK VINA RESULT:      -5.5      1.905      2.752
REMARK  Name = 56775233
REMARK  3 active torsions:
REMARK  status: ('A' for Active; 'I' for Inactive)
REMARK    1  A    between atoms: N_5  and  C_12
REMARK    2  A    between atoms: C_8  and  C_12
REMARK    3  A    between atoms: C_18  and  C_19
REMARK                            x       y       z     vdW  Elec       q    Type
REMARK                         _______ _______ _______ _____ _____    ______ ____
ROOT
ATOM      1  O   UNL     1      13.719  10.340  22.295  0.00  0.00    -0.364 OA
ATOM      2  O   UNL     1      17.182  11.126  22.539  0.00  0.00    -0.273 OA
ATOM      3  O   UNL     1      10.906   8.359  18.946  0.00  0.00    -0.267 OA
ATOM      5  N   UNL     1      16.179   9.254  21.586  0.00  0.00    -0.292 N 
ATOM      6  N   UNL     1      12.997   8.677  19.905  0.00  0.00    -0.291 N 
ATOM      9  C   UNL     1      14.946   8.560  21.238  0.00  0.00    +0.124 C 
ATOM     13  C   UNL     1      13.759   8.925  22.125  0.00  0.00    +0.158 C 
ATOM     14  C   UNL     1      14.438   8.911  19.836  0.00  0.00    +0.133 C 
ATOM     15  C   UNL     1      12.558   8.506  21.286  0.00  0.00    +0.141 C 
ATOM     16  C   UNL     1      16.186  10.430  22.332  0.00  0.00    +0.242 C 
ATOM     17  C   UNL     1      14.863  10.791  22.984  0.00  0.00    +0.256 C 
ATOM     18  C   UNL     1      12.115   8.555  18.842  0.00  0.00    +0.285 C 
ENDROOT
BRANCH  18  19
ATOM      4  O   UNL     1      11.816   8.899  16.456  0.00  0.00    -0.350 OA
ATOM      7  N   UNL     1      12.533   8.958  15.268  0.00  0.00    -0.086 NA
ATOM     19  C   UNL     1      12.670   8.658  17.484  0.00  0.00    +0.222 A 
ATOM     20  C   UNL     1      13.949   8.553  17.005  0.00  0.00    +0.077 A 
ATOM     21  C   UNL     1      13.805   8.748  15.621  0.00  0.00    +0.157 A 
ENDBRANCH  18  19
BRANCH   5  12
ATOM     12  C   UNL     1      17.408   8.759  20.982  0.00  0.00    +0.111 C 
BRANCH  12   8
ATOM      8  C   UNL     1      17.512   7.277  21.109  0.00  0.00    +0.006 C 
ATOM     10  C   UNL     1      17.667   6.445  19.870  0.00  0.00    +0.005 C 
ATOM     11  C   UNL     1      18.821   6.606  20.816  0.00  0.00    +0.005 C 
ENDBRANCH  12   8
ENDBRANCH   5  12
TORSDOF 3
ENDMDL
MODEL 6
REMARK VINA RESULT:      -5.5     12.852     16.016
REMARK  Name = 56775233
REMARK  3 active torsions:
REMARK  status: ('A' for Active; 'I' for Inactive)
REMARK    1  A    between atoms: N_5  and  C_12
REMARK    2  A    between atoms: C_8  and  C_12
REMARK    3  A    between atoms: C_18  and  C_19
REMARK                            x       y       z     vdW  Elec       q    Type
REMARK                         _______ _______ _______ _____ _____    ______ ____
ROOT
ATOM      1  O   UNL     1      10.219   7.431   1.982  0.00  0.00    -0.364 OA
ATOM      2  O   UNL     1       9.765   4.260   0.431  0.00  0.00    -0.273 OA
ATOM      3  O   UNL     1      11.061   8.941   6.461  0.00  0.00    -0.267 OA
ATOM      5  N   UNL     1      11.250   4.852   2.122  0.00  0.00    -0.292 N 
ATOM      6  N   UNL     1      11.149   7.290   4.830  0.00  0.00    -0.291 N 
ATOM      9  C   UNL     1      11.743   5.887   3.022  0.00  0.00    +0.124 C 
ATOM     13  C   UNL     1      11.540   7.308   2.503  0.00  0.00    +0.158 C 
ATOM     14  C   UNL     1      11.005   5.912   4.364  0.00  0.00    +0.133 C 
ATOM     15  C   UNL     1      11.642   8.155   3.765  0.00  0.00    +0.141 C 
ATOM     16  C   UNL     1      10.312   5.117   1.127  0.00  0.00    +0.242 C 
ATOM     17  C   UNL     1      10.043   6.588   0.865  0.00  0.00    +0.256 C 
ATOM     18  C   UNL     1      10.928   7.769   6.112  0.00  0.00    +0.285 C 
ENDROOT
BRANCH  18  19
ATOM      4  O   UNL     1      11.478   6.099   7.788  0.00  0.00    -0.350 OA
ATOM      7  N   UNL     1      10.884   5.244   8.707  0.00  0.00    -0.086 NA
ATOM     19  C   UNL     1      10.514   6.800   7.139  0.00  0.00    +0.222 A 
ATOM     20  C   UNL     1       9.281   6.430   7.607  0.00  0.00    +0.077 A 
ATOM     21  C   UNL     1       9.571   5.460   8.581  0.00  0.00    +0.157 A 
ENDBRANCH  18  19
BRANCH   5  12
ATOM     12  C   UNL     1      11.655   3.482   2.406  0.00  0.00    +0.111 C 
BRANCH  12   8
ATOM      8  C   UNL     1      12.745   3.042   1.490  0.00  0.00    +0.006 C 
ATOM     10  C   UNL     1      13.354   4.036   0.545  0.00  0.00    +0.005 C 
ATOM     11  C   UNL     1      14.142   3.539   1.721  0.00  0.00    +0.005 C 
ENDBRANCH  12   8
ENDBRANCH   5  12
TORSDOF 3
ENDMDL
MODEL 7
REMARK VINA RESULT:      -5.4     11.564     13.722
REMARK  Name = 56775233
REMARK  3 active torsions:
REMARK  status: ('A' for Active; 'I' for Inactive)
REMARK    1  A    between atoms: N_5  and  C_12
REMARK    2  A    between atoms: C_8  and  C_12
REMARK    3  A    between atoms: C_18  and  C_19
REMARK                            x       y       z     vdW  Elec       q    Type
REMARK                         _______ _______ _______ _____ _____    ______ ____
ROOT
ATOM      1  O   UNL     1       9.454   7.046   3.958  0.00  0.00    -0.364 OA
ATOM      2  O   UNL     1       7.781   7.723   7.025  0.00  0.00    -0.273 OA
ATOM      3  O   UNL     1      14.039   6.905   2.540  0.00  0.00    -0.267 OA
ATOM      5  N   UNL     1       9.756   6.544   6.676  0.00  0.00    -0.292 N 
ATOM      6  N   UNL     1      12.430   6.773   4.210  0.00  0.00    -0.291 N 
ATOM      9  C   UNL     1      10.760   6.074   5.730  0.00  0.00    +0.124 C 
ATOM     13  C   UNL     1      10.237   5.908   4.305  0.00  0.00    +0.158 C 
ATOM     14  C   UNL     1      11.918   7.060   5.548  0.00  0.00    +0.133 C 
ATOM     15  C   UNL     1      11.509   5.922   3.466  0.00  0.00    +0.141 C 
ATOM     16  C   UNL     1       8.592   7.190   6.266  0.00  0.00    +0.242 C 
ATOM     17  C   UNL     1       8.309   7.132   4.776  0.00  0.00    +0.256 C 
ATOM     18  C   UNL     1      13.647   7.168   3.675  0.00  0.00    +0.285 C 
ENDROOT
BRANCH  18  19
ATOM      4  O   UNL     1      14.444   9.307   4.506  0.00  0.00    -0.350 OA
ATOM      7  N   UNL     1      15.371   9.856   5.382  0.00  0.00    -0.086 NA
ATOM     19  C   UNL     1      14.545   7.954   4.536  0.00  0.00    +0.222 A 
ATOM     20  C   UNL     1      15.526   7.585   5.418  0.00  0.00    +0.077 A 
ATOM     21  C   UNL     1      16.006   8.808   5.915  0.00  0.00    +0.157 A 
ENDBRANCH  18  19
BRANCH   5  12
ATOM     12  C   UNL     1      10.092   6.458   8.091  0.00  0.00    +0.111 C 
BRANCH  12   8
ATOM      8  C   UNL     1       9.219   5.474   8.792  0.00  0.00    +0.006 C 
ATOM     10  C   UNL     1       9.577   4.018   8.750  0.00  0.00    +0.005 C 
ATOM     11  C   UNL     1       9.730   4.792  10.027  0.00  0.00    +0.005 C 
ENDBRANCH  12   8
ENDBRANCH   5  12
TORSDOF 3
ENDMDL
MODEL 8
REMARK VINA RESULT:      -5.2     12.536     15.189
REMARK  Name = 56775233
REMARK  3 active torsions:
REMARK  status: ('A' for Active; 'I' for Inactive)
REMARK    1  A    between atoms: N_5  and  C_12
REMARK    2  A    between atoms: C_8  and  C_12
REMARK    3  A    between atoms: C_18  and  C_19
REMARK                            x       y       z     vdW  Elec       q    Type
REMARK                         _______ _______ _______ _____ _____    ______ ____
ROOT
ATOM      1  O   UNL     1      10.029   8.738   4.014  0.00  0.00    -0.364 OA
ATOM      2  O   UNL     1      10.991   8.725   7.440  0.00  0.00    -0.273 OA
ATOM      3  O   UNL     1      10.862   5.898   0.233  0.00  0.00    -0.267 OA
ATOM      5  N   UNL     1      10.394   6.926   6.090  0.00  0.00    -0.292 N 
ATOM      6  N   UNL     1      10.721   6.226   2.528  0.00  0.00    -0.291 N 
ATOM      9  C   UNL     1      10.002   6.454   4.769  0.00  0.00    +0.124 C 
ATOM     13  C   UNL     1       9.310   7.512   3.914  0.00  0.00    +0.158 C 
ATOM     14  C   UNL     1      11.197   6.050   3.899  0.00  0.00    +0.133 C 
ATOM     15  C   UNL     1       9.469   6.972   2.498  0.00  0.00    +0.141 C 
ATOM     16  C   UNL     1      10.535   8.279   6.386  0.00  0.00    +0.242 C 
ATOM     17  C   UNL     1       9.994   9.231   5.334  0.00  0.00    +0.256 C 
ATOM     18  C   UNL     1      11.295   5.724   1.370  0.00  0.00    +0.285 C 
ENDROOT
BRANCH  18  19
ATOM      4  O   UNL     1      12.380   3.561   1.582  0.00  0.00    -0.350 OA
ATOM      7  N   UNL     1      13.636   2.983   1.715  0.00  0.00    -0.086 NA
ATOM     19  C   UNL     1      12.513   4.910   1.513  0.00  0.00    +0.222 A 
ATOM     20  C   UNL     1      13.838   5.247   1.598  0.00  0.00    +0.077 A 
ATOM     21  C   UNL     1      14.490   4.010   1.723  0.00  0.00    +0.157 A 
ENDBRANCH  18  19
BRANCH   5  12
ATOM     12  C   UNL     1      10.799   5.915   7.059  0.00  0.00    +0.111 C 
BRANCH  12   8
ATOM      8  C   UNL     1       9.615   5.326   7.747  0.00  0.00    +0.006 C 
ATOM     10  C   UNL     1       9.713   3.941   8.316  0.00  0.00    +0.005 C 
ATOM     11  C   UNL     1       9.657   5.127   9.234  0.00  0.00    +0.005 C 
ENDBRANCH  12   8
ENDBRANCH   5  12
TORSDOF 3
ENDMDL
MODEL 9
REMARK VINA RESULT:      -5.2     11.612     13.954
REMARK  Name = 56775233
REMARK  3 active torsions:
REMARK  status: ('A' for Active; 'I' for Inactive)
REMARK    1  A    between atoms: N_5  and  C_12
REMARK    2  A    between atoms: C_8  and  C_12
REMARK    3  A    between atoms: C_18  and  C_19
REMARK                            x       y       z     vdW  Elec       q    Type
REMARK                         _______ _______ _______ _____ _____    ______ ____
ROOT
ATOM      1  O   UNL     1      12.406   6.650   3.169  0.00  0.00    -0.364 OA
ATOM      2  O   UNL     1      15.786   7.035   4.215  0.00  0.00    -0.273 OA
ATOM      3  O   UNL     1       8.197   6.064   5.402  0.00  0.00    -0.267 OA
ATOM      5  N   UNL     1      13.859   7.926   5.167  0.00  0.00    -0.292 N 
ATOM      6  N   UNL     1      10.401   6.795   5.395  0.00  0.00    -0.291 N 
ATOM      9  C   UNL     1      12.405   8.024   5.144  0.00  0.00    +0.124 C 
ATOM     13  C   UNL     1      11.791   7.788   3.767  0.00  0.00    +0.158 C 
ATOM     14  C   UNL     1      11.720   6.957   6.003  0.00  0.00    +0.133 C 
ATOM     15  C   UNL     1      10.342   7.441   4.088  0.00  0.00    +0.141 C 
ATOM     16  C   UNL     1      14.576   7.262   4.175  0.00  0.00    +0.242 C 
ATOM     17  C   UNL     1      13.777   6.888   2.939  0.00  0.00    +0.256 C 
ATOM     18  C   UNL     1       9.290   6.180   5.952  0.00  0.00    +0.285 C 
ENDROOT
BRANCH  18  19
ATOM      4  O   UNL     1       9.889   4.365   7.451  0.00  0.00    -0.350 OA
ATOM      7  N   UNL     1       9.941   4.043   8.801  0.00  0.00    -0.086 NA
ATOM     19  C   UNL     1       9.426   5.634   7.311  0.00  0.00    +0.222 A 
ATOM     20  C   UNL     1       9.166   6.168   8.545  0.00  0.00    +0.077 A 
ATOM     21  C   UNL     1       9.504   5.135   9.435  0.00  0.00    +0.157 A 
ENDBRANCH  18  19
BRANCH   5  12
ATOM     12  C   UNL     1      14.534   8.411   6.363  0.00  0.00    +0.111 C 
BRANCH  12   8
ATOM      8  C   UNL     1      14.463   9.897   6.456  0.00  0.00    +0.006 C 
ATOM     10  C   UNL     1      15.731  10.681   6.633  0.00  0.00    +0.005 C 
ATOM     11  C   UNL     1      14.995  10.728   5.326  0.00  0.00    +0.005 C 
ENDBRANCH  12   8
ENDBRANCH   5  12
TORSDOF 3
ENDMDL
MODEL 10
REMARK VINA RESULT:      -5.2     31.706     32.838
REMARK  Name = 56775233
REMARK  3 active torsions:
REMARK  status: ('A' for Active; 'I' for Inactive)
REMARK    1  A    between atoms: N_5  and  C_12
REMARK    2  A    between atoms: C_8  and  C_12
REMARK    3  A    between atoms: C_18  and  C_19
REMARK                            x       y       z     vdW  Elec       q    Type
REMARK                         _______ _______ _______ _____ _____    ______ ____
ROOT
ATOM      1  O   UNL     1     -14.654   1.857  33.166  0.00  0.00    -0.364 OA
ATOM      2  O   UNL     1     -15.234   4.929  34.866  0.00  0.00    -0.273 OA
ATOM      3  O   UNL     1     -15.337   0.262  28.689  0.00  0.00    -0.267 OA
ATOM      5  N   UNL     1     -14.459   4.591  32.698  0.00  0.00    -0.292 N 
ATOM      6  N   UNL     1     -15.021   2.004  30.193  0.00  0.00    -0.291 N 
ATOM      9  C   UNL     1     -14.126   3.643  31.643  0.00  0.00    +0.124 C 
ATOM     13  C   UNL     1     -13.735   2.260  32.155  0.00  0.00    +0.158 C 
ATOM     14  C   UNL     1     -15.310   3.336  30.720  0.00  0.00    +0.133 C 
ATOM     15  C   UNL     1     -13.938   1.369  30.935  0.00  0.00    +0.141 C 
ATOM     16  C   UNL     1     -14.816   4.182  33.981  0.00  0.00    +0.242 C 
ATOM     17  C   UNL     1     -14.573   2.714  34.283  0.00  0.00    +0.256 C 
ATOM     18  C   UNL     1     -15.610   1.389  29.099  0.00  0.00    +0.285 C 
ENDROOT
BRANCH  18  19
ATOM      4  O   UNL     1     -16.227   3.000  27.389  0.00  0.00    -0.350 OA
ATOM      7  N   UNL     1     -17.338   3.613  26.822  0.00  0.00    -0.086 NA
ATOM     19  C   UNL     1     -16.634   2.146  28.363  0.00  0.00    +0.222 A 
ATOM     20  C   UNL     1     -18.000   2.175  28.459  0.00  0.00    +0.077 A 
ATOM     21  C   UNL     1     -18.385   3.104  27.478  0.00  0.00    +0.157 A 
ENDBRANCH  18  19
BRANCH   5  12
ATOM     12  C   UNL     1     -14.567   5.993  32.317  0.00  0.00    +0.111 C 
BRANCH  12   8
ATOM      8  C   UNL     1     -13.333   6.746  32.683  0.00  0.00    +0.006 C 
ATOM     10  C   UNL     1     -13.232   8.201  32.330  0.00  0.00    +0.005 C 
ATOM     11  C   UNL     1     -13.403   7.786  33.762  0.00  0.00    +0.005 C 
ENDBRANCH  12   8
ENDBRANCH   5  12
TORSDOF 3
ENDMDL
