MODEL 1
REMARK VINA RESULT:      -6.9      0.000      0.000
REMARK  Name = 26742542
REMARK  11 active torsions:
REMARK  status: ('A' for Active; 'I' for Inactive)
REMARK    1  A    between atoms: O_3  and  C_23
REMARK    2  A    between atoms: O_3  and  C_33
REMARK    3  A    between atoms: O_4  and  C_27
REMARK    4  A    between atoms: O_4  and  C_34
REMARK    5  A    between atoms: O_5  and  C_32
REMARK    6  A    between atoms: O_5  and  C_35
REMARK    7  A    between atoms: N_7  and  C_18
REMARK    8  A    between atoms: C_17  and  C_20
REMARK    9  A    between atoms: C_18  and  C_19
REMARK   10  A    between atoms: C_19  and  C_21
REMARK   11  A    between atoms: C_20  and  C_22
REMARK                            x       y       z     vdW  Elec       q    Type
REMARK                         _______ _______ _______ _____ _____    ______ ____
ROOT
ATOM      1  O   UNL     1      -6.519  -9.922  18.874  0.00  0.00    -0.276 OA
ATOM      2  O   UNL     1      -1.602  -9.828  13.891  0.00  0.00    -0.275 OA
ATOM      6  N   UNL     1      -2.701 -11.551  14.997  0.00  0.00    -0.301 N 
ATOM      7  N   UNL     1      -7.154 -10.648  16.764  0.00  0.00    -0.301 N 
ATOM      8  C   UNL     1      -4.778 -12.651  15.815  0.00  0.00    +0.011 C 
ATOM      9  C   UNL     1      -4.437 -12.142  17.236  0.00  0.00    +0.004 C 
ATOM     10  C   UNL     1      -3.587 -10.860  17.190  0.00  0.00    +0.023 C 
ATOM     11  C   UNL     1      -3.480 -12.795  14.994  0.00  0.00    +0.111 C 
ATOM     12  C   UNL     1      -5.798 -11.798  15.040  0.00  0.00    +0.024 C 
ATOM     13  C   UNL     1      -5.651 -12.021  18.165  0.00  0.00    +0.100 C 
ATOM     14  C   UNL     1      -2.342 -11.057  16.327  0.00  0.00    +0.108 C 
ATOM     15  C   UNL     1      -7.150 -11.687  15.736  0.00  0.00    +0.108 C 
ATOM     16  C   UNL     1      -6.481 -10.766  17.974  0.00  0.00    +0.216 C 
ATOM     17  C   UNL     1      -2.278 -10.860  13.862  0.00  0.00    +0.220 C 
ENDROOT
BRANCH   7  18
ATOM     18  C   UNL     1      -7.906  -9.437  16.462  0.00  0.00    +0.112 C 
BRANCH  18  19
ATOM     19  C   UNL     1      -9.388  -9.565  16.809  0.00  0.00    +0.058 C 
BRANCH  19  21
ATOM     21  C   UNL     1     -10.233  -8.480  16.190  0.00  0.00    -0.001 A 
ATOM     23  C   UNL     1     -10.803  -8.650  14.928  0.00  0.00    +0.165 A 
ATOM     24  C   UNL     1     -10.442  -7.294  16.895  0.00  0.00    +0.007 A 
ATOM     27  C   UNL     1     -11.582  -7.635  14.372  0.00  0.00    +0.162 A 
ATOM     28  C   UNL     1     -11.221  -6.279  16.338  0.00  0.00    +0.004 A 
ATOM     31  C   UNL     1     -11.791  -6.450  15.077  0.00  0.00    +0.049 A 
BRANCH  23   3
ATOM      3  O   UNL     1     -10.601  -9.808  14.235  0.00  0.00    -0.491 OA
ATOM     33  C   UNL     1      -9.570  -9.799  13.250  0.00  0.00    +0.277 C 
ENDBRANCH  23   3
BRANCH  27   4
ATOM      4  O   UNL     1     -12.146  -7.789  13.141  0.00  0.00    -0.491 OA
ATOM     34  C   UNL     1     -12.942  -6.711  12.654  0.00  0.00    +0.277 C 
ENDBRANCH  27   4
ENDBRANCH  19  21
ENDBRANCH  18  19
ENDBRANCH   7  18
BRANCH  17  20
ATOM     20  C   UNL     1      -2.692 -11.432  12.530  0.00  0.00    +0.131 C 
BRANCH  20  22
ATOM     22  C   UNL     1      -3.491 -10.433  11.752  0.00  0.00    -0.038 A 
ATOM     25  C   UNL     1      -2.957  -9.861  10.598  0.00  0.00    +0.007 A 
ATOM     26  C   UNL     1      -4.771 -10.078  12.180  0.00  0.00    +0.007 A 
ATOM     29  C   UNL     1      -3.703  -8.932   9.871  0.00  0.00    +0.046 A 
ATOM     30  C   UNL     1      -5.516  -9.151  11.453  0.00  0.00    +0.046 A 
ATOM     32  C   UNL     1      -4.983  -8.577  10.299  0.00  0.00    +0.120 A 
BRANCH  32   5
ATOM      5  O   UNL     1      -5.711  -7.673   9.589  0.00  0.00    -0.495 OA
ATOM     35  C   UNL     1      -6.909  -8.144   8.973  0.00  0.00    +0.277 C 
ENDBRANCH  32   5
ENDBRANCH  20  22
ENDBRANCH  17  20
TORSDOF 8
ENDMDL
MODEL 2
REMARK VINA RESULT:      -6.7      2.833      5.348
REMARK  Name = 26742542
REMARK  11 active torsions:
REMARK  status: ('A' for Active; 'I' for Inactive)
REMARK    1  A    between atoms: O_3  and  C_23
REMARK    2  A    between atoms: O_3  and  C_33
REMARK    3  A    between atoms: O_4  and  C_27
REMARK    4  A    between atoms: O_4  and  C_34
REMARK    5  A    between atoms: O_5  and  C_32
REMARK    6  A    between atoms: O_5  and  C_35
REMARK    7  A    between atoms: N_7  and  C_18
REMARK    8  A    between atoms: C_17  and  C_20
REMARK    9  A    between atoms: C_18  and  C_19
REMARK   10  A    between atoms: C_19  and  C_21
REMARK   11  A    between atoms: C_20  and  C_22
REMARK                            x       y       z     vdW  Elec       q    Type
REMARK                         _______ _______ _______ _____ _____    ______ ____
ROOT
ATOM      1  O   UNL     1      -0.961 -11.120  15.320  0.00  0.00    -0.276 OA
ATOM      2  O   UNL     1      -4.606  -7.851  10.316  0.00  0.00    -0.275 OA
ATOM      6  N   UNL     1      -4.035 -10.077  10.659  0.00  0.00    -0.301 N 
ATOM      7  N   UNL     1      -3.240 -11.544  15.240  0.00  0.00    -0.301 N 
ATOM      8  C   UNL     1      -3.881 -12.099  12.103  0.00  0.00    +0.011 C 
ATOM      9  C   UNL     1      -2.364 -11.831  12.242  0.00  0.00    +0.004 C 
ATOM     10  C   UNL     1      -2.033 -10.338  12.071  0.00  0.00    +0.023 C 
ATOM     11  C   UNL     1      -4.391 -11.496  10.777  0.00  0.00    +0.111 C 
ATOM     12  C   UNL     1      -4.746 -11.597  13.274  0.00  0.00    +0.024 C 
ATOM     13  C   UNL     1      -1.734 -12.443  13.499  0.00  0.00    +0.100 C 
ATOM     14  C   UNL     1      -2.603  -9.795  10.763  0.00  0.00    +0.108 C 
ATOM     15  C   UNL     1      -4.373 -12.223  14.614  0.00  0.00    +0.108 C 
ATOM     16  C   UNL     1      -1.935 -11.642  14.772  0.00  0.00    +0.216 C 
ATOM     17  C   UNL     1      -4.934  -9.034  10.437  0.00  0.00    +0.220 C 
ENDROOT
BRANCH   7  18
ATOM     18  C   UNL     1      -3.537 -10.724  16.408  0.00  0.00    +0.112 C 
BRANCH  18  19
ATOM     19  C   UNL     1      -4.938 -10.119  16.360  0.00  0.00    +0.058 C 
BRANCH  19  21
ATOM     21  C   UNL     1      -5.778 -10.485  17.558  0.00  0.00    -0.001 A 
ATOM     23  C   UNL     1      -7.160 -10.296  17.547  0.00  0.00    +0.165 A 
ATOM     24  C   UNL     1      -5.157 -11.019  18.688  0.00  0.00    +0.007 A 
ATOM     27  C   UNL     1      -7.920 -10.640  18.664  0.00  0.00    +0.162 A 
ATOM     28  C   UNL     1      -5.917 -11.363  19.805  0.00  0.00    +0.004 A 
ATOM     31  C   UNL     1      -7.300 -11.174  19.793  0.00  0.00    +0.049 A 
BRANCH  23   3
ATOM      3  O   UNL     1      -7.771  -9.775  16.444  0.00  0.00    -0.491 OA
ATOM     33  C   UNL     1      -8.256 -10.703  15.476  0.00  0.00    +0.277 C 
ENDBRANCH  23   3
BRANCH  27   4
ATOM      4  O   UNL     1      -9.271 -10.463  18.666  0.00  0.00    -0.491 OA
ATOM     34  C   UNL     1      -9.969 -10.806  19.861  0.00  0.00    +0.277 C 
ENDBRANCH  27   4
ENDBRANCH  19  21
ENDBRANCH  18  19
ENDBRANCH   7  18
BRANCH  17  20
ATOM     20  C   UNL     1      -6.392  -9.407  10.346  0.00  0.00    +0.131 C 
BRANCH  20  22
ATOM     22  C   UNL     1      -6.975  -8.945   9.047  0.00  0.00    -0.038 A 
ATOM     25  C   UNL     1      -6.565  -9.533   7.850  0.00  0.00    +0.007 A 
ATOM     26  C   UNL     1      -7.929  -7.927   9.033  0.00  0.00    +0.007 A 
ATOM     29  C   UNL     1      -7.110  -9.104   6.639  0.00  0.00    +0.046 A 
ATOM     30  C   UNL     1      -8.474  -7.499   7.823  0.00  0.00    +0.046 A 
ATOM     32  C   UNL     1      -8.066  -8.087   6.627  0.00  0.00    +0.120 A 
BRANCH  32   5
ATOM      5  O   UNL     1      -8.598  -7.670   5.446  0.00  0.00    -0.495 OA
ATOM     35  C   UNL     1      -8.008  -8.181   4.251  0.00  0.00    +0.277 C 
ENDBRANCH  32   5
ENDBRANCH  20  22
ENDBRANCH  17  20
TORSDOF 8
ENDMDL
MODEL 3
REMARK VINA RESULT:      -6.5      2.228      6.114
REMARK  Name = 26742542
REMARK  11 active torsions:
REMARK  status: ('A' for Active; 'I' for Inactive)
REMARK    1  A    between atoms: O_3  and  C_23
REMARK    2  A    between atoms: O_3  and  C_33
REMARK    3  A    between atoms: O_4  and  C_27
REMARK    4  A    between atoms: O_4  and  C_34
REMARK    5  A    between atoms: O_5  and  C_32
REMARK    6  A    between atoms: O_5  and  C_35
REMARK    7  A    between atoms: N_7  and  C_18
REMARK    8  A    between atoms: C_17  and  C_20
REMARK    9  A    between atoms: C_18  and  C_19
REMARK   10  A    between atoms: C_19  and  C_21
REMARK   11  A    between atoms: C_20  and  C_22
REMARK                            x       y       z     vdW  Elec       q    Type
REMARK                         _______ _______ _______ _____ _____    ______ ____
ROOT
ATOM      1  O   UNL     1      -6.747 -11.746   9.009  0.00  0.00    -0.276 OA
ATOM      2  O   UNL     1      -3.203 -13.317  14.839  0.00  0.00    -0.275 OA
ATOM      6  N   UNL     1      -2.740 -11.933  13.030  0.00  0.00    -0.301 N 
ATOM      7  N   UNL     1      -6.511 -10.053  10.578  0.00  0.00    -0.301 N 
ATOM      8  C   UNL     1      -3.377 -10.133  11.434  0.00  0.00    +0.011 C 
ATOM      9  C   UNL     1      -3.609 -11.225  10.362  0.00  0.00    +0.004 C 
ATOM     10  C   UNL     1      -3.979 -12.576  11.000  0.00  0.00    +0.023 C 
ATOM     11  C   UNL     1      -2.348 -10.636  12.467  0.00  0.00    +0.111 C 
ATOM     12  C   UNL     1      -4.646  -9.641  12.154  0.00  0.00    +0.024 C 
ATOM     13  C   UNL     1      -4.573 -10.809   9.243  0.00  0.00    +0.100 C 
ATOM     14  C   UNL     1      -2.944 -12.993  12.043  0.00  0.00    +0.108 C 
ATOM     15  C   UNL     1      -5.680  -9.033  11.212  0.00  0.00    +0.108 C 
ATOM     16  C   UNL     1      -6.045 -10.916   9.593  0.00  0.00    +0.216 C 
ATOM     17  C   UNL     1      -2.896 -12.210  14.388  0.00  0.00    +0.220 C 
ENDROOT
BRANCH   7  18
ATOM     18  C   UNL     1      -7.892 -10.146  11.035  0.00  0.00    +0.112 C 
BRANCH  18  19
ATOM     19  C   UNL     1      -8.089  -9.558  12.430  0.00  0.00    +0.058 C 
BRANCH  19  21
ATOM     21  C   UNL     1      -8.139 -10.610  13.510  0.00  0.00    -0.001 A 
ATOM     23  C   UNL     1      -9.083 -10.538  14.534  0.00  0.00    +0.165 A 
ATOM     24  C   UNL     1      -7.225 -11.665  13.476  0.00  0.00    +0.007 A 
ATOM     27  C   UNL     1      -9.114 -11.521  15.524  0.00  0.00    +0.162 A 
ATOM     28  C   UNL     1      -7.257 -12.647  14.466  0.00  0.00    +0.004 A 
ATOM     31  C   UNL     1      -8.202 -12.575  15.490  0.00  0.00    +0.049 A 
BRANCH  23   3
ATOM      3  O   UNL     1      -9.978  -9.510  14.571  0.00  0.00    -0.491 OA
ATOM     33  C   UNL     1      -9.693  -8.438  15.467  0.00  0.00    +0.277 C 
ENDBRANCH  23   3
BRANCH  27   4
ATOM      4  O   UNL     1     -10.032 -11.464  16.529  0.00  0.00    -0.491 OA
ATOM     34  C   UNL     1     -10.383 -12.696  17.156  0.00  0.00    +0.277 C 
ENDBRANCH  27   4
ENDBRANCH  19  21
ENDBRANCH  18  19
ENDBRANCH   7  18
BRANCH  17  20
ATOM     20  C   UNL     1      -2.672 -11.064  15.341  0.00  0.00    +0.131 C 
BRANCH  20  22
ATOM     22  C   UNL     1      -3.906 -10.797  16.146  0.00  0.00    -0.038 A 
ATOM     25  C   UNL     1      -4.082 -11.421  17.380  0.00  0.00    +0.007 A 
ATOM     26  C   UNL     1      -4.879  -9.922  15.661  0.00  0.00    +0.007 A 
ATOM     29  C   UNL     1      -5.231 -11.170  18.131  0.00  0.00    +0.046 A 
ATOM     30  C   UNL     1      -6.026  -9.670  16.412  0.00  0.00    +0.046 A 
ATOM     32  C   UNL     1      -6.203 -10.294  17.647  0.00  0.00    +0.120 A 
BRANCH  32   5
ATOM      5  O   UNL     1      -7.323 -10.048  18.380  0.00  0.00    -0.495 OA
ATOM     35  C   UNL     1      -7.724 -11.056  19.308  0.00  0.00    +0.277 C 
ENDBRANCH  32   5
ENDBRANCH  20  22
ENDBRANCH  17  20
TORSDOF 8
ENDMDL
MODEL 4
REMARK VINA RESULT:      -6.5      1.829      7.067
REMARK  Name = 26742542
REMARK  11 active torsions:
REMARK  status: ('A' for Active; 'I' for Inactive)
REMARK    1  A    between atoms: O_3  and  C_23
REMARK    2  A    between atoms: O_3  and  C_33
REMARK    3  A    between atoms: O_4  and  C_27
REMARK    4  A    between atoms: O_4  and  C_34
REMARK    5  A    between atoms: O_5  and  C_32
REMARK    6  A    between atoms: O_5  and  C_35
REMARK    7  A    between atoms: N_7  and  C_18
REMARK    8  A    between atoms: C_17  and  C_20
REMARK    9  A    between atoms: C_18  and  C_19
REMARK   10  A    between atoms: C_19  and  C_21
REMARK   11  A    between atoms: C_20  and  C_22
REMARK                            x       y       z     vdW  Elec       q    Type
REMARK                         _______ _______ _______ _____ _____    ______ ____
ROOT
ATOM      1  O   UNL     1      -4.284 -13.582  15.346  0.00  0.00    -0.276 OA
ATOM      2  O   UNL     1     -10.528 -10.497  16.048  0.00  0.00    -0.275 OA
ATOM      6  N   UNL     1      -8.905 -11.149  17.578  0.00  0.00    -0.301 N 
ATOM      7  N   UNL     1      -4.284 -11.369  16.039  0.00  0.00    -0.301 N 
ATOM      8  C   UNL     1      -6.547 -11.220  18.368  0.00  0.00    +0.011 C 
ATOM      9  C   UNL     1      -6.468 -12.682  17.869  0.00  0.00    +0.004 C 
ATOM     10  C   UNL     1      -7.451 -12.941  16.713  0.00  0.00    +0.023 C 
ATOM     11  C   UNL     1      -8.010 -10.868  18.707  0.00  0.00    +0.111 C 
ATOM     12  C   UNL     1      -5.963 -10.167  17.408  0.00  0.00    +0.024 C 
ATOM     13  C   UNL     1      -5.044 -13.162  17.561  0.00  0.00    +0.100 C 
ATOM     14  C   UNL     1      -8.871 -12.531  17.098  0.00  0.00    +0.108 C 
ATOM     15  C   UNL     1      -4.485 -10.382  17.099  0.00  0.00    +0.108 C 
ATOM     16  C   UNL     1      -4.500 -12.731  16.212  0.00  0.00    +0.216 C 
ATOM     17  C   UNL     1      -9.766 -10.229  16.981  0.00  0.00    +0.220 C 
ENDROOT
BRANCH   7  18
ATOM     18  C   UNL     1      -3.844 -10.858  14.748  0.00  0.00    +0.112 C 
BRANCH  18  19
ATOM     19  C   UNL     1      -5.003 -10.362  13.886  0.00  0.00    +0.058 C 
BRANCH  19  21
ATOM     21  C   UNL     1      -4.571  -9.943  12.503  0.00  0.00    -0.001 A 
ATOM     23  C   UNL     1      -5.419  -9.195  11.686  0.00  0.00    +0.165 A 
ATOM     24  C   UNL     1      -3.307 -10.314  12.043  0.00  0.00    +0.007 A 
ATOM     27  C   UNL     1      -5.002  -8.817  10.410  0.00  0.00    +0.162 A 
ATOM     28  C   UNL     1      -2.891  -9.935  10.767  0.00  0.00    +0.004 A 
ATOM     31  C   UNL     1      -3.738  -9.186   9.950  0.00  0.00    +0.049 A 
BRANCH  23   3
ATOM      3  O   UNL     1      -6.656  -8.831  12.132  0.00  0.00    -0.491 OA
ATOM     33  C   UNL     1      -7.710  -9.773  11.950  0.00  0.00    +0.277 C 
ENDBRANCH  23   3
BRANCH  27   4
ATOM      4  O   UNL     1      -5.819  -8.085   9.602  0.00  0.00    -0.491 OA
ATOM     34  C   UNL     1      -6.555  -8.795   8.608  0.00  0.00    +0.277 C 
ENDBRANCH  27   4
ENDBRANCH  19  21
ENDBRANCH  18  19
ENDBRANCH   7  18
BRANCH  17  20
ATOM     20  C   UNL     1      -9.740  -8.825  17.530  0.00  0.00    +0.131 C 
BRANCH  20  22
ATOM     22  C   UNL     1     -10.633  -7.929  16.731  0.00  0.00    -0.038 A 
ATOM     25  C   UNL     1     -10.081  -6.932  15.926  0.00  0.00    +0.007 A 
ATOM     26  C   UNL     1     -12.018  -8.091  16.788  0.00  0.00    +0.007 A 
ATOM     29  C   UNL     1     -10.914  -6.097  15.180  0.00  0.00    +0.046 A 
ATOM     30  C   UNL     1     -12.849  -7.259  16.041  0.00  0.00    +0.046 A 
ATOM     32  C   UNL     1     -12.298  -6.262  15.237  0.00  0.00    +0.120 A 
BRANCH  32   5
ATOM      5  O   UNL     1     -13.110  -5.449  14.507  0.00  0.00    -0.495 OA
ATOM     35  C   UNL     1     -12.498  -4.683  13.469  0.00  0.00    +0.277 C 
ENDBRANCH  32   5
ENDBRANCH  20  22
ENDBRANCH  17  20
TORSDOF 8
ENDMDL
MODEL 5
REMARK VINA RESULT:      -6.4     24.343     27.677
REMARK  Name = 26742542
REMARK  11 active torsions:
REMARK  status: ('A' for Active; 'I' for Inactive)
REMARK    1  A    between atoms: O_3  and  C_23
REMARK    2  A    between atoms: O_3  and  C_33
REMARK    3  A    between atoms: O_4  and  C_27
REMARK    4  A    between atoms: O_4  and  C_34
REMARK    5  A    between atoms: O_5  and  C_32
REMARK    6  A    between atoms: O_5  and  C_35
REMARK    7  A    between atoms: N_7  and  C_18
REMARK    8  A    between atoms: C_17  and  C_20
REMARK    9  A    between atoms: C_18  and  C_19
REMARK   10  A    between atoms: C_19  and  C_21
REMARK   11  A    between atoms: C_20  and  C_22
REMARK                            x       y       z     vdW  Elec       q    Type
REMARK                         _______ _______ _______ _____ _____    ______ ____
ROOT
ATOM      1  O   UNL     1      15.716   7.340   4.772  0.00  0.00    -0.276 OA
ATOM      2  O   UNL     1       9.396   5.166   6.857  0.00  0.00    -0.275 OA
ATOM      6  N   UNL     1      10.617   7.102   7.262  0.00  0.00    -0.301 N 
ATOM      7  N   UNL     1      13.884   8.476   3.914  0.00  0.00    -0.301 N 
ATOM      8  C   UNL     1      11.969   9.039   6.479  0.00  0.00    +0.011 C 
ATOM      9  C   UNL     1      13.235   8.301   6.978  0.00  0.00    +0.004 C 
ATOM     10  C   UNL     1      13.041   6.774   6.972  0.00  0.00    +0.023 C 
ATOM     11  C   UNL     1      10.744   8.564   7.287  0.00  0.00    +0.111 C 
ATOM     12  C   UNL     1      11.686   8.909   4.971  0.00  0.00    +0.024 C 
ATOM     13  C   UNL     1      14.530   8.742   6.285  0.00  0.00    +0.100 C 
ATOM     14  C   UNL     1      11.789   6.376   7.750  0.00  0.00    +0.108 C 
ATOM     15  C   UNL     1      12.810   9.451   4.095  0.00  0.00    +0.108 C 
ATOM     16  C   UNL     1      14.771   8.120   4.923  0.00  0.00    +0.216 C 
ATOM     17  C   UNL     1       9.488   6.397   6.845  0.00  0.00    +0.220 C 
ENDROOT
BRANCH   7  18
ATOM     18  C   UNL     1      13.990   7.861   2.597  0.00  0.00    +0.112 C 
BRANCH  18  19
ATOM     19  C   UNL     1      13.227   6.542   2.502  0.00  0.00    +0.058 C 
BRANCH  19  21
ATOM     21  C   UNL     1      12.501   6.375   1.191  0.00  0.00    -0.001 A 
ATOM     23  C   UNL     1      11.947   5.146   0.832  0.00  0.00    +0.165 A 
ATOM     24  C   UNL     1      12.387   7.469   0.332  0.00  0.00    +0.007 A 
ATOM     27  C   UNL     1      11.279   5.011  -0.385  0.00  0.00    +0.162 A 
ATOM     28  C   UNL     1      11.718   7.334  -0.885  0.00  0.00    +0.004 A 
ATOM     31  C   UNL     1      11.164   6.104  -1.243  0.00  0.00    +0.049 A 
BRANCH  23   3
ATOM      3  O   UNL     1      12.056   4.074   1.669  0.00  0.00    -0.491 OA
ATOM     33  C   UNL     1      13.183   3.221   1.481  0.00  0.00    +0.277 C 
ENDBRANCH  23   3
BRANCH  27   4
ATOM      4  O   UNL     1      10.732   3.817  -0.747  0.00  0.00    -0.491 OA
ATOM     34  C   UNL     1      11.255   3.193  -1.918  0.00  0.00    +0.277 C 
ENDBRANCH  27   4
ENDBRANCH  19  21
ENDBRANCH  18  19
ENDBRANCH   7  18
BRANCH  17  20
ATOM     20  C   UNL     1       8.323   7.217   6.353  0.00  0.00    +0.131 C 
BRANCH  20  22
ATOM     22  C   UNL     1       8.485   7.546   4.901  0.00  0.00    -0.038 A 
ATOM     25  C   UNL     1       7.934   8.719   4.386  0.00  0.00    +0.007 A 
ATOM     26  C   UNL     1       9.188   6.679   4.063  0.00  0.00    +0.007 A 
ATOM     29  C   UNL     1       8.087   9.027   3.034  0.00  0.00    +0.046 A 
ATOM     30  C   UNL     1       9.342   6.987   2.713  0.00  0.00    +0.046 A 
ATOM     32  C   UNL     1       8.791   8.160   2.197  0.00  0.00    +0.120 A 
BRANCH  32   5
ATOM      5  O   UNL     1       8.942   8.462   0.879  0.00  0.00    -0.495 OA
ATOM     35  C   UNL     1       7.993   9.362   0.306  0.00  0.00    +0.277 C 
ENDBRANCH  32   5
ENDBRANCH  20  22
ENDBRANCH  17  20
TORSDOF 8
ENDMDL
MODEL 6
REMARK VINA RESULT:      -6.4     24.345     27.497
REMARK  Name = 26742542
REMARK  11 active torsions:
REMARK  status: ('A' for Active; 'I' for Inactive)
REMARK    1  A    between atoms: O_3  and  C_23
REMARK    2  A    between atoms: O_3  and  C_33
REMARK    3  A    between atoms: O_4  and  C_27
REMARK    4  A    between atoms: O_4  and  C_34
REMARK    5  A    between atoms: O_5  and  C_32
REMARK    6  A    between atoms: O_5  and  C_35
REMARK    7  A    between atoms: N_7  and  C_18
REMARK    8  A    between atoms: C_17  and  C_20
REMARK    9  A    between atoms: C_18  and  C_19
REMARK   10  A    between atoms: C_19  and  C_21
REMARK   11  A    between atoms: C_20  and  C_22
REMARK                            x       y       z     vdW  Elec       q    Type
REMARK                         _______ _______ _______ _____ _____    ______ ____
ROOT
ATOM      1  O   UNL     1      15.361   6.836   4.399  0.00  0.00    -0.276 OA
ATOM      2  O   UNL     1       9.154   5.457   7.328  0.00  0.00    -0.275 OA
ATOM      6  N   UNL     1      10.656   7.215   7.557  0.00  0.00    -0.301 N 
ATOM      7  N   UNL     1      13.591   8.208   3.793  0.00  0.00    -0.301 N 
ATOM      8  C   UNL     1      12.128   8.974   6.592  0.00  0.00    +0.011 C 
ATOM      9  C   UNL     1      13.344   8.075   6.917  0.00  0.00    +0.004 C 
ATOM     10  C   UNL     1      12.958   6.585   6.943  0.00  0.00    +0.023 C 
ATOM     11  C   UNL     1      10.973   8.649   7.560  0.00  0.00    +0.111 C 
ATOM     12  C   UNL     1      11.630   8.902   5.137  0.00  0.00    +0.024 C 
ATOM     13  C   UNL     1      14.580   8.356   6.054  0.00  0.00    +0.100 C 
ATOM     14  C   UNL     1      11.781   6.339   7.885  0.00  0.00    +0.108 C 
ATOM     15  C   UNL     1      12.686   9.309   4.114  0.00  0.00    +0.108 C 
ATOM     16  C   UNL     1      14.554   7.728   4.674  0.00  0.00    +0.216 C 
ATOM     17  C   UNL     1       9.401   6.665   7.300  0.00  0.00    +0.220 C 
ENDROOT
BRANCH   7  18
ATOM     18  C   UNL     1      13.440   7.602   2.476  0.00  0.00    +0.112 C 
BRANCH  18  19
ATOM     19  C   UNL     1      12.182   6.744   2.366  0.00  0.00    +0.058 C 
BRANCH  19  21
ATOM     21  C   UNL     1      12.387   5.504   1.533  0.00  0.00    -0.001 A 
ATOM     23  C   UNL     1      11.437   5.111   0.590  0.00  0.00    +0.165 A 
ATOM     24  C   UNL     1      13.543   4.745   1.714  0.00  0.00    +0.007 A 
ATOM     27  C   UNL     1      11.643   3.961  -0.172  0.00  0.00    +0.162 A 
ATOM     28  C   UNL     1      13.750   3.595   0.952  0.00  0.00    +0.004 A 
ATOM     31  C   UNL     1      12.800   3.203   0.009  0.00  0.00    +0.049 A 
BRANCH  23   3
ATOM      3  O   UNL     1      10.304   5.850   0.409  0.00  0.00    -0.491 OA
ATOM     33  C   UNL     1      10.345   6.857  -0.599  0.00  0.00    +0.277 C 
ENDBRANCH  23   3
BRANCH  27   4
ATOM      4  O   UNL     1      10.725   3.568  -1.097  0.00  0.00    -0.491 OA
ATOM     34  C   UNL     1      11.177   3.432  -2.443  0.00  0.00    +0.277 C 
ENDBRANCH  27   4
ENDBRANCH  19  21
ENDBRANCH  18  19
ENDBRANCH   7  18
BRANCH  17  20
ATOM     20  C   UNL     1       8.295   7.634   6.967  0.00  0.00    +0.131 C 
BRANCH  20  22
ATOM     22  C   UNL     1       8.294   7.953   5.504  0.00  0.00    -0.038 A 
ATOM     25  C   UNL     1       8.710   6.992   4.582  0.00  0.00    +0.007 A 
ATOM     26  C   UNL     1       7.876   9.208   5.063  0.00  0.00    +0.007 A 
ATOM     29  C   UNL     1       8.708   7.288   3.218  0.00  0.00    +0.046 A 
ATOM     30  C   UNL     1       7.873   9.503   3.700  0.00  0.00    +0.046 A 
ATOM     32  C   UNL     1       8.288   8.544   2.778  0.00  0.00    +0.120 A 
BRANCH  32   5
ATOM      5  O   UNL     1       8.284   8.831   1.447  0.00  0.00    -0.495 OA
ATOM     35  C   UNL     1       7.437   9.896   1.016  0.00  0.00    +0.277 C 
ENDBRANCH  32   5
ENDBRANCH  20  22
ENDBRANCH  17  20
TORSDOF 8
ENDMDL
MODEL 7
REMARK VINA RESULT:      -6.3      3.037      9.071
REMARK  Name = 26742542
REMARK  11 active torsions:
REMARK  status: ('A' for Active; 'I' for Inactive)
REMARK    1  A    between atoms: O_3  and  C_23
REMARK    2  A    between atoms: O_3  and  C_33
REMARK    3  A    between atoms: O_4  and  C_27
REMARK    4  A    between atoms: O_4  and  C_34
REMARK    5  A    between atoms: O_5  and  C_32
REMARK    6  A    between atoms: O_5  and  C_35
REMARK    7  A    between atoms: N_7  and  C_18
REMARK    8  A    between atoms: C_17  and  C_20
REMARK    9  A    between atoms: C_18  and  C_19
REMARK   10  A    between atoms: C_19  and  C_21
REMARK   11  A    between atoms: C_20  and  C_22
REMARK                            x       y       z     vdW  Elec       q    Type
REMARK                         _______ _______ _______ _____ _____    ______ ____
ROOT
ATOM      1  O   UNL     1     -10.717 -11.625  17.437  0.00  0.00    -0.276 OA
ATOM      2  O   UNL     1     -13.099  -7.500  12.307  0.00  0.00    -0.275 OA
ATOM      6  N   UNL     1     -13.117  -7.315  14.623  0.00  0.00    -0.301 N 
ATOM      7  N   UNL     1      -9.613  -9.609  17.118  0.00  0.00    -0.301 N 
ATOM      8  C   UNL     1     -11.976  -7.396  16.833  0.00  0.00    +0.011 C 
ATOM      9  C   UNL     1     -12.636  -8.773  17.076  0.00  0.00    +0.004 C 
ATOM     10  C   UNL     1     -12.941  -9.498  15.752  0.00  0.00    +0.023 C 
ATOM     11  C   UNL     1     -12.843  -6.572  15.860  0.00  0.00    +0.111 C 
ATOM     12  C   UNL     1     -10.522  -7.446  16.327  0.00  0.00    +0.024 C 
ATOM     13  C   UNL     1     -11.889  -9.657  18.082  0.00  0.00    +0.100 C 
ATOM     14  C   UNL     1     -13.764  -8.612  14.819  0.00  0.00    +0.108 C 
ATOM     15  C   UNL     1      -9.572  -8.158  17.283  0.00  0.00    +0.108 C 
ATOM     16  C   UNL     1     -10.688 -10.394  17.520  0.00  0.00    +0.216 C 
ATOM     17  C   UNL     1     -12.836  -6.867  13.333  0.00  0.00    +0.220 C 
ENDROOT
BRANCH   7  18
ATOM     18  C   UNL     1      -8.453 -10.227  16.489  0.00  0.00    +0.112 C 
BRANCH  18  19
ATOM     19  C   UNL     1      -7.193  -9.375  16.616  0.00  0.00    +0.058 C 
BRANCH  19  21
ATOM     21  C   UNL     1      -5.997 -10.161  17.093  0.00  0.00    -0.001 A 
ATOM     23  C   UNL     1      -4.952 -10.470  16.223  0.00  0.00    +0.165 A 
ATOM     24  C   UNL     1      -5.944 -10.580  18.423  0.00  0.00    +0.007 A 
ATOM     27  C   UNL     1      -3.854 -11.198  16.682  0.00  0.00    +0.162 A 
ATOM     28  C   UNL     1      -4.846 -11.307  18.883  0.00  0.00    +0.004 A 
ATOM     31  C   UNL     1      -3.800 -11.616  18.012  0.00  0.00    +0.049 A 
BRANCH  23   3
ATOM      3  O   UNL     1      -4.999 -10.062  14.922  0.00  0.00    -0.491 OA
ATOM     33  C   UNL     1      -5.516 -10.992  13.973  0.00  0.00    +0.277 C 
ENDBRANCH  23   3
BRANCH  27   4
ATOM      4  O   UNL     1      -2.826 -11.505  15.844  0.00  0.00    -0.491 OA
ATOM     34  C   UNL     1      -1.634 -10.731  15.968  0.00  0.00    +0.277 C 
ENDBRANCH  27   4
ENDBRANCH  19  21
ENDBRANCH  18  19
ENDBRANCH   7  18
BRANCH  17  20
ATOM     20  C   UNL     1     -12.166  -5.522  13.216  0.00  0.00    +0.131 C 
BRANCH  20  22
ATOM     22  C   UNL     1     -12.997  -4.587  12.393  0.00  0.00    -0.038 A 
ATOM     25  C   UNL     1     -14.152  -4.022  12.934  0.00  0.00    +0.007 A 
ATOM     26  C   UNL     1     -12.615  -4.279  11.087  0.00  0.00    +0.007 A 
ATOM     29  C   UNL     1     -14.926  -3.149  12.168  0.00  0.00    +0.046 A 
ATOM     30  C   UNL     1     -13.388  -3.406  10.323  0.00  0.00    +0.046 A 
ATOM     32  C   UNL     1     -14.543  -2.841  10.862  0.00  0.00    +0.120 A 
BRANCH  32   5
ATOM      5  O   UNL     1     -15.297  -1.988  10.116  0.00  0.00    -0.495 OA
ATOM     35  C   UNL     1     -16.649  -2.369   9.864  0.00  0.00    +0.277 C 
ENDBRANCH  32   5
ENDBRANCH  20  22
ENDBRANCH  17  20
TORSDOF 8
ENDMDL
MODEL 8
REMARK VINA RESULT:      -6.2      2.910      6.050
REMARK  Name = 26742542
REMARK  11 active torsions:
REMARK  status: ('A' for Active; 'I' for Inactive)
REMARK    1  A    between atoms: O_3  and  C_23
REMARK    2  A    between atoms: O_3  and  C_33
REMARK    3  A    between atoms: O_4  and  C_27
REMARK    4  A    between atoms: O_4  and  C_34
REMARK    5  A    between atoms: O_5  and  C_32
REMARK    6  A    between atoms: O_5  and  C_35
REMARK    7  A    between atoms: N_7  and  C_18
REMARK    8  A    between atoms: C_17  and  C_20
REMARK    9  A    between atoms: C_18  and  C_19
REMARK   10  A    between atoms: C_19  and  C_21
REMARK   11  A    between atoms: C_20  and  C_22
REMARK                            x       y       z     vdW  Elec       q    Type
REMARK                         _______ _______ _______ _____ _____    ______ ____
ROOT
ATOM      1  O   UNL     1      -8.889 -10.732  10.366  0.00  0.00    -0.276 OA
ATOM      2  O   UNL     1      -2.793 -13.769  11.987  0.00  0.00    -0.275 OA
ATOM      6  N   UNL     1      -3.334 -11.793  10.889  0.00  0.00    -0.301 N 
ATOM      7  N   UNL     1      -7.590  -9.677  11.974  0.00  0.00    -0.301 N 
ATOM      8  C   UNL     1      -4.585  -9.648  10.737  0.00  0.00    +0.011 C 
ATOM      9  C   UNL     1      -5.522 -10.317   9.703  0.00  0.00    +0.004 C 
ATOM     10  C   UNL     1      -5.592 -11.841   9.905  0.00  0.00    +0.023 C 
ATOM     11  C   UNL     1      -3.208 -10.342  10.710  0.00  0.00    +0.111 C 
ATOM     12  C   UNL     1      -5.123  -9.605  12.179  0.00  0.00    +0.024 C 
ATOM     13  C   UNL     1      -6.906  -9.664   9.599  0.00  0.00    +0.100 C 
ATOM     14  C   UNL     1      -4.195 -12.459   9.912  0.00  0.00    +0.108 C 
ATOM     15  C   UNL     1      -6.438  -8.845  12.313  0.00  0.00    +0.108 C 
ATOM     16  C   UNL     1      -7.891 -10.074  10.676  0.00  0.00    +0.216 C 
ATOM     17  C   UNL     1      -2.691 -12.545  11.872  0.00  0.00    +0.220 C 
ENDROOT
BRANCH   7  18
ATOM     18  C   UNL     1      -8.437 -10.101  13.081  0.00  0.00    +0.112 C 
BRANCH  18  19
ATOM     19  C   UNL     1      -7.791 -11.194  13.930  0.00  0.00    +0.058 C 
BRANCH  19  21
ATOM     21  C   UNL     1      -7.805 -10.879  15.405  0.00  0.00    -0.001 A 
ATOM     23  C   UNL     1      -8.176 -11.847  16.338  0.00  0.00    +0.165 A 
ATOM     24  C   UNL     1      -7.442  -9.602  15.832  0.00  0.00    +0.007 A 
ATOM     27  C   UNL     1      -8.182 -11.538  17.698  0.00  0.00    +0.162 A 
ATOM     28  C   UNL     1      -7.449  -9.293  17.192  0.00  0.00    +0.004 A 
ATOM     31  C   UNL     1      -7.819 -10.261  18.126  0.00  0.00    +0.049 A 
BRANCH  23   3
ATOM      3  O   UNL     1      -8.531 -13.098  15.925  0.00  0.00    -0.491 OA
ATOM     33  C   UNL     1      -7.515 -14.097  15.946  0.00  0.00    +0.277 C 
ENDBRANCH  23   3
BRANCH  27   4
ATOM      4  O   UNL     1      -8.540 -12.474  18.621  0.00  0.00    -0.491 OA
ATOM     34  C   UNL     1      -9.343 -12.034  19.714  0.00  0.00    +0.277 C 
ENDBRANCH  27   4
ENDBRANCH  19  21
ENDBRANCH  18  19
ENDBRANCH   7  18
BRANCH  17  20
ATOM     20  C   UNL     1      -1.823 -11.785  12.843  0.00  0.00    +0.131 C 
BRANCH  20  22
ATOM     22  C   UNL     1      -2.522 -11.619  14.157  0.00  0.00    -0.038 A 
ATOM     25  C   UNL     1      -1.952 -10.828  15.155  0.00  0.00    +0.007 A 
ATOM     26  C   UNL     1      -3.743 -12.255  14.383  0.00  0.00    +0.007 A 
ATOM     29  C   UNL     1      -2.604 -10.672  16.378  0.00  0.00    +0.046 A 
ATOM     30  C   UNL     1      -4.395 -12.098  15.606  0.00  0.00    +0.046 A 
ATOM     32  C   UNL     1      -3.826 -11.307  16.603  0.00  0.00    +0.120 A 
BRANCH  32   5
ATOM      5  O   UNL     1      -4.462 -11.153  17.796  0.00  0.00    -0.495 OA
ATOM     35  C   UNL     1      -4.699 -12.333  18.563  0.00  0.00    +0.277 C 
ENDBRANCH  32   5
ENDBRANCH  20  22
ENDBRANCH  17  20
TORSDOF 8
ENDMDL
MODEL 9
REMARK VINA RESULT:      -6.2      3.478     10.139
REMARK  Name = 26742542
REMARK  11 active torsions:
REMARK  status: ('A' for Active; 'I' for Inactive)
REMARK    1  A    between atoms: O_3  and  C_23
REMARK    2  A    between atoms: O_3  and  C_33
REMARK    3  A    between atoms: O_4  and  C_27
REMARK    4  A    between atoms: O_4  and  C_34
REMARK    5  A    between atoms: O_5  and  C_32
REMARK    6  A    between atoms: O_5  and  C_35
REMARK    7  A    between atoms: N_7  and  C_18
REMARK    8  A    between atoms: C_17  and  C_20
REMARK    9  A    between atoms: C_18  and  C_19
REMARK   10  A    between atoms: C_19  and  C_21
REMARK   11  A    between atoms: C_20  and  C_22
REMARK                            x       y       z     vdW  Elec       q    Type
REMARK                         _______ _______ _______ _____ _____    ______ ____
ROOT
ATOM      1  O   UNL     1      -7.641  -6.745   8.112  0.00  0.00    -0.276 OA
ATOM      2  O   UNL     1     -11.988  -3.163  12.269  0.00  0.00    -0.275 OA
ATOM      6  N   UNL     1     -12.308  -4.362  10.305  0.00  0.00    -0.301 N 
ATOM      7  N   UNL     1      -9.194  -7.981   9.314  0.00  0.00    -0.301 N 
ATOM      8  C   UNL     1     -12.009  -6.406   8.916  0.00  0.00    +0.011 C 
ATOM      9  C   UNL     1     -10.920  -5.652   8.116  0.00  0.00    +0.004 C 
ATOM     10  C   UNL     1     -10.249  -4.557   8.965  0.00  0.00    +0.023 C 
ATOM     11  C   UNL     1     -13.001  -5.391   9.520  0.00  0.00    +0.111 C 
ATOM     12  C   UNL     1     -11.481  -7.344  10.018  0.00  0.00    +0.024 C 
ATOM     13  C   UNL     1      -9.910  -6.569   7.416  0.00  0.00    +0.100 C 
ATOM     14  C   UNL     1     -11.288  -3.614   9.568  0.00  0.00    +0.108 C 
ATOM     15  C   UNL     1     -10.568  -8.445   9.490  0.00  0.00    +0.108 C 
ATOM     16  C   UNL     1      -8.806  -7.104   8.307  0.00  0.00    +0.216 C 
ATOM     17  C   UNL     1     -12.569  -4.051  11.638  0.00  0.00    +0.220 C 
ENDROOT
BRANCH   7  18
ATOM     18  C   UNL     1      -8.211  -8.477  10.268  0.00  0.00    +0.112 C 
BRANCH  18  19
ATOM     19  C   UNL     1      -7.459  -9.702   9.753  0.00  0.00    +0.058 C 
BRANCH  19  21
ATOM     21  C   UNL     1      -5.971  -9.619   9.983  0.00  0.00    -0.001 A 
ATOM     23  C   UNL     1      -5.400 -10.121  11.153  0.00  0.00    +0.165 A 
ATOM     24  C   UNL     1      -5.163  -9.032   9.009  0.00  0.00    +0.007 A 
ATOM     27  C   UNL     1      -4.021 -10.036  11.348  0.00  0.00    +0.162 A 
ATOM     28  C   UNL     1      -3.784  -8.947   9.204  0.00  0.00    +0.004 A 
ATOM     31  C   UNL     1      -3.213  -9.449  10.374  0.00  0.00    +0.049 A 
BRANCH  23   3
ATOM      3  O   UNL     1      -6.186 -10.696  12.108  0.00  0.00    -0.491 OA
ATOM     33  C   UNL     1      -6.545  -9.884  13.223  0.00  0.00    +0.277 C 
ENDBRANCH  23   3
BRANCH  27   4
ATOM      4  O   UNL     1      -3.450 -10.523  12.484  0.00  0.00    -0.491 OA
ATOM     34  C   UNL     1      -2.111 -11.005  12.382  0.00  0.00    +0.277 C 
ENDBRANCH  27   4
ENDBRANCH  19  21
ENDBRANCH  18  19
ENDBRANCH   7  18
BRANCH  17  20
ATOM     20  C   UNL     1     -13.631  -4.869  12.328  0.00  0.00    +0.131 C 
BRANCH  20  22
ATOM     22  C   UNL     1     -13.016  -5.798  13.327  0.00  0.00    -0.038 A 
ATOM     25  C   UNL     1     -13.075  -7.177  13.126  0.00  0.00    +0.007 A 
ATOM     26  C   UNL     1     -12.381  -5.285  14.459  0.00  0.00    +0.007 A 
ATOM     29  C   UNL     1     -12.500  -8.043  14.057  0.00  0.00    +0.046 A 
ATOM     30  C   UNL     1     -11.806  -6.151  15.388  0.00  0.00    +0.046 A 
ATOM     32  C   UNL     1     -11.865  -7.529  15.188  0.00  0.00    +0.120 A 
BRANCH  32   5
ATOM      5  O   UNL     1     -11.302  -8.374  16.094  0.00  0.00    -0.495 OA
ATOM     35  C   UNL     1     -10.449  -7.794  17.080  0.00  0.00    +0.277 C 
ENDBRANCH  32   5
ENDBRANCH  20  22
ENDBRANCH  17  20
TORSDOF 8
ENDMDL
MODEL 10
REMARK VINA RESULT:      -6.1     23.664     27.512
REMARK  Name = 26742542
REMARK  11 active torsions:
REMARK  status: ('A' for Active; 'I' for Inactive)
REMARK    1  A    between atoms: O_3  and  C_23
REMARK    2  A    between atoms: O_3  and  C_33
REMARK    3  A    between atoms: O_4  and  C_27
REMARK    4  A    between atoms: O_4  and  C_34
REMARK    5  A    between atoms: O_5  and  C_32
REMARK    6  A    between atoms: O_5  and  C_35
REMARK    7  A    between atoms: N_7  and  C_18
REMARK    8  A    between atoms: C_17  and  C_20
REMARK    9  A    between atoms: C_18  and  C_19
REMARK   10  A    between atoms: C_19  and  C_21
REMARK   11  A    between atoms: C_20  and  C_22
REMARK                            x       y       z     vdW  Elec       q    Type
REMARK                         _______ _______ _______ _____ _____    ______ ____
ROOT
ATOM      1  O   UNL     1      14.829   6.512   1.983  0.00  0.00    -0.276 OA
ATOM      2  O   UNL     1      12.042   5.050  -4.269  0.00  0.00    -0.275 OA
ATOM      6  N   UNL     1      12.735   3.719  -2.496  0.00  0.00    -0.301 N 
ATOM      7  N   UNL     1      12.670   5.664   1.974  0.00  0.00    -0.301 N 
ATOM      8  C   UNL     1      12.768   3.143  -0.075  0.00  0.00    +0.011 C 
ATOM      9  C   UNL     1      14.189   3.751   0.006  0.00  0.00    +0.004 C 
ATOM     10  C   UNL     1      14.405   4.832  -1.068  0.00  0.00    +0.023 C 
ATOM     11  C   UNL     1      12.497   2.655  -1.513  0.00  0.00    +0.111 C 
ATOM     12  C   UNL     1      11.630   4.073   0.387  0.00  0.00    +0.024 C 
ATOM     13  C   UNL     1      14.592   4.215   1.411  0.00  0.00    +0.100 C 
ATOM     14  C   UNL     1      14.078   4.297  -2.460  0.00  0.00    +0.108 C 
ATOM     15  C   UNL     1      11.767   4.524   1.837  0.00  0.00    +0.108 C 
ATOM     16  C   UNL     1      14.048   5.571   1.818  0.00  0.00    +0.216 C 
ATOM     17  C   UNL     1      11.809   4.171  -3.436  0.00  0.00    +0.220 C 
ENDROOT
BRANCH   7  18
ATOM     18  C   UNL     1      12.055   6.950   2.280  0.00  0.00    +0.112 C 
BRANCH  18  19
ATOM     19  C   UNL     1      12.157   7.310   3.761  0.00  0.00    +0.058 C 
BRANCH  19  21
ATOM     21  C   UNL     1      10.889   7.021   4.525  0.00  0.00    -0.001 A 
ATOM     23  C   UNL     1      10.934   6.645   5.867  0.00  0.00    +0.165 A 
ATOM     24  C   UNL     1       9.661   7.134   3.873  0.00  0.00    +0.007 A 
ATOM     27  C   UNL     1       9.751   6.383   6.558  0.00  0.00    +0.162 A 
ATOM     28  C   UNL     1       8.477   6.871   4.564  0.00  0.00    +0.004 A 
ATOM     31  C   UNL     1       8.523   6.496   5.907  0.00  0.00    +0.049 A 
BRANCH  23   3
ATOM      3  O   UNL     1      12.133   6.534   6.509  0.00  0.00    -0.491 OA
ATOM     33  C   UNL     1      12.682   7.728   7.061  0.00  0.00    +0.277 C 
ENDBRANCH  23   3
BRANCH  27   4
ATOM      4  O   UNL     1       9.780   6.016   7.870  0.00  0.00    -0.491 OA
ATOM     34  C   UNL     1       9.866   4.621   8.152  0.00  0.00    +0.277 C 
ENDBRANCH  27   4
ENDBRANCH  19  21
ENDBRANCH  18  19
ENDBRANCH   7  18
BRANCH  17  20
ATOM     20  C   UNL     1      10.447   3.527  -3.406  0.00  0.00    +0.131 C 
BRANCH  20  22
ATOM     22  C   UNL     1       9.372   4.568  -3.363  0.00  0.00    -0.038 A 
ATOM     25  C   UNL     1       9.309   5.462  -2.294  0.00  0.00    +0.007 A 
ATOM     26  C   UNL     1       8.433   4.645  -4.393  0.00  0.00    +0.007 A 
ATOM     29  C   UNL     1       8.309   6.434  -2.255  0.00  0.00    +0.046 A 
ATOM     30  C   UNL     1       7.435   5.617  -4.354  0.00  0.00    +0.046 A 
ATOM     32  C   UNL     1       7.372   6.511  -3.286  0.00  0.00    +0.120 A 
BRANCH  32   5
ATOM      5  O   UNL     1       6.397   7.461  -3.249  0.00  0.00    -0.495 OA
ATOM     35  C   UNL     1       6.475   8.430  -2.204  0.00  0.00    +0.277 C 
ENDBRANCH  32   5
ENDBRANCH  20  22
ENDBRANCH  17  20
TORSDOF 8
ENDMDL
