MODEL 1
REMARK VINA RESULT:      -6.9      0.000      0.000
REMARK  Name = 71693481
REMARK  10 active torsions:
REMARK  status: ('A' for Active; 'I' for Inactive)
REMARK    1  A    between atoms: S_1  and  N_10
REMARK    2  A    between atoms: S_1  and  C_26
REMARK    3  A    between atoms: O_3  and  C_13
REMARK    4  A    between atoms: N_8  and  C_16
REMARK    5  A    between atoms: N_9  and  C_24
REMARK    6  A    between atoms: N_9  and  C_25
REMARK    7  A    between atoms: N_10  and  C_23
REMARK    8  A    between atoms: C_11  and  C_13
REMARK    9  A    between atoms: C_12  and  C_14
REMARK   10  A    between atoms: C_16  and  C_20
REMARK                            x       y       z     vdW  Elec       q    Type
REMARK                         _______ _______ _______ _____ _____    ______ ____
ROOT
ATOM      2  O   UNL     1      13.730   6.636  19.491  0.00  0.00    -0.361 OA
ATOM      4  O   UNL     1      10.618   8.215  20.209  0.00  0.00    -0.273 OA
ATOM      8  N   UNL     1      12.710   8.605  21.161  0.00  0.00    -0.283 N 
ATOM     11  C   UNL     1      14.144   8.230  21.239  0.00  0.00    +0.135 C 
ATOM     12  C   UNL     1      14.643   7.655  19.899  0.00  0.00    +0.171 C 
ATOM     15  C   UNL     1      11.837   8.033  20.233  0.00  0.00    +0.242 C 
ATOM     17  C   UNL     1      12.481   7.190  19.151  0.00  0.00    +0.256 C 
ENDROOT
BRANCH  12  14
ATOM     14  C   UNL     1      16.016   7.018  19.970  0.00  0.00    -0.017 A 
ATOM     18  C   UNL     1      16.485   6.251  18.904  0.00  0.00    +0.008 A 
ATOM     19  C   UNL     1      16.811   7.201  21.101  0.00  0.00    +0.008 A 
ATOM     21  C   UNL     1      17.749   5.665  18.969  0.00  0.00    +0.025 A 
ATOM     22  C   UNL     1      18.075   6.616  21.167  0.00  0.00    +0.025 A 
ATOM     23  C   UNL     1      18.544   5.848  20.100  0.00  0.00    +0.048 A 
BRANCH  23  10
ATOM     10  N   UNL     1      19.838   5.249  20.166  0.00  0.00    -0.221 N 
ATOM     28  H   UNL     1      19.820   4.231  20.313  0.00  0.00    +0.173 HD
BRANCH  10   1
ATOM      1  S   UNL     1      21.081   6.087  21.017  0.00  0.00    +0.040 S 
ATOM      6  O   UNL     1      21.220   7.410  20.438  0.00  0.00    -0.155 OA
ATOM      7  O   UNL     1      20.932   5.921  22.448  0.00  0.00    -0.155 OA
ATOM     26  C   UNL     1      22.501   5.148  20.502  0.00  0.00    +0.218 C 
ENDBRANCH  10   1
ENDBRANCH  23  10
ENDBRANCH  12  14
BRANCH  11  13
ATOM     13  C   UNL     1      15.033   9.398  21.691  0.00  0.00    +0.181 C 
BRANCH  13   3
ATOM      3  O   UNL     1      15.128  10.318  20.623  0.00  0.00    -0.393 OA
ATOM     27  H   UNL     1      15.617  11.092  20.952  0.00  0.00    +0.209 HD
ENDBRANCH  13   3
ENDBRANCH  11  13
BRANCH   8  16
ATOM     16  C   UNL     1      12.151   9.415  22.240  0.00  0.00    +0.204 C 
BRANCH  16  20
ATOM      5  O   UNL     1      12.269  11.185  20.629  0.00  0.00    -0.274 OA
ATOM      9  N   UNL     1      11.236  11.675  22.647  0.00  0.00    -0.306 N 
ATOM     20  C   UNL     1      11.899  10.830  21.750  0.00  0.00    +0.232 C 
ATOM     24  C   UNL     1      10.809  11.231  23.968  0.00  0.00    +0.131 C 
ATOM     25  C   UNL     1      10.922  13.065  22.326  0.00  0.00    +0.131 C 
ENDBRANCH  16  20
ENDBRANCH   8  16
TORSDOF 7
ENDMDL
MODEL 2
REMARK VINA RESULT:      -6.7      1.594      2.167
REMARK  Name = 71693481
REMARK  10 active torsions:
REMARK  status: ('A' for Active; 'I' for Inactive)
REMARK    1  A    between atoms: S_1  and  N_10
REMARK    2  A    between atoms: S_1  and  C_26
REMARK    3  A    between atoms: O_3  and  C_13
REMARK    4  A    between atoms: N_8  and  C_16
REMARK    5  A    between atoms: N_9  and  C_24
REMARK    6  A    between atoms: N_9  and  C_25
REMARK    7  A    between atoms: N_10  and  C_23
REMARK    8  A    between atoms: C_11  and  C_13
REMARK    9  A    between atoms: C_12  and  C_14
REMARK   10  A    between atoms: C_16  and  C_20
REMARK                            x       y       z     vdW  Elec       q    Type
REMARK                         _______ _______ _______ _____ _____    ______ ____
ROOT
ATOM      2  O   UNL     1      15.473   6.759  18.217  0.00  0.00    -0.361 OA
ATOM      4  O   UNL     1      12.041   7.496  17.607  0.00  0.00    -0.273 OA
ATOM      8  N   UNL     1      13.219   7.572  19.618  0.00  0.00    -0.283 N 
ATOM     11  C   UNL     1      14.498   7.341  20.333  0.00  0.00    +0.135 C 
ATOM     12  C   UNL     1      15.705   7.534  19.394  0.00  0.00    +0.171 C 
ATOM     15  C   UNL     1      13.102   7.440  18.233  0.00  0.00    +0.242 C 
ATOM     17  C   UNL     1      14.404   7.289  17.471  0.00  0.00    +0.256 C 
ENDROOT
BRANCH  12  14
ATOM     14  C   UNL     1      17.025   7.073  19.976  0.00  0.00    -0.017 A 
ATOM     18  C   UNL     1      17.626   7.798  21.005  0.00  0.00    +0.008 A 
ATOM     19  C   UNL     1      17.639   5.923  19.482  0.00  0.00    +0.008 A 
ATOM     21  C   UNL     1      18.841   7.373  21.541  0.00  0.00    +0.025 A 
ATOM     22  C   UNL     1      18.854   5.497  20.018  0.00  0.00    +0.025 A 
ATOM     23  C   UNL     1      19.455   6.222  21.047  0.00  0.00    +0.048 A 
BRANCH  23  10
ATOM     10  N   UNL     1      20.699   5.786  21.597  0.00  0.00    -0.221 N 
ATOM     28  H   UNL     1      20.629   5.431  22.560  0.00  0.00    +0.173 HD
BRANCH  10   1
ATOM      1  S   UNL     1      22.107   6.722  21.265  0.00  0.00    +0.040 S 
ATOM      6  O   UNL     1      21.966   7.311  19.947  0.00  0.00    -0.155 OA
ATOM      7  O   UNL     1      22.464   7.543  22.405  0.00  0.00    -0.155 OA
ATOM     26  C   UNL     1      23.318   5.427  21.124  0.00  0.00    +0.218 C 
ENDBRANCH  10   1
ENDBRANCH  23  10
ENDBRANCH  12  14
BRANCH  11  13
ATOM     13  C   UNL     1      14.640   8.223  21.582  0.00  0.00    +0.181 C 
BRANCH  13   3
ATOM      3  O   UNL     1      14.652   7.382  22.717  0.00  0.00    -0.393 OA
ATOM     27  H   UNL     1      15.281   6.662  22.536  0.00  0.00    +0.209 HD
ENDBRANCH  13   3
ENDBRANCH  11  13
BRANCH   8  16
ATOM     16  C   UNL     1      12.000   7.703  20.412  0.00  0.00    +0.204 C 
BRANCH  16  20
ATOM      5  O   UNL     1      12.155  10.066  20.037  0.00  0.00    -0.274 OA
ATOM      9  N   UNL     1      11.130   9.384  22.002  0.00  0.00    -0.306 N 
ATOM     20  C   UNL     1      11.777   9.159  20.782  0.00  0.00    +0.232 C 
ATOM     24  C   UNL     1      10.692   8.295  22.867  0.00  0.00    +0.131 C 
ATOM     25  C   UNL     1      10.843  10.728  22.500  0.00  0.00    +0.131 C 
ENDBRANCH  16  20
ENDBRANCH   8  16
TORSDOF 7
ENDMDL
MODEL 3
REMARK VINA RESULT:      -6.3      3.464      8.991
REMARK  Name = 71693481
REMARK  10 active torsions:
REMARK  status: ('A' for Active; 'I' for Inactive)
REMARK    1  A    between atoms: S_1  and  N_10
REMARK    2  A    between atoms: S_1  and  C_26
REMARK    3  A    between atoms: O_3  and  C_13
REMARK    4  A    between atoms: N_8  and  C_16
REMARK    5  A    between atoms: N_9  and  C_24
REMARK    6  A    between atoms: N_9  and  C_25
REMARK    7  A    between atoms: N_10  and  C_23
REMARK    8  A    between atoms: C_11  and  C_13
REMARK    9  A    between atoms: C_12  and  C_14
REMARK   10  A    between atoms: C_16  and  C_20
REMARK                            x       y       z     vdW  Elec       q    Type
REMARK                         _______ _______ _______ _____ _____    ______ ____
ROOT
ATOM      2  O   UNL     1      20.241   4.920  20.140  0.00  0.00    -0.361 OA
ATOM      4  O   UNL     1      23.728   5.208  20.815  0.00  0.00    -0.273 OA
ATOM      8  N   UNL     1      22.059   6.824  21.021  0.00  0.00    -0.283 N 
ATOM     11  C   UNL     1      20.631   7.184  20.844  0.00  0.00    +0.135 C 
ATOM     12  C   UNL     1      19.723   5.947  20.988  0.00  0.00    +0.171 C 
ATOM     15  C   UNL     1      22.537   5.530  20.804  0.00  0.00    +0.242 C 
ATOM     17  C   UNL     1      21.482   4.458  20.616  0.00  0.00    +0.256 C 
ENDROOT
BRANCH  12  14
ATOM     14  C   UNL     1      18.285   6.180  20.572  0.00  0.00    -0.017 A 
ATOM     18  C   UNL     1      17.364   6.680  21.493  0.00  0.00    +0.008 A 
ATOM     19  C   UNL     1      17.882   5.896  19.268  0.00  0.00    +0.008 A 
ATOM     21  C   UNL     1      16.041   6.896  21.110  0.00  0.00    +0.025 A 
ATOM     22  C   UNL     1      16.559   6.111  18.884  0.00  0.00    +0.025 A 
ATOM     23  C   UNL     1      15.639   6.612  19.805  0.00  0.00    +0.048 A 
BRANCH  23  10
ATOM     10  N   UNL     1      14.283   6.833  19.413  0.00  0.00    -0.221 N 
ATOM     28  H   UNL     1      13.726   5.972  19.333  0.00  0.00    +0.173 HD
BRANCH  10   1
ATOM      1  S   UNL     1      13.969   8.022  18.205  0.00  0.00    +0.040 S 
ATOM      6  O   UNL     1      14.784   9.188  18.488  0.00  0.00    -0.155 OA
ATOM      7  O   UNL     1      13.965   7.428  16.883  0.00  0.00    -0.155 OA
ATOM     26  C   UNL     1      12.293   8.451  18.617  0.00  0.00    +0.218 C 
ENDBRANCH  10   1
ENDBRANCH  23  10
ENDBRANCH  12  14
BRANCH  11  13
ATOM     13  C   UNL     1      20.182   8.297  21.801  0.00  0.00    +0.181 C 
BRANCH  13   3
ATOM      3  O   UNL     1      19.969   9.471  21.043  0.00  0.00    -0.393 OA
ATOM     27  H   UNL     1      20.704  10.077  21.238  0.00  0.00    +0.209 HD
ENDBRANCH  13   3
ENDBRANCH  11  13
BRANCH   8  16
ATOM     16  C   UNL     1      23.025   7.906  21.192  0.00  0.00    +0.204 C 
BRANCH  16  20
ATOM      5  O   UNL     1      22.456   9.024  19.149  0.00  0.00    -0.274 OA
ATOM      9  N   UNL     1      24.694   8.505  19.469  0.00  0.00    -0.306 N 
ATOM     20  C   UNL     1      23.347   8.532  19.846  0.00  0.00    +0.232 C 
ATOM     24  C   UNL     1      25.729   7.917  20.311  0.00  0.00    +0.131 C 
ATOM     25  C   UNL     1      25.164   9.065  18.204  0.00  0.00    +0.131 C 
ENDBRANCH  16  20
ENDBRANCH   8  16
TORSDOF 7
ENDMDL
MODEL 4
REMARK VINA RESULT:      -6.2      3.474      8.154
REMARK  Name = 71693481
REMARK  10 active torsions:
REMARK  status: ('A' for Active; 'I' for Inactive)
REMARK    1  A    between atoms: S_1  and  N_10
REMARK    2  A    between atoms: S_1  and  C_26
REMARK    3  A    between atoms: O_3  and  C_13
REMARK    4  A    between atoms: N_8  and  C_16
REMARK    5  A    between atoms: N_9  and  C_24
REMARK    6  A    between atoms: N_9  and  C_25
REMARK    7  A    between atoms: N_10  and  C_23
REMARK    8  A    between atoms: C_11  and  C_13
REMARK    9  A    between atoms: C_12  and  C_14
REMARK   10  A    between atoms: C_16  and  C_20
REMARK                            x       y       z     vdW  Elec       q    Type
REMARK                         _______ _______ _______ _____ _____    ______ ____
ROOT
ATOM      2  O   UNL     1      19.786   5.318  20.160  0.00  0.00    -0.361 OA
ATOM      4  O   UNL     1      23.237   5.867  20.855  0.00  0.00    -0.273 OA
ATOM      8  N   UNL     1      21.430   7.301  21.194  0.00  0.00    -0.283 N 
ATOM     11  C   UNL     1      19.973   7.542  21.048  0.00  0.00    +0.135 C 
ATOM     12  C   UNL     1      19.182   6.219  21.089  0.00  0.00    +0.171 C 
ATOM     15  C   UNL     1      22.022   6.078  20.872  0.00  0.00    +0.242 C 
ATOM     17  C   UNL     1      21.068   4.933  20.596  0.00  0.00    +0.256 C 
ENDROOT
BRANCH  12  14
ATOM     14  C   UNL     1      17.726   6.354  20.695  0.00  0.00    -0.017 A 
ATOM     18  C   UNL     1      17.356   6.277  19.353  0.00  0.00    +0.008 A 
ATOM     19  C   UNL     1      16.755   6.552  21.676  0.00  0.00    +0.008 A 
ATOM     21  C   UNL     1      16.015   6.400  18.991  0.00  0.00    +0.025 A 
ATOM     22  C   UNL     1      15.414   6.674  21.315  0.00  0.00    +0.025 A 
ATOM     23  C   UNL     1      15.044   6.598  19.972  0.00  0.00    +0.048 A 
BRANCH  23  10
ATOM     10  N   UNL     1      13.671   6.723  19.601  0.00  0.00    -0.221 N 
ATOM     28  H   UNL     1      13.392   6.113  18.821  0.00  0.00    +0.173 HD
BRANCH  10   1
ATOM      1  S   UNL     1      12.973   8.298  19.581  0.00  0.00    +0.040 S 
ATOM      6  O   UNL     1      12.039   8.399  20.688  0.00  0.00    -0.155 OA
ATOM      7  O   UNL     1      13.988   9.312  19.378  0.00  0.00    -0.155 OA
ATOM     26  C   UNL     1      12.001   8.192  18.096  0.00  0.00    +0.218 C 
ENDBRANCH  10   1
ENDBRANCH  23  10
ENDBRANCH  12  14
BRANCH  11  13
ATOM     13  C   UNL     1      19.432   8.528  22.093  0.00  0.00    +0.181 C 
BRANCH  13   3
ATOM      3  O   UNL     1      19.521   7.915  23.364  0.00  0.00    -0.393 OA
ATOM     27  H   UNL     1      18.662   8.038  23.804  0.00  0.00    +0.209 HD
ENDBRANCH  13   3
ENDBRANCH  11  13
BRANCH   8  16
ATOM     16  C   UNL     1      22.294   8.449  21.454  0.00  0.00    +0.204 C 
BRANCH  16  20
ATOM      5  O   UNL     1      22.724   8.814  19.124  0.00  0.00    -0.274 OA
ATOM      9  N   UNL     1      22.121  10.669  20.378  0.00  0.00    -0.306 N 
ATOM     20  C   UNL     1      22.403   9.309  20.206  0.00  0.00    +0.232 C 
ATOM     24  C   UNL     1      21.744  11.231  21.670  0.00  0.00    +0.131 C 
ATOM     25  C   UNL     1      22.183  11.626  19.277  0.00  0.00    +0.131 C 
ENDBRANCH  16  20
ENDBRANCH   8  16
TORSDOF 7
ENDMDL
MODEL 5
REMARK VINA RESULT:      -6.1     26.480     29.325
REMARK  Name = 71693481
REMARK  10 active torsions:
REMARK  status: ('A' for Active; 'I' for Inactive)
REMARK    1  A    between atoms: S_1  and  N_10
REMARK    2  A    between atoms: S_1  and  C_26
REMARK    3  A    between atoms: O_3  and  C_13
REMARK    4  A    between atoms: N_8  and  C_16
REMARK    5  A    between atoms: N_9  and  C_24
REMARK    6  A    between atoms: N_9  and  C_25
REMARK    7  A    between atoms: N_10  and  C_23
REMARK    8  A    between atoms: C_11  and  C_13
REMARK    9  A    between atoms: C_12  and  C_14
REMARK   10  A    between atoms: C_16  and  C_20
REMARK                            x       y       z     vdW  Elec       q    Type
REMARK                         _______ _______ _______ _____ _____    ______ ____
ROOT
ATOM      2  O   UNL     1     -10.854   8.413  20.013  0.00  0.00    -0.361 OA
ATOM      4  O   UNL     1      -9.799   9.882  16.943  0.00  0.00    -0.273 OA
ATOM      8  N   UNL     1     -11.771   8.730  17.413  0.00  0.00    -0.283 N 
ATOM     11  C   UNL     1     -12.577   7.969  18.400  0.00  0.00    +0.135 C 
ATOM     12  C   UNL     1     -12.271   8.427  19.839  0.00  0.00    +0.171 C 
ATOM     15  C   UNL     1     -10.565   9.348  17.749  0.00  0.00    +0.242 C 
ATOM     17  C   UNL     1     -10.243   9.410  19.229  0.00  0.00    +0.256 C 
ENDROOT
BRANCH  12  14
ATOM     14  C   UNL     1     -12.858   7.534  20.913  0.00  0.00    -0.017 A 
ATOM     18  C   UNL     1     -13.922   7.987  21.693  0.00  0.00    +0.008 A 
ATOM     19  C   UNL     1     -12.335   6.258  21.119  0.00  0.00    +0.008 A 
ATOM     21  C   UNL     1     -14.463   7.164  22.680  0.00  0.00    +0.025 A 
ATOM     22  C   UNL     1     -12.875   5.434  22.107  0.00  0.00    +0.025 A 
ATOM     23  C   UNL     1     -13.940   5.887  22.887  0.00  0.00    +0.048 A 
BRANCH  23  10
ATOM     10  N   UNL     1     -14.494   5.045  23.898  0.00  0.00    -0.221 N 
ATOM     28  H   UNL     1     -13.813   4.406  24.328  0.00  0.00    +0.173 HD
BRANCH  10   1
ATOM      1  S   UNL     1     -16.058   4.373  23.630  0.00  0.00    +0.040 S 
ATOM      6  O   UNL     1     -17.048   5.284  24.175  0.00  0.00    -0.155 OA
ATOM      7  O   UNL     1     -16.183   3.874  22.275  0.00  0.00    -0.155 OA
ATOM     26  C   UNL     1     -15.989   2.973  24.724  0.00  0.00    +0.218 C 
ENDBRANCH  10   1
ENDBRANCH  23  10
ENDBRANCH  12  14
BRANCH  11  13
ATOM     13  C   UNL     1     -14.084   8.050  18.116  0.00  0.00    +0.181 C 
BRANCH  13   3
ATOM      3  O   UNL     1     -14.520   9.358  18.419  0.00  0.00    -0.393 OA
ATOM     27  H   UNL     1     -13.816   9.785  18.937  0.00  0.00    +0.209 HD
ENDBRANCH  13   3
ENDBRANCH  11  13
BRANCH   8  16
ATOM     16  C   UNL     1     -12.132   8.622  16.001  0.00  0.00    +0.204 C 
BRANCH  16  20
ATOM      5  O   UNL     1     -13.135  10.787  16.230  0.00  0.00    -0.274 OA
ATOM      9  N   UNL     1     -12.368  10.208  14.119  0.00  0.00    -0.306 N 
ATOM     20  C   UNL     1     -12.594   9.971  15.480  0.00  0.00    +0.232 C 
ATOM     24  C   UNL     1     -11.726   9.227  13.252  0.00  0.00    +0.131 C 
ATOM     25  C   UNL     1     -12.756  11.456  13.467  0.00  0.00    +0.131 C 
ENDBRANCH  16  20
ENDBRANCH   8  16
TORSDOF 7
ENDMDL
MODEL 6
REMARK VINA RESULT:      -6.1     27.608     30.274
REMARK  Name = 71693481
REMARK  10 active torsions:
REMARK  status: ('A' for Active; 'I' for Inactive)
REMARK    1  A    between atoms: S_1  and  N_10
REMARK    2  A    between atoms: S_1  and  C_26
REMARK    3  A    between atoms: O_3  and  C_13
REMARK    4  A    between atoms: N_8  and  C_16
REMARK    5  A    between atoms: N_9  and  C_24
REMARK    6  A    between atoms: N_9  and  C_25
REMARK    7  A    between atoms: N_10  and  C_23
REMARK    8  A    between atoms: C_11  and  C_13
REMARK    9  A    between atoms: C_12  and  C_14
REMARK   10  A    between atoms: C_16  and  C_20
REMARK                            x       y       z     vdW  Elec       q    Type
REMARK                         _______ _______ _______ _____ _____    ______ ____
ROOT
ATOM      2  O   UNL     1      -4.844 -11.029   7.253  0.00  0.00    -0.361 OA
ATOM      4  O   UNL     1      -7.526 -10.395   4.996  0.00  0.00    -0.273 OA
ATOM      8  N   UNL     1      -7.315  -9.765   7.231  0.00  0.00    -0.283 N 
ATOM     11  C   UNL     1      -6.515  -9.814   8.479  0.00  0.00    +0.135 C 
ATOM     12  C   UNL     1      -5.010  -9.948   8.171  0.00  0.00    +0.171 C 
ATOM     15  C   UNL     1      -6.854 -10.297   6.025  0.00  0.00    +0.242 C 
ATOM     17  C   UNL     1      -5.396 -10.710   5.998  0.00  0.00    +0.256 C 
ENDROOT
BRANCH  12  14
ATOM     14  C   UNL     1      -4.154 -10.258   9.382  0.00  0.00    -0.017 A 
ATOM     18  C   UNL     1      -4.209 -11.521   9.971  0.00  0.00    +0.008 A 
ATOM     19  C   UNL     1      -3.308  -9.280   9.905  0.00  0.00    +0.008 A 
ATOM     21  C   UNL     1      -3.419 -11.806  11.085  0.00  0.00    +0.025 A 
ATOM     22  C   UNL     1      -2.518  -9.564  11.018  0.00  0.00    +0.025 A 
ATOM     23  C   UNL     1      -2.574 -10.828  11.608  0.00  0.00    +0.048 A 
BRANCH  23  10
ATOM     10  N   UNL     1      -1.765 -11.121  12.748  0.00  0.00    -0.221 N 
ATOM     28  H   UNL     1      -0.972 -11.744  12.548  0.00  0.00    +0.173 HD
BRANCH  10   1
ATOM      1  S   UNL     1      -2.553 -11.402  14.255  0.00  0.00    +0.040 S 
ATOM      6  O   UNL     1      -3.701 -10.519  14.342  0.00  0.00    -0.155 OA
ATOM      7  O   UNL     1      -2.693 -12.821  14.509  0.00  0.00    -0.155 OA
ATOM     26  C   UNL     1      -1.326 -10.764  15.373  0.00  0.00    +0.218 C 
ENDBRANCH  10   1
ENDBRANCH  23  10
ENDBRANCH  12  14
BRANCH  11  13
ATOM     13  C   UNL     1      -6.774  -8.607   9.392  0.00  0.00    +0.181 C 
BRANCH  13   3
ATOM      3  O   UNL     1      -6.205  -7.465   8.785  0.00  0.00    -0.393 OA
ATOM     27  H   UNL     1      -6.906  -6.794   8.718  0.00  0.00    +0.209 HD
ENDBRANCH  13   3
ENDBRANCH  11  13
BRANCH   8  16
ATOM     16  C   UNL     1      -8.716  -9.365   7.327  0.00  0.00    +0.204 C 
BRANCH  16  20
ATOM      5  O   UNL     1      -8.217  -7.134   6.606  0.00  0.00    -0.274 OA
ATOM      9  N   UNL     1     -10.054  -8.161   5.632  0.00  0.00    -0.306 N 
ATOM     20  C   UNL     1      -8.957  -8.115   6.499  0.00  0.00    +0.232 C 
ATOM     24  C   UNL     1     -10.915  -9.334   5.523  0.00  0.00    +0.131 C 
ATOM     25  C   UNL     1     -10.419  -7.040   4.770  0.00  0.00    +0.131 C 
ENDBRANCH  16  20
ENDBRANCH   8  16
TORSDOF 7
ENDMDL
MODEL 7
REMARK VINA RESULT:      -6.1     27.601     30.036
REMARK  Name = 71693481
REMARK  10 active torsions:
REMARK  status: ('A' for Active; 'I' for Inactive)
REMARK    1  A    between atoms: S_1  and  N_10
REMARK    2  A    between atoms: S_1  and  C_26
REMARK    3  A    between atoms: O_3  and  C_13
REMARK    4  A    between atoms: N_8  and  C_16
REMARK    5  A    between atoms: N_9  and  C_24
REMARK    6  A    between atoms: N_9  and  C_25
REMARK    7  A    between atoms: N_10  and  C_23
REMARK    8  A    between atoms: C_11  and  C_13
REMARK    9  A    between atoms: C_12  and  C_14
REMARK   10  A    between atoms: C_16  and  C_20
REMARK                            x       y       z     vdW  Elec       q    Type
REMARK                         _______ _______ _______ _____ _____    ______ ____
ROOT
ATOM      2  O   UNL     1      -8.377  -8.894  16.302  0.00  0.00    -0.361 OA
ATOM      4  O   UNL     1     -11.755  -8.176  17.181  0.00  0.00    -0.273 OA
ATOM      8  N   UNL     1     -10.455 -10.025  17.755  0.00  0.00    -0.283 N 
ATOM     11  C   UNL     1      -9.162 -10.741  17.623  0.00  0.00    +0.135 C 
ATOM     12  C   UNL     1      -8.002  -9.756  17.378  0.00  0.00    +0.171 C 
ATOM     15  C   UNL     1     -10.668  -8.757  17.209  0.00  0.00    +0.242 C 
ATOM     17  C   UNL     1      -9.435  -8.048  16.685  0.00  0.00    +0.256 C 
ENDROOT
BRANCH  12  14
ATOM     14  C   UNL     1      -6.699 -10.418  16.981  0.00  0.00    -0.017 A 
ATOM     18  C   UNL     1      -6.624 -11.166  15.807  0.00  0.00    +0.008 A 
ATOM     19  C   UNL     1      -5.572 -10.276  17.791  0.00  0.00    +0.008 A 
ATOM     21  C   UNL     1      -5.424 -11.775  15.443  0.00  0.00    +0.025 A 
ATOM     22  C   UNL     1      -4.371 -10.884  17.427  0.00  0.00    +0.025 A 
ATOM     23  C   UNL     1      -4.297 -11.633  16.252  0.00  0.00    +0.048 A 
BRANCH  23  10
ATOM     10  N   UNL     1      -3.067 -12.255  15.878  0.00  0.00    -0.221 N 
ATOM     28  H   UNL     1      -2.621 -12.787  16.637  0.00  0.00    +0.173 HD
BRANCH  10   1
ATOM      1  S   UNL     1      -1.984 -11.375  14.867  0.00  0.00    +0.040 S 
ATOM      6  O   UNL     1      -2.750 -10.399  14.115  0.00  0.00    -0.155 OA
ATOM      7  O   UNL     1      -0.800 -10.977  15.601  0.00  0.00    -0.155 OA
ATOM     26  C   UNL     1      -1.514 -12.654  13.724  0.00  0.00    +0.218 C 
ENDBRANCH  10   1
ENDBRANCH  23  10
ENDBRANCH  12  14
BRANCH  11  13
ATOM     13  C   UNL     1      -8.862 -11.640  18.831  0.00  0.00    +0.181 C 
BRANCH  13   3
ATOM      3  O   UNL     1      -8.567 -10.809  19.935  0.00  0.00    -0.393 OA
ATOM     27  H   UNL     1      -8.576 -11.371  20.729  0.00  0.00    +0.209 HD
ENDBRANCH  13   3
ENDBRANCH  11  13
BRANCH   8  16
ATOM     16  C   UNL     1     -11.605 -10.769  18.262  0.00  0.00    +0.204 C 
BRANCH  16  20
ATOM      5  O   UNL     1     -11.316  -9.892  20.474  0.00  0.00    -0.274 OA
ATOM      9  N   UNL     1     -13.473  -9.887  19.621  0.00  0.00    -0.306 N 
ATOM     20  C   UNL     1     -12.099 -10.144  19.555  0.00  0.00    +0.232 C 
ATOM     24  C   UNL     1     -14.379 -10.195  18.521  0.00  0.00    +0.131 C 
ATOM     25  C   UNL     1     -14.102  -9.291  20.797  0.00  0.00    +0.131 C 
ENDBRANCH  16  20
ENDBRANCH   8  16
TORSDOF 7
ENDMDL
MODEL 8
REMARK VINA RESULT:      -6.1     27.683     30.167
REMARK  Name = 71693481
REMARK  10 active torsions:
REMARK  status: ('A' for Active; 'I' for Inactive)
REMARK    1  A    between atoms: S_1  and  N_10
REMARK    2  A    between atoms: S_1  and  C_26
REMARK    3  A    between atoms: O_3  and  C_13
REMARK    4  A    between atoms: N_8  and  C_16
REMARK    5  A    between atoms: N_9  and  C_24
REMARK    6  A    between atoms: N_9  and  C_25
REMARK    7  A    between atoms: N_10  and  C_23
REMARK    8  A    between atoms: C_11  and  C_13
REMARK    9  A    between atoms: C_12  and  C_14
REMARK   10  A    between atoms: C_16  and  C_20
REMARK                            x       y       z     vdW  Elec       q    Type
REMARK                         _______ _______ _______ _____ _____    ______ ____
ROOT
ATOM      2  O   UNL     1      -8.337  -9.196  16.253  0.00  0.00    -0.361 OA
ATOM      4  O   UNL     1     -11.494  -8.274  17.623  0.00  0.00    -0.273 OA
ATOM      8  N   UNL     1     -10.030  -9.951  18.319  0.00  0.00    -0.283 N 
ATOM     11  C   UNL     1      -8.763 -10.686  18.088  0.00  0.00    +0.135 C 
ATOM     12  C   UNL     1      -7.717  -9.791  17.394  0.00  0.00    +0.171 C 
ATOM     15  C   UNL     1     -10.401  -8.841  17.557  0.00  0.00    +0.242 C 
ATOM     17  C   UNL     1      -9.329  -8.278  16.644  0.00  0.00    +0.256 C 
ENDROOT
BRANCH  12  14
ATOM     14  C   UNL     1      -6.494 -10.534  16.898  0.00  0.00    -0.017 A 
ATOM     18  C   UNL     1      -6.628 -11.537  15.938  0.00  0.00    +0.008 A 
ATOM     19  C   UNL     1      -5.234 -10.214  17.400  0.00  0.00    +0.008 A 
ATOM     21  C   UNL     1      -5.502 -12.220  15.480  0.00  0.00    +0.025 A 
ATOM     22  C   UNL     1      -4.107 -10.896  16.944  0.00  0.00    +0.025 A 
ATOM     23  C   UNL     1      -4.241 -11.899  15.983  0.00  0.00    +0.048 A 
BRANCH  23  10
ATOM     10  N   UNL     1      -3.088 -12.598  15.514  0.00  0.00    -0.221 N 
ATOM     28  H   UNL     1      -2.685 -13.249  16.202  0.00  0.00    +0.173 HD
BRANCH  10   1
ATOM      1  S   UNL     1      -1.937 -11.730  14.570  0.00  0.00    +0.040 S 
ATOM      6  O   UNL     1      -2.656 -10.851  13.666  0.00  0.00    -0.155 OA
ATOM      7  O   UNL     1      -0.867 -11.217  15.401  0.00  0.00    -0.155 OA
ATOM     26  C   UNL     1      -1.277 -13.055  13.584  0.00  0.00    +0.218 C 
ENDBRANCH  10   1
ENDBRANCH  23  10
ENDBRANCH  12  14
BRANCH  11  13
ATOM     13  C   UNL     1      -8.188 -11.286  19.379  0.00  0.00    +0.181 C 
BRANCH  13   3
ATOM      3  O   UNL     1      -7.535 -10.256  20.092  0.00  0.00    -0.393 OA
ATOM     27  H   UNL     1      -7.637 -10.450  21.039  0.00  0.00    +0.209 HD
ENDBRANCH  13   3
ENDBRANCH  11  13
BRANCH   8  16
ATOM     16  C   UNL     1     -11.023 -10.552  19.205  0.00  0.00    +0.204 C 
BRANCH  16  20
ATOM      5  O   UNL     1     -12.009 -11.753  17.380  0.00  0.00    -0.274 OA
ATOM      9  N   UNL     1     -11.709 -12.922  19.361  0.00  0.00    -0.306 N 
ATOM     20  C   UNL     1     -11.625 -11.784  18.552  0.00  0.00    +0.232 C 
ATOM     24  C   UNL     1     -11.248 -12.933  20.744  0.00  0.00    +0.131 C 
ATOM     25  C   UNL     1     -12.264 -14.185  18.880  0.00  0.00    +0.131 C 
ENDBRANCH  16  20
ENDBRANCH   8  16
TORSDOF 7
ENDMDL
MODEL 9
REMARK VINA RESULT:      -6.0     27.511     29.611
REMARK  Name = 71693481
REMARK  10 active torsions:
REMARK  status: ('A' for Active; 'I' for Inactive)
REMARK    1  A    between atoms: S_1  and  N_10
REMARK    2  A    between atoms: S_1  and  C_26
REMARK    3  A    between atoms: O_3  and  C_13
REMARK    4  A    between atoms: N_8  and  C_16
REMARK    5  A    between atoms: N_9  and  C_24
REMARK    6  A    between atoms: N_9  and  C_25
REMARK    7  A    between atoms: N_10  and  C_23
REMARK    8  A    between atoms: C_11  and  C_13
REMARK    9  A    between atoms: C_12  and  C_14
REMARK   10  A    between atoms: C_16  and  C_20
REMARK                            x       y       z     vdW  Elec       q    Type
REMARK                         _______ _______ _______ _____ _____    ______ ____
ROOT
ATOM      2  O   UNL     1      -2.725 -10.596  11.834  0.00  0.00    -0.361 OA
ATOM      4  O   UNL     1      -1.430 -11.606  14.996  0.00  0.00    -0.273 OA
ATOM      8  N   UNL     1      -3.577 -10.870  14.461  0.00  0.00    -0.283 N 
ATOM     11  C   UNL     1      -4.504 -10.347  13.428  0.00  0.00    +0.135 C 
ATOM     12  C   UNL     1      -4.117 -10.852  12.024  0.00  0.00    +0.171 C 
ATOM     15  C   UNL     1      -2.278 -11.284  14.160  0.00  0.00    +0.242 C 
ATOM     17  C   UNL     1      -1.946 -11.402  12.686  0.00  0.00    +0.256 C 
ENDROOT
BRANCH  12  14
ATOM     14  C   UNL     1      -4.853 -10.167  10.892  0.00  0.00    -0.017 A 
ATOM     18  C   UNL     1      -4.722  -8.791  10.706  0.00  0.00    +0.008 A 
ATOM     19  C   UNL     1      -5.660 -10.913  10.034  0.00  0.00    +0.008 A 
ATOM     21  C   UNL     1      -5.400  -8.161   9.663  0.00  0.00    +0.025 A 
ATOM     22  C   UNL     1      -6.337 -10.284   8.990  0.00  0.00    +0.025 A 
ATOM     23  C   UNL     1      -6.207  -8.907   8.804  0.00  0.00    +0.048 A 
BRANCH  23  10
ATOM     10  N   UNL     1      -6.899  -8.261   7.736  0.00  0.00    -0.221 N 
ATOM     28  H   UNL     1      -6.297  -8.006   6.942  0.00  0.00    +0.173 HD
BRANCH  10   1
ATOM      1  S   UNL     1      -8.112  -7.104   8.134  0.00  0.00    +0.040 S 
ATOM      6  O   UNL     1      -8.942  -7.654   9.189  0.00  0.00    -0.155 OA
ATOM      7  O   UNL     1      -7.541  -5.778   8.260  0.00  0.00    -0.155 OA
ATOM     26  C   UNL     1      -9.082  -7.141   6.643  0.00  0.00    +0.218 C 
ENDBRANCH  10   1
ENDBRANCH  23  10
ENDBRANCH  12  14
BRANCH  11  13
ATOM     13  C   UNL     1      -5.972 -10.676  13.735  0.00  0.00    +0.181 C 
BRANCH  13   3
ATOM      3  O   UNL     1      -6.653  -9.463  13.983  0.00  0.00    -0.393 OA
ATOM     27  H   UNL     1      -6.136  -8.972  14.645  0.00  0.00    +0.209 HD
ENDBRANCH  13   3
ENDBRANCH  11  13
BRANCH   8  16
ATOM     16  C   UNL     1      -3.955 -10.719  15.864  0.00  0.00    +0.204 C 
BRANCH  16  20
ATOM      5  O   UNL     1      -4.289 -13.091  15.964  0.00  0.00    -0.274 OA
ATOM      9  N   UNL     1      -5.708 -11.780  17.248  0.00  0.00    -0.306 N 
ATOM     20  C   UNL     1      -4.651 -11.978  16.352  0.00  0.00    +0.232 C 
ATOM     24  C   UNL     1      -6.118 -10.453  17.691  0.00  0.00    +0.131 C 
ATOM     25  C   UNL     1      -6.478 -12.889  17.806  0.00  0.00    +0.131 C 
ENDBRANCH  16  20
ENDBRANCH   8  16
TORSDOF 7
ENDMDL
MODEL 10
REMARK VINA RESULT:      -5.9     26.889     29.548
REMARK  Name = 71693481
REMARK  10 active torsions:
REMARK  status: ('A' for Active; 'I' for Inactive)
REMARK    1  A    between atoms: S_1  and  N_10
REMARK    2  A    between atoms: S_1  and  C_26
REMARK    3  A    between atoms: O_3  and  C_13
REMARK    4  A    between atoms: N_8  and  C_16
REMARK    5  A    between atoms: N_9  and  C_24
REMARK    6  A    between atoms: N_9  and  C_25
REMARK    7  A    between atoms: N_10  and  C_23
REMARK    8  A    between atoms: C_11  and  C_13
REMARK    9  A    between atoms: C_12  and  C_14
REMARK   10  A    between atoms: C_16  and  C_20
REMARK                            x       y       z     vdW  Elec       q    Type
REMARK                         _______ _______ _______ _____ _____    ______ ____
ROOT
ATOM      2  O   UNL     1      -2.406  -9.969  12.930  0.00  0.00    -0.361 OA
ATOM      4  O   UNL     1      -2.013 -10.858  16.358  0.00  0.00    -0.273 OA
ATOM      8  N   UNL     1      -3.789 -11.322  14.921  0.00  0.00    -0.283 N 
ATOM     11  C   UNL     1      -4.392 -11.157  13.575  0.00  0.00    +0.135 C 
ATOM     12  C   UNL     1      -3.306 -10.990  12.495  0.00  0.00    +0.171 C 
ATOM     15  C   UNL     1      -2.508 -10.858  15.229  0.00  0.00    +0.242 C 
ATOM     17  C   UNL     1      -1.671 -10.396  14.053  0.00  0.00    +0.256 C 
ENDROOT
BRANCH  12  14
ATOM     14  C   UNL     1      -3.836 -10.565  11.141  0.00  0.00    -0.017 A 
ATOM     18  C   UNL     1      -4.364  -9.285  10.968  0.00  0.00    +0.008 A 
ATOM     19  C   UNL     1      -3.794 -11.453  10.067  0.00  0.00    +0.008 A 
ATOM     21  C   UNL     1      -4.851  -8.894   9.721  0.00  0.00    +0.025 A 
ATOM     22  C   UNL     1      -4.281 -11.063   8.820  0.00  0.00    +0.025 A 
ATOM     23  C   UNL     1      -4.809  -9.783   8.647  0.00  0.00    +0.048 A 
BRANCH  23  10
ATOM     10  N   UNL     1      -5.308  -9.382   7.370  0.00  0.00    -0.221 N 
ATOM     28  H   UNL     1      -4.776  -8.616   6.936  0.00  0.00    +0.173 HD
BRANCH  10   1
ATOM      1  S   UNL     1      -7.015  -9.301   7.152  0.00  0.00    +0.040 S 
ATOM      6  O   UNL     1      -7.588 -10.575   7.547  0.00  0.00    -0.155 OA
ATOM      7  O   UNL     1      -7.546  -8.060   7.676  0.00  0.00    -0.155 OA
ATOM     26  C   UNL     1      -7.100  -9.226   5.377  0.00  0.00    +0.218 C 
ENDBRANCH  10   1
ENDBRANCH  23  10
ENDBRANCH  12  14
BRANCH  11  13
ATOM     13  C   UNL     1      -5.343 -12.306  13.212  0.00  0.00    +0.181 C 
BRANCH  13   3
ATOM      3  O   UNL     1      -6.618 -11.757  12.949  0.00  0.00    -0.393 OA
ATOM     27  H   UNL     1      -7.059 -11.628  13.807  0.00  0.00    +0.209 HD
ENDBRANCH  13   3
ENDBRANCH  11  13
BRANCH   8  16
ATOM     16  C   UNL     1      -4.653 -11.766  16.012  0.00  0.00    +0.204 C 
BRANCH  16  20
ATOM      5  O   UNL     1      -5.240  -9.501  16.533  0.00  0.00    -0.274 OA
ATOM      9  N   UNL     1      -6.961 -11.056  16.542  0.00  0.00    -0.306 N 
ATOM     20  C   UNL     1      -5.627 -10.662  16.384  0.00  0.00    +0.232 C 
ATOM     24  C   UNL     1      -7.395 -12.436  16.360  0.00  0.00    +0.131 C 
ATOM     25  C   UNL     1      -8.018 -10.113  16.900  0.00  0.00    +0.131 C 
ENDBRANCH  16  20
ENDBRANCH   8  16
TORSDOF 7
ENDMDL
