MODEL 1
REMARK VINA RESULT:      -6.9      0.000      0.000
REMARK  Name = 11912977
REMARK  5 active torsions:
REMARK  status: ('A' for Active; 'I' for Inactive)
REMARK    1  A    between atoms: S_1  and  N_8
REMARK    2  A    between atoms: S_1  and  C_19
REMARK    3  A    between atoms: N_8  and  C_14
REMARK    4  A    between atoms: N_9  and  C_15
REMARK    5  A    between atoms: C_21  and  C_26
REMARK                            x       y       z     vdW  Elec       q    Type
REMARK                         _______ _______ _______ _____ _____    ______ ____
ROOT
ATOM      3  O   UNL     1      19.838   6.493  20.095  0.00  0.00    -0.370 OA
ATOM      4  O   UNL     1      19.542   8.190  22.696  0.00  0.00    -0.370 OA
ATOM     12  C   UNL     1      19.626   6.778  22.447  0.00  0.00    +0.170 C 
ATOM     13  C   UNL     1      18.873   6.501  21.160  0.00  0.00    +0.171 C 
ATOM     14  C   UNL     1      21.051   6.383  22.132  0.00  0.00    +0.133 C 
ATOM     15  C   UNL     1      17.943   7.681  21.015  0.00  0.00    +0.130 C 
ATOM     16  C   UNL     1      21.149   6.682  20.647  0.00  0.00    +0.183 C 
ATOM     17  C   UNL     1      18.714   8.799  21.694  0.00  0.00    +0.185 C 
ENDROOT
BRANCH  15   9
ATOM      9  N   UNL     1      16.706   7.427  21.720  0.00  0.00    -0.306 N 
ATOM     10  N   UNL     1      15.397   8.157  19.915  0.00  0.00    -0.211 NA
ATOM     11  N   UNL     1      14.372   7.374  21.951  0.00  0.00    -0.223 NA
ATOM     18  C   UNL     1      15.454   7.660  21.180  0.00  0.00    +0.216 A 
ATOM     21  C   UNL     1      14.161   8.372  19.419  0.00  0.00    +0.111 A 
ATOM     22  C   UNL     1      13.167   7.612  21.391  0.00  0.00    +0.116 A 
ATOM     25  C   UNL     1      12.999   8.115  20.117  0.00  0.00    +0.051 A 
ATOM     31  H   UNL     1      16.735   7.007  22.643  0.00  0.00    +0.149 HD
BRANCH  21  26
ATOM      7  O   UNL     1      13.903   7.986  17.103  0.00  0.00    -0.461 OA
ATOM     26  C   UNL     1      14.133   8.898  18.080  0.00  0.00    +0.153 A 
ATOM     27  C   UNL     1      14.293  10.154  17.547  0.00  0.00    +0.051 A 
ATOM     28  C   UNL     1      14.151  10.005  16.147  0.00  0.00    +0.042 A 
ATOM     29  C   UNL     1      13.915   8.667  15.927  0.00  0.00    +0.196 A 
ENDBRANCH  21  26
ENDBRANCH  15   9
BRANCH  14   8
ATOM      8  N   UNL     1      21.276   4.983  22.400  0.00  0.00    -0.182 NA
ATOM     30  H   UNL     1      20.432   4.399  22.456  0.00  0.00    +0.149 HD
BRANCH   8   1
ATOM      1  S   UNL     1      22.621   4.505  23.319  0.00  0.00    +0.065 S 
ATOM      5  O   UNL     1      22.170   3.797  24.503  0.00  0.00    -0.153 OA
ATOM      6  O   UNL     1      23.526   5.631  23.443  0.00  0.00    -0.153 OA
BRANCH   1  19
ATOM      2  S   UNL     1      23.913   3.976  20.751  0.00  0.00    -0.077 S 
ATOM     19  C   UNL     1      23.399   3.334  22.248  0.00  0.00    +0.142 A 
ATOM     20  C   UNL     1      23.679   1.998  22.373  0.00  0.00    +0.036 A 
ATOM     23  C   UNL     1      24.331   1.485  21.214  0.00  0.00    +0.010 A 
ATOM     24  C   UNL     1      24.520   2.454  20.254  0.00  0.00    +0.047 A 
ENDBRANCH   1  19
ENDBRANCH   8   1
ENDBRANCH  14   8
TORSDOF 5
ENDMDL
MODEL 2
REMARK VINA RESULT:      -6.6     27.741     30.232
REMARK  Name = 11912977
REMARK  5 active torsions:
REMARK  status: ('A' for Active; 'I' for Inactive)
REMARK    1  A    between atoms: S_1  and  N_8
REMARK    2  A    between atoms: S_1  and  C_19
REMARK    3  A    between atoms: N_8  and  C_14
REMARK    4  A    between atoms: N_9  and  C_15
REMARK    5  A    between atoms: C_21  and  C_26
REMARK                            x       y       z     vdW  Elec       q    Type
REMARK                         _______ _______ _______ _____ _____    ______ ____
ROOT
ATOM      3  O   UNL     1      -3.442 -11.168  13.414  0.00  0.00    -0.370 OA
ATOM      4  O   UNL     1      -0.866 -11.455  15.152  0.00  0.00    -0.370 OA
ATOM     12  C   UNL     1      -1.812 -12.402  14.630  0.00  0.00    +0.170 C 
ATOM     13  C   UNL     1      -3.183 -11.757  14.700  0.00  0.00    +0.171 C 
ATOM     14  C   UNL     1      -1.580 -12.617  13.152  0.00  0.00    +0.133 C 
ATOM     15  C   UNL     1      -3.031 -10.681  15.748  0.00  0.00    +0.130 C 
ATOM     16  C   UNL     1      -2.349 -11.463  12.533  0.00  0.00    +0.183 C 
ATOM     17  C   UNL     1      -1.568 -10.294  15.620  0.00  0.00    +0.185 C 
ENDROOT
BRANCH  15   9
ATOM      9  N   UNL     1      -3.291 -11.228  17.061  0.00  0.00    -0.306 N 
ATOM     10  N   UNL     1      -5.520 -10.495  17.047  0.00  0.00    -0.211 NA
ATOM     11  N   UNL     1      -4.624 -11.698  18.934  0.00  0.00    -0.223 NA
ATOM     18  C   UNL     1      -4.515 -11.138  17.700  0.00  0.00    +0.216 A 
ATOM     21  C   UNL     1      -6.699 -10.426  17.698  0.00  0.00    +0.111 A 
ATOM     22  C   UNL     1      -5.832 -11.592  19.526  0.00  0.00    +0.116 A 
ATOM     25  C   UNL     1      -6.916 -10.962  18.951  0.00  0.00    +0.051 A 
ATOM     31  H   UNL     1      -2.565 -11.755  17.534  0.00  0.00    +0.149 HD
BRANCH  21  26
ATOM      7  O   UNL     1      -7.870 -10.080  15.676  0.00  0.00    -0.461 OA
ATOM     26  C   UNL     1      -7.743  -9.740  16.983  0.00  0.00    +0.153 A 
ATOM     27  C   UNL     1      -8.669  -8.787  17.331  0.00  0.00    +0.051 A 
ATOM     28  C   UNL     1      -9.417  -8.524  16.159  0.00  0.00    +0.042 A 
ATOM     29  C   UNL     1      -8.892  -9.335  15.180  0.00  0.00    +0.196 A 
ENDBRANCH  21  26
ENDBRANCH  15   9
BRANCH  14   8
ATOM      8  N   UNL     1      -2.109 -13.889  12.721  0.00  0.00    -0.182 NA
ATOM     30  H   UNL     1      -3.133 -13.977  12.745  0.00  0.00    +0.149 HD
BRANCH   8   1
ATOM      1  S   UNL     1      -1.196 -15.303  12.945  0.00  0.00    +0.065 S 
ATOM      5  O   UNL     1       0.145 -14.949  13.372  0.00  0.00    -0.153 OA
ATOM      6  O   UNL     1      -1.392 -16.172  11.800  0.00  0.00    -0.153 OA
BRANCH   1  19
ATOM      2  S   UNL     1      -3.700 -15.747  14.387  0.00  0.00    -0.077 S 
ATOM     19  C   UNL     1      -2.022 -16.058  14.312  0.00  0.00    +0.142 A 
ATOM     20  C   UNL     1      -1.587 -16.854  15.340  0.00  0.00    +0.036 A 
ATOM     23  C   UNL     1      -2.653 -17.219  16.213  0.00  0.00    +0.010 A 
ATOM     24  C   UNL     1      -3.857 -16.686  15.811  0.00  0.00    +0.047 A 
ENDBRANCH   1  19
ENDBRANCH   8   1
ENDBRANCH  14   8
TORSDOF 5
ENDMDL
MODEL 3
REMARK VINA RESULT:      -6.5     29.020     31.937
REMARK  Name = 11912977
REMARK  5 active torsions:
REMARK  status: ('A' for Active; 'I' for Inactive)
REMARK    1  A    between atoms: S_1  and  N_8
REMARK    2  A    between atoms: S_1  and  C_19
REMARK    3  A    between atoms: N_8  and  C_14
REMARK    4  A    between atoms: N_9  and  C_15
REMARK    5  A    between atoms: C_21  and  C_26
REMARK                            x       y       z     vdW  Elec       q    Type
REMARK                         _______ _______ _______ _____ _____    ______ ____
ROOT
ATOM      3  O   UNL     1      -6.695 -10.341  16.634  0.00  0.00    -0.370 OA
ATOM      4  O   UNL     1      -4.736 -11.147  18.925  0.00  0.00    -0.370 OA
ATOM     12  C   UNL     1      -5.017 -11.702  17.630  0.00  0.00    +0.170 C 
ATOM     13  C   UNL     1      -6.506 -11.552  17.387  0.00  0.00    +0.171 C 
ATOM     14  C   UNL     1      -4.380 -10.859  16.548  0.00  0.00    +0.133 C 
ATOM     15  C   UNL     1      -7.092 -11.403  18.770  0.00  0.00    +0.130 C 
ATOM     16  C   UNL     1      -5.413  -9.767  16.337  0.00  0.00    +0.183 C 
ATOM     17  C   UNL     1      -5.966 -10.738  19.541  0.00  0.00    +0.185 C 
ENDROOT
BRANCH  15   9
ATOM      9  N   UNL     1      -7.379 -12.706  19.329  0.00  0.00    -0.306 N 
ATOM     10  N   UNL     1      -9.562 -12.091  19.931  0.00  0.00    -0.211 NA
ATOM     11  N   UNL     1      -8.730 -14.308  20.384  0.00  0.00    -0.223 NA
ATOM     18  C   UNL     1      -8.593 -13.046  19.899  0.00  0.00    +0.216 A 
ATOM     21  C   UNL     1     -10.733 -12.456  20.493  0.00  0.00    +0.111 A 
ATOM     22  C   UNL     1      -9.927 -14.604  20.932  0.00  0.00    +0.116 A 
ATOM     25  C   UNL     1     -10.975 -13.710  21.015  0.00  0.00    +0.051 A 
ATOM     31  H   UNL     1      -6.683 -13.441  19.262  0.00  0.00    +0.149 HD
BRANCH  21  26
ATOM      7  O   UNL     1     -12.945 -11.804  21.002  0.00  0.00    -0.461 OA
ATOM     26  C   UNL     1     -11.737 -11.426  20.513  0.00  0.00    +0.153 A 
ATOM     27  C   UNL     1     -11.755 -10.105  20.137  0.00  0.00    +0.051 A 
ATOM     28  C   UNL     1     -13.062  -9.638  20.413  0.00  0.00    +0.042 A 
ATOM     29  C   UNL     1     -13.747 -10.709  20.938  0.00  0.00    +0.196 A 
ENDBRANCH  21  26
ENDBRANCH  15   9
BRANCH  14   8
ATOM      8  N   UNL     1      -4.176 -11.626  15.342  0.00  0.00    -0.182 NA
ATOM     30  H   UNL     1      -4.816 -12.419  15.204  0.00  0.00    +0.149 HD
BRANCH   8   1
ATOM      1  S   UNL     1      -2.620 -11.751  14.675  0.00  0.00    +0.065 S 
ATOM      5  O   UNL     1      -2.316 -13.147  14.417  0.00  0.00    -0.153 OA
ATOM      6  O   UNL     1      -1.709 -10.938  15.457  0.00  0.00    -0.153 OA
BRANCH   1  19
ATOM      2  S   UNL     1      -4.448 -10.629  12.688  0.00  0.00    -0.077 S 
ATOM     19  C   UNL     1      -2.824 -10.942  13.117  0.00  0.00    +0.142 A 
ATOM     20  C   UNL     1      -1.935 -10.508  12.168  0.00  0.00    +0.036 A 
ATOM     23  C   UNL     1      -2.598  -9.903  11.061  0.00  0.00    +0.010 A 
ATOM     24  C   UNL     1      -3.966  -9.902  11.214  0.00  0.00    +0.047 A 
ENDBRANCH   1  19
ENDBRANCH   8   1
ENDBRANCH  14   8
TORSDOF 5
ENDMDL
MODEL 4
REMARK VINA RESULT:      -6.4     28.455     32.005
REMARK  Name = 11912977
REMARK  5 active torsions:
REMARK  status: ('A' for Active; 'I' for Inactive)
REMARK    1  A    between atoms: S_1  and  N_8
REMARK    2  A    between atoms: S_1  and  C_19
REMARK    3  A    between atoms: N_8  and  C_14
REMARK    4  A    between atoms: N_9  and  C_15
REMARK    5  A    between atoms: C_21  and  C_26
REMARK                            x       y       z     vdW  Elec       q    Type
REMARK                         _______ _______ _______ _____ _____    ______ ____
ROOT
ATOM      3  O   UNL     1      -6.876 -11.511  10.836  0.00  0.00    -0.370 OA
ATOM      4  O   UNL     1      -6.146  -8.641  11.820  0.00  0.00    -0.370 OA
ATOM     12  C   UNL     1      -5.837  -9.381  10.628  0.00  0.00    +0.170 C 
ATOM     13  C   UNL     1      -5.627 -10.827  11.035  0.00  0.00    +0.171 C 
ATOM     14  C   UNL     1      -7.038  -9.427   9.711  0.00  0.00    +0.133 C 
ATOM     15  C   UNL     1      -5.301 -10.752  12.507  0.00  0.00    +0.130 C 
ATOM     16  C   UNL     1      -7.827 -10.598  10.269  0.00  0.00    +0.183 C 
ATOM     17  C   UNL     1      -6.059  -9.515  12.954  0.00  0.00    +0.185 C 
ENDROOT
BRANCH  15   9
ATOM      9  N   UNL     1      -3.879 -10.560  12.690  0.00  0.00    -0.306 N 
ATOM     10  N   UNL     1      -4.033 -10.803  15.019  0.00  0.00    -0.211 NA
ATOM     11  N   UNL     1      -1.910 -10.394  13.955  0.00  0.00    -0.223 NA
ATOM     18  C   UNL     1      -3.255 -10.586  13.925  0.00  0.00    +0.216 A 
ATOM     21  C   UNL     1      -3.393 -10.822  16.206  0.00  0.00    +0.111 A 
ATOM     22  C   UNL     1      -1.335 -10.427  15.175  0.00  0.00    +0.116 A 
ATOM     25  C   UNL     1      -2.032 -10.639  16.347  0.00  0.00    +0.051 A 
ATOM     31  H   UNL     1      -3.282 -10.451  11.878  0.00  0.00    +0.149 HD
BRANCH  21  26
ATOM      7  O   UNL     1      -5.443 -10.422  17.310  0.00  0.00    -0.461 OA
ATOM     26  C   UNL     1      -4.242 -11.053  17.345  0.00  0.00    +0.153 A 
ATOM     27  C   UNL     1      -4.111 -11.788  18.498  0.00  0.00    +0.051 A 
ATOM     28  C   UNL     1      -5.312 -11.598  19.221  0.00  0.00    +0.042 A 
ATOM     29  C   UNL     1      -6.089 -10.759  18.456  0.00  0.00    +0.196 A 
ENDBRANCH  21  26
ENDBRANCH  15   9
BRANCH  14   8
ATOM      8  N   UNL     1      -6.642  -9.668   8.344  0.00  0.00    -0.182 NA
ATOM     30  H   UNL     1      -5.633  -9.607   8.155  0.00  0.00    +0.149 HD
BRANCH   8   1
ATOM      1  S   UNL     1      -7.700  -9.273   7.076  0.00  0.00    +0.065 S 
ATOM      5  O   UNL     1      -8.717 -10.300   6.958  0.00  0.00    -0.153 OA
ATOM      6  O   UNL     1      -6.917  -8.884   5.918  0.00  0.00    -0.153 OA
BRANCH   1  19
ATOM      2  S   UNL     1     -10.089  -8.021   8.203  0.00  0.00    -0.077 S 
ATOM     19  C   UNL     1      -8.474  -7.807   7.690  0.00  0.00    +0.142 A 
ATOM     20  C   UNL     1      -8.039  -6.516   7.842  0.00  0.00    +0.036 A 
ATOM     23  C   UNL     1      -9.053  -5.679   8.391  0.00  0.00    +0.010 A 
ATOM     24  C   UNL     1     -10.219  -6.370   8.636  0.00  0.00    +0.047 A 
ENDBRANCH   1  19
ENDBRANCH   8   1
ENDBRANCH  14   8
TORSDOF 5
ENDMDL
MODEL 5
REMARK VINA RESULT:      -6.3     31.486     34.206
REMARK  Name = 11912977
REMARK  5 active torsions:
REMARK  status: ('A' for Active; 'I' for Inactive)
REMARK    1  A    between atoms: S_1  and  N_8
REMARK    2  A    between atoms: S_1  and  C_19
REMARK    3  A    between atoms: N_8  and  C_14
REMARK    4  A    between atoms: N_9  and  C_15
REMARK    5  A    between atoms: C_21  and  C_26
REMARK                            x       y       z     vdW  Elec       q    Type
REMARK                         _______ _______ _______ _____ _____    ______ ____
ROOT
ATOM      3  O   UNL     1     -12.682  -8.177  14.887  0.00  0.00    -0.370 OA
ATOM      4  O   UNL     1     -11.088  -5.835  16.194  0.00  0.00    -0.370 OA
ATOM     12  C   UNL     1     -11.248  -6.279  14.838  0.00  0.00    +0.170 C 
ATOM     13  C   UNL     1     -11.296  -7.795  14.862  0.00  0.00    +0.171 C 
ATOM     14  C   UNL     1     -12.606  -5.876  14.309  0.00  0.00    +0.133 C 
ATOM     15  C   UNL     1     -10.628  -8.164  16.164  0.00  0.00    +0.130 C 
ATOM     16  C   UNL     1     -13.496  -6.998  14.813  0.00  0.00    +0.183 C 
ATOM     17  C   UNL     1     -10.948  -6.976  17.053  0.00  0.00    +0.185 C 
ENDROOT
BRANCH  15   9
ATOM      9  N   UNL     1      -9.199  -8.276  15.973  0.00  0.00    -0.306 N 
ATOM     10  N   UNL     1      -9.016 -10.028  17.523  0.00  0.00    -0.211 NA
ATOM     11  N   UNL     1      -7.074  -9.192  16.365  0.00  0.00    -0.223 NA
ATOM     18  C   UNL     1      -8.405  -9.193  16.640  0.00  0.00    +0.216 A 
ATOM     21  C   UNL     1      -8.213 -10.909  18.155  0.00  0.00    +0.111 A 
ATOM     22  C   UNL     1      -6.332 -10.100  17.033  0.00  0.00    +0.116 A 
ATOM     25  C   UNL     1      -6.851 -10.992  17.948  0.00  0.00    +0.051 A 
ATOM     31  H   UNL     1      -8.742  -7.695  15.279  0.00  0.00    +0.149 HD
BRANCH  21  26
ATOM      7  O   UNL     1     -10.120 -11.367  19.473  0.00  0.00    -0.461 OA
ATOM     26  C   UNL     1      -8.887 -11.779  19.083  0.00  0.00    +0.153 A 
ATOM     27  C   UNL     1      -8.556 -12.968  19.686  0.00  0.00    +0.051 A 
ATOM     28  C   UNL     1      -9.661 -13.313  20.501  0.00  0.00    +0.042 A 
ATOM     29  C   UNL     1     -10.585 -12.307  20.336  0.00  0.00    +0.196 A 
ENDBRANCH  21  26
ENDBRANCH  15   9
BRANCH  14   8
ATOM      8  N   UNL     1     -12.607  -5.816  12.866  0.00  0.00    -0.182 NA
ATOM     30  H   UNL     1     -11.972  -6.472  12.393  0.00  0.00    +0.149 HD
BRANCH   8   1
ATOM      1  S   UNL     1     -12.943  -4.348  12.083  0.00  0.00    +0.065 S 
ATOM      5  O   UNL     1     -12.433  -3.248  12.880  0.00  0.00    -0.153 OA
ATOM      6  O   UNL     1     -14.327  -4.355  11.650  0.00  0.00    -0.153 OA
BRANCH   1  19
ATOM      2  S   UNL     1     -11.800  -6.057  10.004  0.00  0.00    -0.077 S 
ATOM     19  C   UNL     1     -11.947  -4.474  10.628  0.00  0.00    +0.142 A 
ATOM     20  C   UNL     1     -11.258  -3.549   9.887  0.00  0.00    +0.036 A 
ATOM     23  C   UNL     1     -10.592  -4.150   8.779  0.00  0.00    +0.010 A 
ATOM     24  C   UNL     1     -10.803  -5.509   8.724  0.00  0.00    +0.047 A 
ENDBRANCH   1  19
ENDBRANCH   8   1
ENDBRANCH  14   8
TORSDOF 5
ENDMDL
MODEL 6
REMARK VINA RESULT:      -6.3     31.500     33.283
REMARK  Name = 11912977
REMARK  5 active torsions:
REMARK  status: ('A' for Active; 'I' for Inactive)
REMARK    1  A    between atoms: S_1  and  N_8
REMARK    2  A    between atoms: S_1  and  C_19
REMARK    3  A    between atoms: N_8  and  C_14
REMARK    4  A    between atoms: N_9  and  C_15
REMARK    5  A    between atoms: C_21  and  C_26
REMARK                            x       y       z     vdW  Elec       q    Type
REMARK                         _______ _______ _______ _____ _____    ______ ____
ROOT
ATOM      3  O   UNL     1      -9.602  -9.331  15.128  0.00  0.00    -0.370 OA
ATOM      4  O   UNL     1     -10.535  -7.193  17.200  0.00  0.00    -0.370 OA
ATOM     12  C   UNL     1     -10.815  -8.592  17.036  0.00  0.00    +0.170 C 
ATOM     13  C   UNL     1     -10.897  -8.865  15.547  0.00  0.00    +0.171 C 
ATOM     14  C   UNL     1      -9.640  -9.422  17.499  0.00  0.00    +0.133 C 
ATOM     15  C   UNL     1     -11.188  -7.514  14.939  0.00  0.00    +0.130 C 
ATOM     16  C   UNL     1      -8.744  -9.427  16.274  0.00  0.00    +0.183 C 
ATOM     17  C   UNL     1     -10.520  -6.560  15.912  0.00  0.00    +0.185 C 
ENDROOT
BRANCH  15   9
ATOM      9  N   UNL     1     -12.615  -7.281  14.910  0.00  0.00    -0.306 N 
ATOM     10  N   UNL     1     -12.484  -6.032  12.928  0.00  0.00    -0.211 NA
ATOM     11  N   UNL     1     -14.602  -6.414  14.013  0.00  0.00    -0.223 NA
ATOM     18  C   UNL     1     -13.253  -6.554  13.921  0.00  0.00    +0.216 A 
ATOM     21  C   UNL     1     -13.138  -5.330  11.980  0.00  0.00    +0.111 A 
ATOM     22  C   UNL     1     -15.190  -5.699  13.031  0.00  0.00    +0.116 A 
ATOM     25  C   UNL     1     -14.503  -5.129  11.980  0.00  0.00    +0.051 A 
ATOM     31  H   UNL     1     -13.205  -7.710  15.615  0.00  0.00    +0.149 HD
BRANCH  21  26
ATOM      7  O   UNL     1     -11.611  -5.708  10.219  0.00  0.00    -0.461 OA
ATOM     26  C   UNL     1     -12.298  -4.790  10.944  0.00  0.00    +0.153 A 
ATOM     27  C   UNL     1     -12.022  -3.517  10.507  0.00  0.00    +0.051 A 
ATOM     28  C   UNL     1     -11.103  -3.661   9.441  0.00  0.00    +0.042 A 
ATOM     29  C   UNL     1     -10.885  -5.013   9.304  0.00  0.00    +0.196 A 
ENDBRANCH  21  26
ENDBRANCH  15   9
BRANCH  14   8
ATOM      8  N   UNL     1     -10.052 -10.760  17.851  0.00  0.00    -0.182 NA
ATOM     30  H   UNL     1     -10.968 -11.054  17.489  0.00  0.00    +0.149 HD
BRANCH   8   1
ATOM      1  S   UNL     1      -9.533 -11.445  19.315  0.00  0.00    +0.065 S 
ATOM      5  O   UNL     1     -10.021 -12.808  19.410  0.00  0.00    -0.153 OA
ATOM      6  O   UNL     1      -9.788 -10.503  20.389  0.00  0.00    -0.153 OA
BRANCH   1  19
ATOM      2  S   UNL     1      -7.231 -12.849  18.187  0.00  0.00    -0.077 S 
ATOM     19  C   UNL     1      -7.782 -11.508  19.090  0.00  0.00    +0.142 A 
ATOM     20  C   UNL     1      -6.759 -10.690  19.495  0.00  0.00    +0.036 A 
ATOM     23  C   UNL     1      -5.492 -11.172  19.057  0.00  0.00    +0.010 A 
ATOM     24  C   UNL     1      -5.603 -12.339  18.334  0.00  0.00    +0.047 A 
ENDBRANCH   1  19
ENDBRANCH   8   1
ENDBRANCH  14   8
TORSDOF 5
ENDMDL
MODEL 7
REMARK VINA RESULT:      -6.2     28.530     31.978
REMARK  Name = 11912977
REMARK  5 active torsions:
REMARK  status: ('A' for Active; 'I' for Inactive)
REMARK    1  A    between atoms: S_1  and  N_8
REMARK    2  A    between atoms: S_1  and  C_19
REMARK    3  A    between atoms: N_8  and  C_14
REMARK    4  A    between atoms: N_9  and  C_15
REMARK    5  A    between atoms: C_21  and  C_26
REMARK                            x       y       z     vdW  Elec       q    Type
REMARK                         _______ _______ _______ _____ _____    ______ ____
ROOT
ATOM      3  O   UNL     1      -6.510 -11.747  10.704  0.00  0.00    -0.370 OA
ATOM      4  O   UNL     1      -5.733  -8.727  10.802  0.00  0.00    -0.370 OA
ATOM     12  C   UNL     1      -5.324  -9.822   9.967  0.00  0.00    +0.170 C 
ATOM     13  C   UNL     1      -5.256 -11.058  10.843  0.00  0.00    +0.171 C 
ATOM     14  C   UNL     1      -6.401 -10.145   8.957  0.00  0.00    +0.133 C 
ATOM     15  C   UNL     1      -5.112 -10.510  12.243  0.00  0.00    +0.130 C 
ATOM     16  C   UNL     1      -7.325 -11.054   9.748  0.00  0.00    +0.183 C 
ATOM     17  C   UNL     1      -5.843  -9.182  12.158  0.00  0.00    +0.185 C 
ENDROOT
BRANCH  15   9
ATOM      9  N   UNL     1      -3.715 -10.294  12.549  0.00  0.00    -0.306 N 
ATOM     10  N   UNL     1      -4.012 -10.835  14.812  0.00  0.00    -0.211 NA
ATOM     11  N   UNL     1      -1.843 -10.221  13.960  0.00  0.00    -0.223 NA
ATOM     18  C   UNL     1      -3.174 -10.455  13.812  0.00  0.00    +0.216 A 
ATOM     21  C   UNL     1      -3.451 -10.983  16.030  0.00  0.00    +0.111 A 
ATOM     22  C   UNL     1      -1.349 -10.389  15.205  0.00  0.00    +0.116 A 
ATOM     25  C   UNL     1      -2.113 -10.772  16.288  0.00  0.00    +0.051 A 
ATOM     31  H   UNL     1      -3.071 -10.062  11.800  0.00  0.00    +0.149 HD
BRANCH  21  26
ATOM      7  O   UNL     1      -4.859 -12.643  16.948  0.00  0.00    -0.461 OA
ATOM     26  C   UNL     1      -4.363 -11.386  17.068  0.00  0.00    +0.153 A 
ATOM     27  C   UNL     1      -4.864 -10.769  18.188  0.00  0.00    +0.051 A 
ATOM     28  C   UNL     1      -5.727 -11.710  18.799  0.00  0.00    +0.042 A 
ATOM     29  C   UNL     1      -5.689 -12.833  18.007  0.00  0.00    +0.196 A 
ENDBRANCH  21  26
ENDBRANCH  15   9
BRANCH  14   8
ATOM      8  N   UNL     1      -5.854 -10.827   7.809  0.00  0.00    -0.182 NA
ATOM     30  H   UNL     1      -4.841 -11.003   7.837  0.00  0.00    +0.149 HD
BRANCH   8   1
ATOM      1  S   UNL     1      -6.571 -10.623   6.284  0.00  0.00    +0.065 S 
ATOM      5  O   UNL     1      -6.546  -9.218   5.923  0.00  0.00    -0.153 OA
ATOM      6  O   UNL     1      -7.818 -11.362   6.251  0.00  0.00    -0.153 OA
BRANCH   1  19
ATOM      2  S   UNL     1      -6.072 -11.896   3.700  0.00  0.00    -0.077 S 
ATOM     19  C   UNL     1      -5.438 -11.476   5.230  0.00  0.00    +0.142 A 
ATOM     20  C   UNL     1      -4.136 -11.876   5.389  0.00  0.00    +0.036 A 
ATOM     23  C   UNL     1      -3.644 -12.544   4.230  0.00  0.00    +0.010 A 
ATOM     24  C   UNL     1      -4.593 -12.624   3.236  0.00  0.00    +0.047 A 
ENDBRANCH   1  19
ENDBRANCH   8   1
ENDBRANCH  14   8
TORSDOF 5
ENDMDL
MODEL 8
REMARK VINA RESULT:      -6.2     15.324     18.302
REMARK  Name = 11912977
REMARK  5 active torsions:
REMARK  status: ('A' for Active; 'I' for Inactive)
REMARK    1  A    between atoms: S_1  and  N_8
REMARK    2  A    between atoms: S_1  and  C_19
REMARK    3  A    between atoms: N_8  and  C_14
REMARK    4  A    between atoms: N_9  and  C_15
REMARK    5  A    between atoms: C_21  and  C_26
REMARK                            x       y       z     vdW  Elec       q    Type
REMARK                         _______ _______ _______ _____ _____    ______ ____
ROOT
ATOM      3  O   UNL     1      14.545   7.081   6.396  0.00  0.00    -0.370 OA
ATOM      4  O   UNL     1      13.050   9.267   4.747  0.00  0.00    -0.370 OA
ATOM     12  C   UNL     1      13.044   7.831   4.710  0.00  0.00    +0.170 C 
ATOM     13  C   UNL     1      14.461   7.366   4.990  0.00  0.00    +0.171 C 
ATOM     14  C   UNL     1      12.240   7.278   5.864  0.00  0.00    +0.133 C 
ATOM     15  C   UNL     1      15.316   8.563   4.646  0.00  0.00    +0.130 C 
ATOM     16  C   UNL     1      13.255   7.275   6.994  0.00  0.00    +0.183 C 
ATOM     17  C   UNL     1      14.393   9.730   4.947  0.00  0.00    +0.185 C 
ENDROOT
BRANCH  15   9
ATOM      9  N   UNL     1      15.654   8.543   3.240  0.00  0.00    -0.306 N 
ATOM     10  N   UNL     1      17.935   8.210   3.680  0.00  0.00    -0.211 NA
ATOM     11  N   UNL     1      17.121   8.367   1.417  0.00  0.00    -0.223 NA
ATOM     18  C   UNL     1      16.942   8.368   2.764  0.00  0.00    +0.216 A 
ATOM     21  C   UNL     1      19.177   8.042   3.182  0.00  0.00    +0.111 A 
ATOM     22  C   UNL     1      18.388   8.193   0.989  0.00  0.00    +0.116 A 
ATOM     25  C   UNL     1      19.467   8.024   1.833  0.00  0.00    +0.051 A 
ATOM     31  H   UNL     1      14.915   8.606   2.549  0.00  0.00    +0.149 HD
BRANCH  21  26
ATOM      7  O   UNL     1      19.799   8.015   5.461  0.00  0.00    -0.461 OA
ATOM     26  C   UNL     1      20.207   7.878   4.174  0.00  0.00    +0.153 A 
ATOM     27  C   UNL     1      21.552   7.608   4.115  0.00  0.00    +0.051 A 
ATOM     28  C   UNL     1      22.003   7.575   5.457  0.00  0.00    +0.042 A 
ATOM     29  C   UNL     1      20.898   7.829   6.237  0.00  0.00    +0.196 A 
ENDBRANCH  21  26
ENDBRANCH  15   9
BRANCH  14   8
ATOM      8  N   UNL     1      11.770   5.943   5.580  0.00  0.00    -0.182 NA
ATOM     30  H   UNL     1      12.380   5.374   4.979  0.00  0.00    +0.149 HD
BRANCH   8   1
ATOM      1  S   UNL     1      10.103   5.630   5.523  0.00  0.00    +0.065 S 
ATOM      5  O   UNL     1       9.861   4.445   4.722  0.00  0.00    -0.153 OA
ATOM      6  O   UNL     1       9.405   6.866   5.225  0.00  0.00    -0.153 OA
BRANCH   1  19
ATOM      2  S   UNL     1       9.270   6.561   8.166  0.00  0.00    -0.077 S 
ATOM     19  C   UNL     1       9.747   5.230   7.208  0.00  0.00    +0.142 A 
ATOM     20  C   UNL     1       9.776   4.056   7.914  0.00  0.00    +0.036 A 
ATOM     23  C   UNL     1       9.398   4.248   9.274  0.00  0.00    +0.010 A 
ATOM     24  C   UNL     1       9.097   5.564   9.547  0.00  0.00    +0.047 A 
ENDBRANCH   1  19
ENDBRANCH   8   1
ENDBRANCH  14   8
TORSDOF 5
ENDMDL
MODEL 9
REMARK VINA RESULT:      -6.2     28.917     31.325
REMARK  Name = 11912977
REMARK  5 active torsions:
REMARK  status: ('A' for Active; 'I' for Inactive)
REMARK    1  A    between atoms: S_1  and  N_8
REMARK    2  A    between atoms: S_1  and  C_19
REMARK    3  A    between atoms: N_8  and  C_14
REMARK    4  A    between atoms: N_9  and  C_15
REMARK    5  A    between atoms: C_21  and  C_26
REMARK                            x       y       z     vdW  Elec       q    Type
REMARK                         _______ _______ _______ _____ _____    ______ ____
ROOT
ATOM      3  O   UNL     1      -4.953 -11.623  10.566  0.00  0.00    -0.370 OA
ATOM      4  O   UNL     1      -3.462  -8.898  10.273  0.00  0.00    -0.370 OA
ATOM     12  C   UNL     1      -4.243  -9.484  11.327  0.00  0.00    +0.170 C 
ATOM     13  C   UNL     1      -5.376 -10.253  10.675  0.00  0.00    +0.171 C 
ATOM     14  C   UNL     1      -3.443 -10.545  12.047  0.00  0.00    +0.133 C 
ATOM     15  C   UNL     1      -5.502  -9.634   9.304  0.00  0.00    +0.130 C 
ATOM     16  C   UNL     1      -3.658 -11.765  11.168  0.00  0.00    +0.183 C 
ATOM     17  C   UNL     1      -4.082  -9.182   9.011  0.00  0.00    +0.185 C 
ENDROOT
BRANCH  15   9
ATOM      9  N   UNL     1      -6.390  -8.493   9.355  0.00  0.00    -0.306 N 
ATOM     10  N   UNL     1      -7.105  -8.810   7.143  0.00  0.00    -0.211 NA
ATOM     11  N   UNL     1      -7.971  -6.999   8.477  0.00  0.00    -0.223 NA
ATOM     18  C   UNL     1      -7.179  -8.088   8.293  0.00  0.00    +0.216 A 
ATOM     21  C   UNL     1      -7.887  -8.388   6.128  0.00  0.00    +0.111 A 
ATOM     22  C   UNL     1      -8.728  -6.634   7.421  0.00  0.00    +0.116 A 
ATOM     25  C   UNL     1      -8.727  -7.296   6.211  0.00  0.00    +0.051 A 
ATOM     31  H   UNL     1      -6.493  -7.980  10.224  0.00  0.00    +0.149 HD
BRANCH  21  26
ATOM      7  O   UNL     1      -8.412  -8.648   3.840  0.00  0.00    -0.461 OA
ATOM     26  C   UNL     1      -7.787  -9.171   4.925  0.00  0.00    +0.153 A 
ATOM     27  C   UNL     1      -7.185 -10.366   4.613  0.00  0.00    +0.051 A 
ATOM     28  C   UNL     1      -7.458 -10.593   3.243  0.00  0.00    +0.042 A 
ATOM     29  C   UNL     1      -8.207  -9.521   2.819  0.00  0.00    +0.196 A 
ENDBRANCH  21  26
ENDBRANCH  15   9
BRANCH  14   8
ATOM      8  N   UNL     1      -3.950 -10.766  13.381  0.00  0.00    -0.182 NA
ATOM     30  H   UNL     1      -4.796 -10.237  13.629  0.00  0.00    +0.149 HD
BRANCH   8   1
ATOM      1  S   UNL     1      -2.877 -11.160  14.636  0.00  0.00    +0.065 S 
ATOM      5  O   UNL     1      -1.811 -10.178  14.688  0.00  0.00    -0.153 OA
ATOM      6  O   UNL     1      -2.563 -12.574  14.555  0.00  0.00    -0.153 OA
BRANCH   1  19
ATOM      2  S   UNL     1      -5.411 -10.224  15.754  0.00  0.00    -0.077 S 
ATOM     19  C   UNL     1      -3.892 -10.939  16.066  0.00  0.00    +0.142 A 
ATOM     20  C   UNL     1      -3.708 -11.228  17.394  0.00  0.00    +0.036 A 
ATOM     23  C   UNL     1      -4.838 -10.854  18.177  0.00  0.00    +0.010 A 
ATOM     24  C   UNL     1      -5.837 -10.297  17.411  0.00  0.00    +0.047 A 
ENDBRANCH   1  19
ENDBRANCH   8   1
ENDBRANCH  14   8
TORSDOF 5
ENDMDL
MODEL 10
REMARK VINA RESULT:      -6.2     15.261     16.432
REMARK  Name = 11912977
REMARK  5 active torsions:
REMARK  status: ('A' for Active; 'I' for Inactive)
REMARK    1  A    between atoms: S_1  and  N_8
REMARK    2  A    between atoms: S_1  and  C_19
REMARK    3  A    between atoms: N_8  and  C_14
REMARK    4  A    between atoms: N_9  and  C_15
REMARK    5  A    between atoms: C_21  and  C_26
REMARK                            x       y       z     vdW  Elec       q    Type
REMARK                         _______ _______ _______ _____ _____    ______ ____
ROOT
ATOM      3  O   UNL     1      14.422  10.447   6.007  0.00  0.00    -0.370 OA
ATOM      4  O   UNL     1      15.467   7.512   6.182  0.00  0.00    -0.370 OA
ATOM     12  C   UNL     1      15.618   8.554   5.204  0.00  0.00    +0.170 C 
ATOM     13  C   UNL     1      14.303   9.306   5.139  0.00  0.00    +0.171 C 
ATOM     14  C   UNL     1      16.611   9.587   5.685  0.00  0.00    +0.133 C 
ATOM     15  C   UNL     1      13.292   8.332   5.692  0.00  0.00    +0.130 C 
ATOM     16  C   UNL     1      15.748  10.485   6.553  0.00  0.00    +0.183 C 
ATOM     17  C   UNL     1      14.117   7.513   6.669  0.00  0.00    +0.185 C 
ENDROOT
BRANCH  15   9
ATOM      9  N   UNL     1      12.787   7.486   4.633  0.00  0.00    -0.306 N 
ATOM     10  N   UNL     1      11.300   6.381   6.071  0.00  0.00    -0.211 NA
ATOM     11  N   UNL     1      11.422   5.802   3.735  0.00  0.00    -0.223 NA
ATOM     18  C   UNL     1      11.807   6.527   4.818  0.00  0.00    +0.216 A 
ATOM     21  C   UNL     1      10.346   5.438   6.216  0.00  0.00    +0.111 A 
ATOM     22  C   UNL     1      10.464   4.878   3.952  0.00  0.00    +0.116 A 
ATOM     25  C   UNL     1       9.884   4.649   5.183  0.00  0.00    +0.051 A 
ATOM     31  H   UNL     1      13.120   7.623   3.685  0.00  0.00    +0.149 HD
BRANCH  21  26
ATOM      7  O   UNL     1       9.903   4.058   8.082  0.00  0.00    -0.461 OA
ATOM     26  C   UNL     1       9.829   5.305   7.553  0.00  0.00    +0.153 A 
ATOM     27  C   UNL     1       9.256   6.180   8.444  0.00  0.00    +0.051 A 
ATOM     28  C   UNL     1       8.959   5.421   9.600  0.00  0.00    +0.042 A 
ATOM     29  C   UNL     1       9.372   4.136   9.330  0.00  0.00    +0.196 A 
ENDBRANCH  21  26
ENDBRANCH  15   9
BRANCH  14   8
ATOM      8  N   UNL     1      17.180  10.318   4.579  0.00  0.00    -0.182 NA
ATOM     30  H   UNL     1      16.800  10.091   3.651  0.00  0.00    +0.149 HD
BRANCH   8   1
ATOM      1  S   UNL     1      18.792  10.845   4.655  0.00  0.00    +0.065 S 
ATOM      5  O   UNL     1      18.944  11.778   5.756  0.00  0.00    -0.153 OA
ATOM      6  O   UNL     1      19.228  11.212   3.321  0.00  0.00    -0.153 OA
BRANCH   1  19
ATOM      2  S   UNL     1      19.714   8.195   3.832  0.00  0.00    -0.077 S 
ATOM     19  C   UNL     1      19.643   9.356   5.083  0.00  0.00    +0.142 A 
ATOM     20  C   UNL     1      20.268   8.935   6.228  0.00  0.00    +0.036 A 
ATOM     23  C   UNL     1      20.818   7.629   6.080  0.00  0.00    +0.010 A 
ATOM     24  C   UNL     1      20.590   7.110   4.825  0.00  0.00    +0.047 A 
ENDBRANCH   1  19
ENDBRANCH   8   1
ENDBRANCH  14   8
TORSDOF 5
ENDMDL
