MODEL 1
REMARK VINA RESULT:      -7.3      0.000      0.000
REMARK  Name = 40780655
REMARK  12 active torsions:
REMARK  status: ('A' for Active; 'I' for Inactive)
REMARK    1  A    between atoms: O_3  and  C_10
REMARK    2  A    between atoms: O_4  and  C_11
REMARK    3  A    between atoms: N_7  and  C_15
REMARK    4  A    between atoms: N_8  and  C_18
REMARK    5  A    between atoms: N_9  and  C_23
REMARK    6  A    between atoms: N_9  and  C_31
REMARK    7  A    between atoms: N_9  and  C_32
REMARK    8  A    between atoms: C_12  and  C_14
REMARK    9  A    between atoms: C_13  and  C_15
REMARK   10  A    between atoms: C_14  and  C_16
REMARK   11  A    between atoms: C_17  and  C_19
REMARK   12  A    between atoms: C_18  and  C_20
REMARK                            x       y       z     vdW  Elec       q    Type
REMARK                         _______ _______ _______ _____ _____    ______ ____
ROOT
ATOM      2  O   UNL     1       9.378   5.953   5.819  0.00  0.00    -0.366 OA
ATOM     10  C   UNL     1      11.508   6.622   6.575  0.00  0.00    +0.175 C 
ATOM     11  C   UNL     1      10.700   6.193   7.782  0.00  0.00    +0.176 C 
ATOM     12  C   UNL     1      10.767   5.922   5.448  0.00  0.00    +0.158 C 
ATOM     13  C   UNL     1       9.276   6.221   7.236  0.00  0.00    +0.167 C 
ENDROOT
BRANCH  10   3
ATOM      3  O   UNL     1      12.863   6.230   6.641  0.00  0.00    -0.387 OA
ATOM     33  H   UNL     1      12.942   5.574   7.354  0.00  0.00    +0.210 HD
ENDBRANCH  10   3
BRANCH  11   4
ATOM      4  O   UNL     1      11.013   4.846   8.135  0.00  0.00    -0.387 OA
ATOM     34  H   UNL     1      11.736   4.877   8.786  0.00  0.00    +0.210 HD
ENDBRANCH  11   4
BRANCH  12  14
ATOM     14  C   UNL     1      10.951   6.593   4.098  0.00  0.00    +0.130 C 
BRANCH  14  16
ATOM      5  O   UNL     1      10.083   5.785   1.990  0.00  0.00    -0.276 OA
ATOM      8  N   UNL     1      11.692   4.535   3.107  0.00  0.00    -0.311 N 
ATOM     16  C   UNL     1      10.841   5.616   2.942  0.00  0.00    +0.216 C 
ATOM     36  H   UNL     1      12.289   4.503   3.930  0.00  0.00    +0.149 HD
BRANCH   8  18
ATOM     18  C   UNL     1      11.788   3.453   2.155  0.00  0.00    +0.139 C 
BRANCH  18  20
ATOM      1  F   UNL     1      16.143   4.125  -1.358  0.00  0.00    -0.205 F 
ATOM     20  C   UNL     1      12.952   3.632   1.217  0.00  0.00    -0.030 A 
ATOM     26  C   UNL     1      12.728   3.765  -0.154  0.00  0.00    +0.008 A 
ATOM     27  C   UNL     1      14.253   3.665   1.717  0.00  0.00    +0.008 A 
ATOM     28  C   UNL     1      13.806   3.931  -1.023  0.00  0.00    +0.038 A 
ATOM     29  C   UNL     1      15.331   3.831   0.848  0.00  0.00    +0.038 A 
ATOM     30  C   UNL     1      15.107   3.964  -0.522  0.00  0.00    +0.123 A 
ENDBRANCH  18  20
ENDBRANCH   8  18
ENDBRANCH  14  16
ENDBRANCH  12  14
BRANCH  13  15
ATOM     15  C   UNL     1       8.599   7.574   7.406  0.00  0.00    +0.138 C 
BRANCH  15   7
ATOM      6  O   UNL     1       9.381   9.714   5.658  0.00  0.00    -0.270 OA
ATOM      7  N   UNL     1       7.939   7.977   6.200  0.00  0.00    -0.309 N 
ATOM     17  C   UNL     1       8.389   9.032   5.410  0.00  0.00    +0.244 C 
ATOM     35  H   UNL     1       7.080   7.490   5.967  0.00  0.00    +0.149 HD
BRANCH  17  19
ATOM     19  C   UNL     1       7.579   9.343   4.205  0.00  0.00    +0.037 A 
ATOM     21  C   UNL     1       6.382  10.049   4.332  0.00  0.00    +0.015 A 
ATOM     22  C   UNL     1       8.012   8.929   2.945  0.00  0.00    +0.015 A 
ATOM     23  C   UNL     1       6.055   9.925   1.941  0.00  0.00    +0.029 A 
ATOM     24  C   UNL     1       5.621  10.341   3.201  0.00  0.00    +0.024 A 
ATOM     25  C   UNL     1       7.251   9.220   1.813  0.00  0.00    +0.024 A 
BRANCH  23   9
ATOM      9  N   UNL     1       5.285  10.220   0.797  0.00  0.00    -0.336 N 
ATOM     31  C   UNL     1       4.589   9.166   0.087  0.00  0.00    +0.129 C 
ATOM     32  C   UNL     1       5.175  11.584   0.319  0.00  0.00    +0.129 C 
ENDBRANCH  23   9
ENDBRANCH  17  19
ENDBRANCH  15   7
ENDBRANCH  13  15
TORSDOF 10
ENDMDL
MODEL 2
REMARK VINA RESULT:      -7.2     14.175     18.808
REMARK  Name = 40780655
REMARK  12 active torsions:
REMARK  status: ('A' for Active; 'I' for Inactive)
REMARK    1  A    between atoms: O_3  and  C_10
REMARK    2  A    between atoms: O_4  and  C_11
REMARK    3  A    between atoms: N_7  and  C_15
REMARK    4  A    between atoms: N_8  and  C_18
REMARK    5  A    between atoms: N_9  and  C_23
REMARK    6  A    between atoms: N_9  and  C_31
REMARK    7  A    between atoms: N_9  and  C_32
REMARK    8  A    between atoms: C_12  and  C_14
REMARK    9  A    between atoms: C_13  and  C_15
REMARK   10  A    between atoms: C_14  and  C_16
REMARK   11  A    between atoms: C_17  and  C_19
REMARK   12  A    between atoms: C_18  and  C_20
REMARK                            x       y       z     vdW  Elec       q    Type
REMARK                         _______ _______ _______ _____ _____    ______ ____
ROOT
ATOM      2  O   UNL     1      13.139   9.199  19.905  0.00  0.00    -0.366 OA
ATOM     10  C   UNL     1      12.590   6.908  20.011  0.00  0.00    +0.175 C 
ATOM     11  C   UNL     1      13.728   7.160  20.979  0.00  0.00    +0.176 C 
ATOM     12  C   UNL     1      12.014   8.305  19.851  0.00  0.00    +0.158 C 
ATOM     13  C   UNL     1      14.260   8.506  20.500  0.00  0.00    +0.167 C 
ENDROOT
BRANCH  10   3
ATOM      3  O   UNL     1      11.632   5.993  20.499  0.00  0.00    -0.387 OA
ATOM     33  H   UNL     1      11.343   6.312  21.370  0.00  0.00    +0.210 HD
ENDBRANCH  10   3
BRANCH  11   4
ATOM      4  O   UNL     1      13.223   7.327  22.303  0.00  0.00    -0.387 OA
ATOM     34  H   UNL     1      13.963   7.627  22.860  0.00  0.00    +0.210 HD
ENDBRANCH  11   4
BRANCH  12  14
ATOM     14  C   UNL     1      11.268   8.502  18.542  0.00  0.00    +0.130 C 
BRANCH  14  16
ATOM      5  O   UNL     1      12.731   7.471  16.916  0.00  0.00    -0.276 OA
ATOM      8  N   UNL     1      12.337   9.757  16.796  0.00  0.00    -0.311 N 
ATOM     16  C   UNL     1      12.191   8.489  17.338  0.00  0.00    +0.216 C 
ATOM     36  H   UNL     1      11.831  10.532  17.218  0.00  0.00    +0.149 HD
BRANCH   8  18
ATOM     18  C   UNL     1      13.163  10.033  15.643  0.00  0.00    +0.139 C 
BRANCH  18  20
ATOM      1  F   UNL     1      17.602  13.246  16.956  0.00  0.00    -0.205 F 
ATOM     20  C   UNL     1      14.349  10.891  15.994  0.00  0.00    -0.030 A 
ATOM     26  C   UNL     1      15.306  11.189  15.024  0.00  0.00    +0.008 A 
ATOM     27  C   UNL     1      14.491  11.389  17.290  0.00  0.00    +0.008 A 
ATOM     28  C   UNL     1      16.405  11.984  15.349  0.00  0.00    +0.038 A 
ATOM     29  C   UNL     1      15.590  12.184  17.614  0.00  0.00    +0.038 A 
ATOM     30  C   UNL     1      16.546  12.481  16.644  0.00  0.00    +0.123 A 
ENDBRANCH  18  20
ENDBRANCH   8  18
ENDBRANCH  14  16
ENDBRANCH  12  14
BRANCH  13  15
ATOM     15  C   UNL     1      15.343   8.376  19.439  0.00  0.00    +0.138 C 
BRANCH  15   7
ATOM      6  O   UNL     1      16.551   5.833  18.873  0.00  0.00    -0.270 OA
ATOM      7  N   UNL     1      16.558   7.861  20.001  0.00  0.00    -0.309 N 
ATOM     17  C   UNL     1      17.073   6.611  19.668  0.00  0.00    +0.244 C 
ATOM     35  H   UNL     1      17.009   8.432  20.708  0.00  0.00    +0.149 HD
BRANCH  17  19
ATOM     19  C   UNL     1      18.326   6.212  20.358  0.00  0.00    +0.037 A 
ATOM     21  C   UNL     1      18.725   6.873  21.519  0.00  0.00    +0.015 A 
ATOM     22  C   UNL     1      19.106   5.176  19.844  0.00  0.00    +0.015 A 
ATOM     23  C   UNL     1      20.682   5.463  21.651  0.00  0.00    +0.029 A 
ATOM     24  C   UNL     1      19.902   6.499  22.166  0.00  0.00    +0.024 A 
ATOM     25  C   UNL     1      20.284   4.801  20.490  0.00  0.00    +0.024 A 
BRANCH  23   9
ATOM      9  N   UNL     1      21.873   5.084  22.306  0.00  0.00    -0.336 N 
ATOM     31  C   UNL     1      22.673   6.069  23.005  0.00  0.00    +0.129 C 
ATOM     32  C   UNL     1      22.307   3.702  22.293  0.00  0.00    +0.129 C 
ENDBRANCH  23   9
ENDBRANCH  17  19
ENDBRANCH  15   7
ENDBRANCH  13  15
TORSDOF 10
ENDMDL
MODEL 3
REMARK VINA RESULT:      -7.1     16.370     19.706
REMARK  Name = 40780655
REMARK  12 active torsions:
REMARK  status: ('A' for Active; 'I' for Inactive)
REMARK    1  A    between atoms: O_3  and  C_10
REMARK    2  A    between atoms: O_4  and  C_11
REMARK    3  A    between atoms: N_7  and  C_15
REMARK    4  A    between atoms: N_8  and  C_18
REMARK    5  A    between atoms: N_9  and  C_23
REMARK    6  A    between atoms: N_9  and  C_31
REMARK    7  A    between atoms: N_9  and  C_32
REMARK    8  A    between atoms: C_12  and  C_14
REMARK    9  A    between atoms: C_13  and  C_15
REMARK   10  A    between atoms: C_14  and  C_16
REMARK   11  A    between atoms: C_17  and  C_19
REMARK   12  A    between atoms: C_18  and  C_20
REMARK                            x       y       z     vdW  Elec       q    Type
REMARK                         _______ _______ _______ _____ _____    ______ ____
ROOT
ATOM      2  O   UNL     1      12.590  12.384  23.685  0.00  0.00    -0.366 OA
ATOM     10  C   UNL     1      10.485  13.442  23.781  0.00  0.00    +0.175 C 
ATOM     11  C   UNL     1      10.501  12.343  24.823  0.00  0.00    +0.176 C 
ATOM     12  C   UNL     1      11.971  13.676  23.563  0.00  0.00    +0.158 C 
ATOM     13  C   UNL     1      11.680  11.490  24.366  0.00  0.00    +0.167 C 
ENDROOT
BRANCH  10   3
ATOM      3  O   UNL     1       9.823  14.612  24.210  0.00  0.00    -0.387 OA
ATOM     33  H   UNL     1       9.593  14.489  25.147  0.00  0.00    +0.210 HD
ENDBRANCH  10   3
BRANCH  11   4
ATOM      4  O   UNL     1      10.814  12.883  26.106  0.00  0.00    -0.387 OA
ATOM     34  H   UNL     1      11.205  12.165  26.635  0.00  0.00    +0.210 HD
ENDBRANCH  11   4
BRANCH  12  14
ATOM     14  C   UNL     1      12.294  14.271  22.203  0.00  0.00    +0.130 C 
BRANCH  14  16
ATOM      5  O   UNL     1      14.674  14.405  21.792  0.00  0.00    -0.276 OA
ATOM      8  N   UNL     1      13.489  12.573  20.995  0.00  0.00    -0.311 N 
ATOM     16  C   UNL     1      13.624  13.784  21.656  0.00  0.00    +0.216 C 
ATOM     36  H   UNL     1      12.571  12.137  20.952  0.00  0.00    +0.149 HD
BRANCH   8  18
ATOM     18  C   UNL     1      14.597  11.884  20.375  0.00  0.00    +0.139 C 
BRANCH  18  20
ATOM      1  F   UNL     1      12.859   8.002  16.679  0.00  0.00    -0.205 F 
ATOM     20  C   UNL     1      14.133  10.847  19.387  0.00  0.00    -0.030 A 
ATOM     26  C   UNL     1      15.062  10.171  18.597  0.00  0.00    +0.008 A 
ATOM     27  C   UNL     1      12.773  10.562  19.262  0.00  0.00    +0.008 A 
ATOM     28  C   UNL     1      14.632   9.211  17.681  0.00  0.00    +0.038 A 
ATOM     29  C   UNL     1      12.342   9.602  18.347  0.00  0.00    +0.038 A 
ATOM     30  C   UNL     1      13.272   8.926  17.557  0.00  0.00    +0.123 A 
ENDBRANCH  18  20
ENDBRANCH   8  18
ENDBRANCH  14  16
ENDBRANCH  12  14
BRANCH  13  15
ATOM     15  C   UNL     1      11.279  10.397  23.386  0.00  0.00    +0.138 C 
BRANCH  15   7
ATOM      6  O   UNL     1      11.377   7.850  22.063  0.00  0.00    -0.270 OA
ATOM      7  N   UNL     1      12.432   9.782  22.797  0.00  0.00    -0.309 N 
ATOM     17  C   UNL     1      12.389   8.538  22.173  0.00  0.00    +0.244 C 
ATOM     35  H   UNL     1      13.314  10.274  22.903  0.00  0.00    +0.149 HD
BRANCH  17  19
ATOM     19  C   UNL     1      13.675   8.026  21.637  0.00  0.00    +0.037 A 
ATOM     21  C   UNL     1      14.880   8.591  22.055  0.00  0.00    +0.015 A 
ATOM     22  C   UNL     1      13.681   6.980  20.714  0.00  0.00    +0.015 A 
ATOM     23  C   UNL     1      16.093   7.066  20.627  0.00  0.00    +0.029 A 
ATOM     24  C   UNL     1      16.088   8.111  21.551  0.00  0.00    +0.024 A 
ATOM     25  C   UNL     1      14.889   6.499  20.209  0.00  0.00    +0.024 A 
BRANCH  23   9
ATOM      9  N   UNL     1      17.315   6.579  20.118  0.00  0.00    -0.336 N 
ATOM     31  C   UNL     1      17.337   5.747  18.931  0.00  0.00    +0.129 C 
ATOM     32  C   UNL     1      18.565   6.910  20.771  0.00  0.00    +0.129 C 
ENDBRANCH  23   9
ENDBRANCH  17  19
ENDBRANCH  15   7
ENDBRANCH  13  15
TORSDOF 10
ENDMDL
MODEL 4
REMARK VINA RESULT:      -7.1     29.848     33.106
REMARK  Name = 40780655
REMARK  12 active torsions:
REMARK  status: ('A' for Active; 'I' for Inactive)
REMARK    1  A    between atoms: O_3  and  C_10
REMARK    2  A    between atoms: O_4  and  C_11
REMARK    3  A    between atoms: N_7  and  C_15
REMARK    4  A    between atoms: N_8  and  C_18
REMARK    5  A    between atoms: N_9  and  C_23
REMARK    6  A    between atoms: N_9  and  C_31
REMARK    7  A    between atoms: N_9  and  C_32
REMARK    8  A    between atoms: C_12  and  C_14
REMARK    9  A    between atoms: C_13  and  C_15
REMARK   10  A    between atoms: C_14  and  C_16
REMARK   11  A    between atoms: C_17  and  C_19
REMARK   12  A    between atoms: C_18  and  C_20
REMARK                            x       y       z     vdW  Elec       q    Type
REMARK                         _______ _______ _______ _____ _____    ______ ____
ROOT
ATOM      2  O   UNL     1     -17.221   5.531  22.728  0.00  0.00    -0.366 OA
ATOM     10  C   UNL     1     -14.990   4.771  22.668  0.00  0.00    +0.175 C 
ATOM     11  C   UNL     1     -15.786   3.810  23.527  0.00  0.00    +0.176 C 
ATOM     12  C   UNL     1     -16.089   5.427  21.849  0.00  0.00    +0.158 C 
ATOM     13  C   UNL     1     -17.036   4.626  23.841  0.00  0.00    +0.167 C 
ENDROOT
BRANCH  10   3
ATOM      3  O   UNL     1     -14.032   4.131  21.853  0.00  0.00    -0.387 OA
ATOM     33  H   UNL     1     -13.153   4.398  22.174  0.00  0.00    +0.210 HD
ENDBRANCH  10   3
BRANCH  11   4
ATOM      4  O   UNL     1     -16.180   2.672  22.762  0.00  0.00    -0.387 OA
ATOM     34  H   UNL     1     -15.723   2.727  21.904  0.00  0.00    +0.210 HD
ENDBRANCH  11   4
BRANCH  12  14
ATOM     14  C   UNL     1     -15.713   6.806  21.334  0.00  0.00    +0.130 C 
BRANCH  14  16
ATOM      5  O   UNL     1     -14.110   7.888  22.786  0.00  0.00    -0.276 OA
ATOM      8  N   UNL     1     -13.354   6.792  20.882  0.00  0.00    -0.311 N 
ATOM     16  C   UNL     1     -14.324   7.233  21.770  0.00  0.00    +0.216 C 
ATOM     36  H   UNL     1     -13.642   6.242  20.076  0.00  0.00    +0.149 HD
BRANCH   8  18
ATOM     18  C   UNL     1     -11.945   7.060  21.055  0.00  0.00    +0.139 C 
BRANCH  18  20
ATOM      1  F   UNL     1      -9.765   9.777  16.626  0.00  0.00    -0.205 F 
ATOM     20  C   UNL     1     -11.363   7.786  19.872  0.00  0.00    -0.030 A 
ATOM     26  C   UNL     1     -11.319   7.164  18.624  0.00  0.00    +0.008 A 
ATOM     27  C   UNL     1     -10.866   9.081  20.023  0.00  0.00    +0.008 A 
ATOM     28  C   UNL     1     -10.779   7.836  17.528  0.00  0.00    +0.038 A 
ATOM     29  C   UNL     1     -10.326   9.753  18.926  0.00  0.00    +0.038 A 
ATOM     30  C   UNL     1     -10.283   9.131  17.680  0.00  0.00    +0.123 A 
ENDBRANCH  18  20
ENDBRANCH   8  18
ENDBRANCH  14  16
ENDBRANCH  12  14
BRANCH  13  15
ATOM     15  C   UNL     1     -16.900   5.463  25.105  0.00  0.00    +0.138 C 
BRANCH  15   7
ATOM      6  O   UNL     1     -17.953   5.618  27.772  0.00  0.00    -0.270 OA
ATOM      7  N   UNL     1     -16.519   4.651  26.223  0.00  0.00    -0.309 N 
ATOM     17  C   UNL     1     -17.085   4.796  27.488  0.00  0.00    +0.244 C 
ATOM     35  H   UNL     1     -15.766   3.990  26.069  0.00  0.00    +0.149 HD
BRANCH  17  19
ATOM     19  C   UNL     1     -16.563   3.896  28.548  0.00  0.00    +0.037 A 
ATOM     21  C   UNL     1     -16.811   2.525  28.484  0.00  0.00    +0.015 A 
ATOM     22  C   UNL     1     -15.825   4.422  29.609  0.00  0.00    +0.015 A 
ATOM     23  C   UNL     1     -15.584   2.207  30.541  0.00  0.00    +0.029 A 
ATOM     24  C   UNL     1     -16.321   1.680  29.480  0.00  0.00    +0.024 A 
ATOM     25  C   UNL     1     -15.335   3.578  30.605  0.00  0.00    +0.024 A 
BRANCH  23   9
ATOM      9  N   UNL     1     -15.088   1.353  31.548  0.00  0.00    -0.336 N 
ATOM     31  C   UNL     1     -14.777   1.872  32.865  0.00  0.00    +0.129 C 
ATOM     32  C   UNL     1     -14.890  -0.057  31.281  0.00  0.00    +0.129 C 
ENDBRANCH  23   9
ENDBRANCH  17  19
ENDBRANCH  15   7
ENDBRANCH  13  15
TORSDOF 10
ENDMDL
MODEL 5
REMARK VINA RESULT:      -7.1     30.660     33.964
REMARK  Name = 40780655
REMARK  12 active torsions:
REMARK  status: ('A' for Active; 'I' for Inactive)
REMARK    1  A    between atoms: O_3  and  C_10
REMARK    2  A    between atoms: O_4  and  C_11
REMARK    3  A    between atoms: N_7  and  C_15
REMARK    4  A    between atoms: N_8  and  C_18
REMARK    5  A    between atoms: N_9  and  C_23
REMARK    6  A    between atoms: N_9  and  C_31
REMARK    7  A    between atoms: N_9  and  C_32
REMARK    8  A    between atoms: C_12  and  C_14
REMARK    9  A    between atoms: C_13  and  C_15
REMARK   10  A    between atoms: C_14  and  C_16
REMARK   11  A    between atoms: C_17  and  C_19
REMARK   12  A    between atoms: C_18  and  C_20
REMARK                            x       y       z     vdW  Elec       q    Type
REMARK                         _______ _______ _______ _____ _____    ______ ____
ROOT
ATOM      2  O   UNL     1     -15.256   3.545  24.889  0.00  0.00    -0.366 OA
ATOM     10  C   UNL     1     -17.559   3.072  24.715  0.00  0.00    +0.175 C 
ATOM     11  C   UNL     1     -17.010   3.236  23.313  0.00  0.00    +0.176 C 
ATOM     12  C   UNL     1     -16.295   2.764  25.502  0.00  0.00    +0.158 C 
ATOM     13  C   UNL     1     -15.689   3.952  23.571  0.00  0.00    +0.167 C 
ENDROOT
BRANCH  10   3
ATOM      3  O   UNL     1     -18.516   2.041  24.826  0.00  0.00    -0.387 OA
ATOM     33  H   UNL     1     -18.177   1.398  25.472  0.00  0.00    +0.210 HD
ENDBRANCH  10   3
BRANCH  11   4
ATOM      4  O   UNL     1     -16.720   1.960  22.743  0.00  0.00    -0.387 OA
ATOM     34  H   UNL     1     -17.569   1.509  22.592  0.00  0.00    +0.210 HD
ENDBRANCH  11   4
BRANCH  12  14
ATOM     14  C   UNL     1     -16.401   3.119  26.975  0.00  0.00    +0.130 C 
BRANCH  14  16
ATOM      5  O   UNL     1     -16.480   0.830  27.752  0.00  0.00    -0.276 OA
ATOM      8  N   UNL     1     -15.114   2.353  28.853  0.00  0.00    -0.311 N 
ATOM     16  C   UNL     1     -16.023   1.962  27.881  0.00  0.00    +0.216 C 
ATOM     36  H   UNL     1     -14.790   3.317  28.861  0.00  0.00    +0.149 HD
BRANCH   8  18
ATOM     18  C   UNL     1     -14.587   1.451  29.850  0.00  0.00    +0.139 C 
BRANCH  18  20
ATOM      1  F   UNL     1     -14.398   3.834  34.952  0.00  0.00    -0.205 F 
ATOM     20  C   UNL     1     -14.537   2.088  31.213  0.00  0.00    -0.030 A 
ATOM     26  C   UNL     1     -14.688   1.303  32.356  0.00  0.00    +0.008 A 
ATOM     27  C   UNL     1     -14.338   3.464  31.334  0.00  0.00    +0.008 A 
ATOM     28  C   UNL     1     -14.642   1.893  33.619  0.00  0.00    +0.038 A 
ATOM     29  C   UNL     1     -14.292   4.054  32.597  0.00  0.00    +0.038 A 
ATOM     30  C   UNL     1     -14.444   3.268  33.739  0.00  0.00    +0.123 A 
ENDBRANCH  18  20
ENDBRANCH   8  18
ENDBRANCH  14  16
ENDBRANCH  12  14
BRANCH  13  15
ATOM     15  C   UNL     1     -15.823   5.468  23.571  0.00  0.00    +0.138 C 
BRANCH  15   7
ATOM      6  O   UNL     1     -16.125   5.957  20.758  0.00  0.00    -0.270 OA
ATOM      7  N   UNL     1     -14.859   6.073  22.700  0.00  0.00    -0.309 N 
ATOM     17  C   UNL     1     -15.091   6.273  21.341  0.00  0.00    +0.244 C 
ATOM     35  H   UNL     1     -13.960   6.306  23.108  0.00  0.00    +0.149 HD
BRANCH  17  19
ATOM     19  C   UNL     1     -13.981   6.888  20.569  0.00  0.00    +0.037 A 
ATOM     21  C   UNL     1     -12.662   6.722  20.990  0.00  0.00    +0.015 A 
ATOM     22  C   UNL     1     -14.258   7.633  19.423  0.00  0.00    +0.015 A 
ATOM     23  C   UNL     1     -11.898   8.046  19.120  0.00  0.00    +0.029 A 
ATOM     24  C   UNL     1     -11.620   7.300  20.265  0.00  0.00    +0.024 A 
ATOM     25  C   UNL     1     -13.216   8.212  18.698  0.00  0.00    +0.024 A 
BRANCH  23   9
ATOM      9  N   UNL     1     -10.844   8.630  18.386  0.00  0.00    -0.336 N 
ATOM     31  C   UNL     1     -10.497   8.128  17.072  0.00  0.00    +0.129 C 
ATOM     32  C   UNL     1     -10.099   9.745  18.935  0.00  0.00    +0.129 C 
ENDBRANCH  23   9
ENDBRANCH  17  19
ENDBRANCH  15   7
ENDBRANCH  13  15
TORSDOF 10
ENDMDL
MODEL 6
REMARK VINA RESULT:      -7.0     24.932     26.841
REMARK  Name = 40780655
REMARK  12 active torsions:
REMARK  status: ('A' for Active; 'I' for Inactive)
REMARK    1  A    between atoms: O_3  and  C_10
REMARK    2  A    between atoms: O_4  and  C_11
REMARK    3  A    between atoms: N_7  and  C_15
REMARK    4  A    between atoms: N_8  and  C_18
REMARK    5  A    between atoms: N_9  and  C_23
REMARK    6  A    between atoms: N_9  and  C_31
REMARK    7  A    between atoms: N_9  and  C_32
REMARK    8  A    between atoms: C_12  and  C_14
REMARK    9  A    between atoms: C_13  and  C_15
REMARK   10  A    between atoms: C_14  and  C_16
REMARK   11  A    between atoms: C_17  and  C_19
REMARK   12  A    between atoms: C_18  and  C_20
REMARK                            x       y       z     vdW  Elec       q    Type
REMARK                         _______ _______ _______ _____ _____    ______ ____
ROOT
ATOM      2  O   UNL     1      -5.638 -11.026  16.778  0.00  0.00    -0.366 OA
ATOM     10  C   UNL     1      -4.591 -12.170  18.553  0.00  0.00    +0.175 C 
ATOM     11  C   UNL     1      -6.071 -12.489  18.603  0.00  0.00    +0.176 C 
ATOM     12  C   UNL     1      -4.425 -11.722  17.110  0.00  0.00    +0.158 C 
ATOM     13  C   UNL     1      -6.662 -11.384  17.733  0.00  0.00    +0.167 C 
ENDROOT
BRANCH  10   3
ATOM      3  O   UNL     1      -3.769 -13.276  18.861  0.00  0.00    -0.387 OA
ATOM     33  H   UNL     1      -3.256 -13.044  19.654  0.00  0.00    +0.210 HD
ENDBRANCH  10   3
BRANCH  11   4
ATOM      4  O   UNL     1      -6.330 -13.740  17.968  0.00  0.00    -0.387 OA
ATOM     34  H   UNL     1      -5.493 -14.044  17.575  0.00  0.00    +0.210 HD
ENDBRANCH  11   4
BRANCH  12  14
ATOM     14  C   UNL     1      -3.234 -10.803  16.898  0.00  0.00    +0.130 C 
BRANCH  14  16
ATOM      5  O   UNL     1      -1.269 -11.228  15.554  0.00  0.00    -0.276 OA
ATOM      8  N   UNL     1      -3.357 -11.210  14.534  0.00  0.00    -0.311 N 
ATOM     16  C   UNL     1      -2.489 -11.103  15.610  0.00  0.00    +0.216 C 
ATOM     36  H   UNL     1      -4.355 -11.101  14.697  0.00  0.00    +0.149 HD
BRANCH   8  18
ATOM     18  C   UNL     1      -2.914 -11.489  13.188  0.00  0.00    +0.139 C 
BRANCH  18  20
ATOM      1  F   UNL     1      -5.114  -7.878   9.463  0.00  0.00    -0.205 F 
ATOM     20  C   UNL     1      -3.501 -10.524  12.192  0.00  0.00    -0.030 A 
ATOM     26  C   UNL     1      -4.811 -10.070  12.351  0.00  0.00    +0.008 A 
ATOM     27  C   UNL     1      -2.737 -10.084  11.111  0.00  0.00    +0.008 A 
ATOM     28  C   UNL     1      -5.356  -9.177  11.429  0.00  0.00    +0.038 A 
ATOM     29  C   UNL     1      -3.282  -9.191  10.189  0.00  0.00    +0.038 A 
ATOM     30  C   UNL     1      -4.591  -8.738  10.348  0.00  0.00    +0.123 A 
ENDBRANCH  18  20
ENDBRANCH   8  18
ENDBRANCH  14  16
ENDBRANCH  12  14
BRANCH  13  15
ATOM     15  C   UNL     1      -7.022 -10.133  18.522  0.00  0.00    +0.138 C 
BRANCH  15   7
ATOM      6  O   UNL     1      -9.861 -10.489  18.763  0.00  0.00    -0.270 OA
ATOM      7  N   UNL     1      -8.039  -9.375  17.855  0.00  0.00    -0.309 N 
ATOM     17  C   UNL     1      -9.399  -9.617  18.031  0.00  0.00    +0.244 C 
ATOM     35  H   UNL     1      -7.723  -8.675  17.192  0.00  0.00    +0.149 HD
BRANCH  17  19
ATOM     19  C   UNL     1     -10.326  -8.762  17.247  0.00  0.00    +0.037 A 
ATOM     21  C   UNL     1     -11.700  -8.997  17.294  0.00  0.00    +0.015 A 
ATOM     22  C   UNL     1      -9.823  -7.725  16.462  0.00  0.00    +0.015 A 
ATOM     23  C   UNL     1     -12.067  -7.157  15.772  0.00  0.00    +0.029 A 
ATOM     24  C   UNL     1     -12.571  -8.194  16.558  0.00  0.00    +0.024 A 
ATOM     25  C   UNL     1     -10.693  -6.922  15.724  0.00  0.00    +0.024 A 
BRANCH  23   9
ATOM      9  N   UNL     1     -12.947  -6.345  15.027  0.00  0.00    -0.336 N 
ATOM     31  C   UNL     1     -14.379  -6.562  15.090  0.00  0.00    +0.129 C 
ATOM     32  C   UNL     1     -12.431  -5.278  14.194  0.00  0.00    +0.129 C 
ENDBRANCH  23   9
ENDBRANCH  17  19
ENDBRANCH  15   7
ENDBRANCH  13  15
TORSDOF 10
ENDMDL
MODEL 7
REMARK VINA RESULT:      -6.9     26.722     28.951
REMARK  Name = 40780655
REMARK  12 active torsions:
REMARK  status: ('A' for Active; 'I' for Inactive)
REMARK    1  A    between atoms: O_3  and  C_10
REMARK    2  A    between atoms: O_4  and  C_11
REMARK    3  A    between atoms: N_7  and  C_15
REMARK    4  A    between atoms: N_8  and  C_18
REMARK    5  A    between atoms: N_9  and  C_23
REMARK    6  A    between atoms: N_9  and  C_31
REMARK    7  A    between atoms: N_9  and  C_32
REMARK    8  A    between atoms: C_12  and  C_14
REMARK    9  A    between atoms: C_13  and  C_15
REMARK   10  A    between atoms: C_14  and  C_16
REMARK   11  A    between atoms: C_17  and  C_19
REMARK   12  A    between atoms: C_18  and  C_20
REMARK                            x       y       z     vdW  Elec       q    Type
REMARK                         _______ _______ _______ _____ _____    ______ ____
ROOT
ATOM      2  O   UNL     1      -6.448 -11.629  17.130  0.00  0.00    -0.366 OA
ATOM     10  C   UNL     1      -4.252 -11.303  17.923  0.00  0.00    +0.175 C 
ATOM     11  C   UNL     1      -4.889 -12.398  18.753  0.00  0.00    +0.176 C 
ATOM     12  C   UNL     1      -5.119 -11.325  16.675  0.00  0.00    +0.158 C 
ATOM     13  C   UNL     1      -6.372 -12.200  18.456  0.00  0.00    +0.167 C 
ENDROOT
BRANCH  10   3
ATOM      3  O   UNL     1      -2.893 -11.542  17.628  0.00  0.00    -0.387 OA
ATOM     33  H   UNL     1      -2.404 -10.725  17.826  0.00  0.00    +0.210 HD
ENDBRANCH  10   3
BRANCH  11   4
ATOM      4  O   UNL     1      -4.505 -13.680  18.259  0.00  0.00    -0.387 OA
ATOM     34  H   UNL     1      -3.957 -13.534  17.468  0.00  0.00    +0.210 HD
ENDBRANCH  11   4
BRANCH  12  14
ATOM     14  C   UNL     1      -5.125 -10.005  15.923  0.00  0.00    +0.130 C 
BRANCH  14  16
ATOM      5  O   UNL     1      -5.495 -10.407  13.567  0.00  0.00    -0.276 OA
ATOM      8  N   UNL     1      -7.266  -9.679  14.883  0.00  0.00    -0.311 N 
ATOM     16  C   UNL     1      -5.954 -10.062  14.652  0.00  0.00    +0.216 C 
ATOM     36  H   UNL     1      -7.543  -9.425  15.828  0.00  0.00    +0.149 HD
BRANCH   8  18
ATOM     18  C   UNL     1      -8.271  -9.639  13.846  0.00  0.00    +0.139 C 
BRANCH  18  20
ATOM      1  F   UNL     1     -12.967 -12.356  15.366  0.00  0.00    -0.205 F 
ATOM     20  C   UNL     1      -9.525 -10.365  14.252  0.00  0.00    -0.030 A 
ATOM     26  C   UNL     1     -10.765  -9.934  13.779  0.00  0.00    +0.008 A 
ATOM     27  C   UNL     1      -9.449 -11.469  15.102  0.00  0.00    +0.008 A 
ATOM     28  C   UNL     1     -11.927 -10.606  14.156  0.00  0.00    +0.038 A 
ATOM     29  C   UNL     1     -10.612 -12.141  15.478  0.00  0.00    +0.038 A 
ATOM     30  C   UNL     1     -11.850 -11.709  15.005  0.00  0.00    +0.123 A 
ENDBRANCH  18  20
ENDBRANCH   8  18
ENDBRANCH  14  16
ENDBRANCH  12  14
BRANCH  13  15
ATOM     15  C   UNL     1      -7.048 -11.235  19.419  0.00  0.00    +0.138 C 
BRANCH  15   7
ATOM      6  O   UNL     1      -9.909 -11.202  19.661  0.00  0.00    -0.270 OA
ATOM      7  N   UNL     1      -7.956 -10.366  18.728  0.00  0.00    -0.309 N 
ATOM     17  C   UNL     1      -9.336 -10.420  18.907  0.00  0.00    +0.244 C 
ATOM     35  H   UNL     1      -7.550  -9.733  18.047  0.00  0.00    +0.149 HD
BRANCH  17  19
ATOM     19  C   UNL     1     -10.141  -9.470  18.098  0.00  0.00    +0.037 A 
ATOM     21  C   UNL     1     -11.527  -9.609  18.034  0.00  0.00    +0.015 A 
ATOM     22  C   UNL     1      -9.512  -8.440  17.400  0.00  0.00    +0.015 A 
ATOM     23  C   UNL     1     -11.653  -7.688  16.575  0.00  0.00    +0.029 A 
ATOM     24  C   UNL     1     -12.284  -8.718  17.274  0.00  0.00    +0.024 A 
ATOM     25  C   UNL     1     -10.267  -7.548  16.638  0.00  0.00    +0.024 A 
BRANCH  23   9
ATOM      9  N   UNL     1     -12.418  -6.785  15.806  0.00  0.00    -0.336 N 
ATOM     31  C   UNL     1     -13.866  -6.840  15.833  0.00  0.00    +0.129 C 
ATOM     32  C   UNL     1     -11.765  -5.787  14.984  0.00  0.00    +0.129 C 
ENDBRANCH  23   9
ENDBRANCH  17  19
ENDBRANCH  15   7
ENDBRANCH  13  15
TORSDOF 10
ENDMDL
MODEL 8
REMARK VINA RESULT:      -6.9     34.281     37.393
REMARK  Name = 40780655
REMARK  12 active torsions:
REMARK  status: ('A' for Active; 'I' for Inactive)
REMARK    1  A    between atoms: O_3  and  C_10
REMARK    2  A    between atoms: O_4  and  C_11
REMARK    3  A    between atoms: N_7  and  C_15
REMARK    4  A    between atoms: N_8  and  C_18
REMARK    5  A    between atoms: N_9  and  C_23
REMARK    6  A    between atoms: N_9  and  C_31
REMARK    7  A    between atoms: N_9  and  C_32
REMARK    8  A    between atoms: C_12  and  C_14
REMARK    9  A    between atoms: C_13  and  C_15
REMARK   10  A    between atoms: C_14  and  C_16
REMARK   11  A    between atoms: C_17  and  C_19
REMARK   12  A    between atoms: C_18  and  C_20
REMARK                            x       y       z     vdW  Elec       q    Type
REMARK                         _______ _______ _______ _____ _____    ______ ____
ROOT
ATOM      2  O   UNL     1     -13.394   2.619  31.899  0.00  0.00    -0.366 OA
ATOM     10  C   UNL     1     -14.798   0.791  31.406  0.00  0.00    +0.175 C 
ATOM     11  C   UNL     1     -14.102   1.202  30.125  0.00  0.00    +0.176 C 
ATOM     12  C   UNL     1     -13.875   1.384  32.457  0.00  0.00    +0.158 C 
ATOM     13  C   UNL     1     -13.606   2.603  30.470  0.00  0.00    +0.167 C 
ENDROOT
BRANCH  10   3
ATOM      3  O   UNL     1     -14.931  -0.607  31.547  0.00  0.00    -0.387 OA
ATOM     33  H   UNL     1     -14.415  -1.022  30.835  0.00  0.00    +0.210 HD
ENDBRANCH  10   3
BRANCH  11   4
ATOM      4  O   UNL     1     -12.965   0.374  29.891  0.00  0.00    -0.387 OA
ATOM     34  H   UNL     1     -13.246  -0.549  30.021  0.00  0.00    +0.210 HD
ENDBRANCH  11   4
BRANCH  12  14
ATOM     14  C   UNL     1     -14.567   1.657  33.781  0.00  0.00    +0.130 C 
BRANCH  14  16
ATOM      5  O   UNL     1     -16.273   3.248  33.141  0.00  0.00    -0.276 OA
ATOM      8  N   UNL     1     -14.635   3.893  34.658  0.00  0.00    -0.311 N 
ATOM     16  C   UNL     1     -15.269   3.003  33.805  0.00  0.00    +0.216 C 
ATOM     36  H   UNL     1     -13.815   3.579  35.172  0.00  0.00    +0.149 HD
BRANCH   8  18
ATOM     18  C   UNL     1     -15.092   5.247  34.869  0.00  0.00    +0.139 C 
BRANCH  18  20
ATOM      1  F   UNL     1     -11.609   9.026  32.559  0.00  0.00    -0.205 F 
ATOM     20  C   UNL     1     -14.162   6.256  34.251  0.00  0.00    -0.030 A 
ATOM     26  C   UNL     1     -13.505   7.185  35.059  0.00  0.00    +0.008 A 
ATOM     27  C   UNL     1     -13.956   6.264  32.872  0.00  0.00    +0.008 A 
ATOM     28  C   UNL     1     -12.643   8.121  34.487  0.00  0.00    +0.038 A 
ATOM     29  C   UNL     1     -13.094   7.200  32.300  0.00  0.00    +0.038 A 
ATOM     30  C   UNL     1     -12.438   8.128  33.108  0.00  0.00    +0.123 A 
ENDBRANCH  18  20
ENDBRANCH   8  18
ENDBRANCH  14  16
ENDBRANCH  12  14
BRANCH  13  15
ATOM     15  C   UNL     1     -14.616   3.691  30.136  0.00  0.00    +0.138 C 
BRANCH  15   7
ATOM      6  O   UNL     1     -17.259   2.942  29.301  0.00  0.00    -0.270 OA
ATOM      7  N   UNL     1     -15.084   3.566  28.787  0.00  0.00    -0.309 N 
ATOM     17  C   UNL     1     -16.389   3.196  28.472  0.00  0.00    +0.244 C 
ATOM     35  H   UNL     1     -14.399   3.708  28.053  0.00  0.00    +0.149 HD
BRANCH  17  19
ATOM     19  C   UNL     1     -16.710   3.085  27.026  0.00  0.00    +0.037 A 
ATOM     21  C   UNL     1     -17.020   1.842  26.473  0.00  0.00    +0.015 A 
ATOM     22  C   UNL     1     -16.702   4.223  26.220  0.00  0.00    +0.015 A 
ATOM     23  C   UNL     1     -17.311   2.877  24.310  0.00  0.00    +0.029 A 
ATOM     24  C   UNL     1     -17.321   1.738  25.116  0.00  0.00    +0.024 A 
ATOM     25  C   UNL     1     -17.003   4.120  24.862  0.00  0.00    +0.024 A 
BRANCH  23   9
ATOM      9  N   UNL     1     -17.616   2.772  22.936  0.00  0.00    -0.336 N 
ATOM     31  C   UNL     1     -17.576   3.942  22.083  0.00  0.00    +0.129 C 
ATOM     32  C   UNL     1     -17.968   1.490  22.360  0.00  0.00    +0.129 C 
ENDBRANCH  23   9
ENDBRANCH  17  19
ENDBRANCH  15   7
ENDBRANCH  13  15
TORSDOF 10
ENDMDL
MODEL 9
REMARK VINA RESULT:      -6.8     24.498     26.506
REMARK  Name = 40780655
REMARK  12 active torsions:
REMARK  status: ('A' for Active; 'I' for Inactive)
REMARK    1  A    between atoms: O_3  and  C_10
REMARK    2  A    between atoms: O_4  and  C_11
REMARK    3  A    between atoms: N_7  and  C_15
REMARK    4  A    between atoms: N_8  and  C_18
REMARK    5  A    between atoms: N_9  and  C_23
REMARK    6  A    between atoms: N_9  and  C_31
REMARK    7  A    between atoms: N_9  and  C_32
REMARK    8  A    between atoms: C_12  and  C_14
REMARK    9  A    between atoms: C_13  and  C_15
REMARK   10  A    between atoms: C_14  and  C_16
REMARK   11  A    between atoms: C_17  and  C_19
REMARK   12  A    between atoms: C_18  and  C_20
REMARK                            x       y       z     vdW  Elec       q    Type
REMARK                         _______ _______ _______ _____ _____    ______ ____
ROOT
ATOM      2  O   UNL     1      -6.968 -11.744  17.424  0.00  0.00    -0.366 OA
ATOM     10  C   UNL     1      -6.197 -10.977  19.516  0.00  0.00    +0.175 C 
ATOM     11  C   UNL     1      -7.610 -10.465  19.324  0.00  0.00    +0.176 C 
ATOM     12  C   UNL     1      -6.164 -12.146  18.546  0.00  0.00    +0.158 C 
ATOM     13  C   UNL     1      -7.808 -10.636  17.822  0.00  0.00    +0.167 C 
ENDROOT
BRANCH  10   3
ATOM      3  O   UNL     1      -5.923 -11.380  20.840  0.00  0.00    -0.387 OA
ATOM     33  H   UNL     1      -5.053 -11.016  21.080  0.00  0.00    +0.210 HD
ENDBRANCH  10   3
BRANCH  11   4
ATOM      4  O   UNL     1      -8.540 -11.314  19.994  0.00  0.00    -0.387 OA
ATOM     34  H   UNL     1      -8.819 -11.997  19.359  0.00  0.00    +0.210 HD
ENDBRANCH  11   4
BRANCH  12  14
ATOM     14  C   UNL     1      -4.764 -12.495  18.071  0.00  0.00    +0.130 C 
BRANCH  14  16
ATOM      5  O   UNL     1      -5.461 -14.315  16.639  0.00  0.00    -0.276 OA
ATOM      8  N   UNL     1      -3.903 -12.785  15.848  0.00  0.00    -0.311 N 
ATOM     16  C   UNL     1      -4.769 -13.313  16.793  0.00  0.00    +0.216 C 
ATOM     36  H   UNL     1      -3.386 -11.939  16.076  0.00  0.00    +0.149 HD
BRANCH   8  18
ATOM     18  C   UNL     1      -3.711 -13.367  14.540  0.00  0.00    +0.139 C 
BRANCH  18  20
ATOM      1  F   UNL     1      -1.864  -9.575  10.803  0.00  0.00    -0.205 F 
ATOM     20  C   UNL     1      -3.217 -12.354  13.541  0.00  0.00    -0.030 A 
ATOM     26  C   UNL     1      -2.531 -11.222  13.978  0.00  0.00    +0.008 A 
ATOM     27  C   UNL     1      -3.447 -12.548  12.179  0.00  0.00    +0.008 A 
ATOM     28  C   UNL     1      -2.074 -10.283  13.054  0.00  0.00    +0.038 A 
ATOM     29  C   UNL     1      -2.990 -11.609  11.254  0.00  0.00    +0.038 A 
ATOM     30  C   UNL     1      -2.304 -10.477  11.692  0.00  0.00    +0.123 A 
ENDBRANCH  18  20
ENDBRANCH   8  18
ENDBRANCH  14  16
ENDBRANCH  12  14
BRANCH  13  15
ATOM     15  C   UNL     1      -7.379  -9.415  17.021  0.00  0.00    +0.138 C 
BRANCH  15   7
ATOM      6  O   UNL     1      -5.048  -9.959  15.435  0.00  0.00    -0.270 OA
ATOM      7  N   UNL     1      -7.347  -9.702  15.617  0.00  0.00    -0.309 N 
ATOM     17  C   UNL     1      -6.166  -9.955  14.925  0.00  0.00    +0.244 C 
ATOM     35  H   UNL     1      -8.233  -9.658  15.124  0.00  0.00    +0.149 HD
BRANCH  17  19
ATOM     19  C   UNL     1      -6.299 -10.209  13.468  0.00  0.00    +0.037 A 
ATOM     21  C   UNL     1      -5.847  -9.262  12.550  0.00  0.00    +0.015 A 
ATOM     22  C   UNL     1      -6.877 -11.396  13.016  0.00  0.00    +0.015 A 
ATOM     23  C   UNL     1      -6.552 -10.686  10.731  0.00  0.00    +0.029 A 
ATOM     24  C   UNL     1      -5.972  -9.499  11.182  0.00  0.00    +0.024 A 
ATOM     25  C   UNL     1      -7.004 -11.634  11.647  0.00  0.00    +0.024 A 
BRANCH  23   9
ATOM      9  N   UNL     1      -6.678 -10.927   9.346  0.00  0.00    -0.336 N 
ATOM     31  C   UNL     1      -7.981 -10.897   8.711  0.00  0.00    +0.129 C 
ATOM     32  C   UNL     1      -5.506 -11.203   8.540  0.00  0.00    +0.129 C 
ENDBRANCH  23   9
ENDBRANCH  17  19
ENDBRANCH  15   7
ENDBRANCH  13  15
TORSDOF 10
ENDMDL
MODEL 10
REMARK VINA RESULT:      -6.7     30.498     33.852
REMARK  Name = 40780655
REMARK  12 active torsions:
REMARK  status: ('A' for Active; 'I' for Inactive)
REMARK    1  A    between atoms: O_3  and  C_10
REMARK    2  A    between atoms: O_4  and  C_11
REMARK    3  A    between atoms: N_7  and  C_15
REMARK    4  A    between atoms: N_8  and  C_18
REMARK    5  A    between atoms: N_9  and  C_23
REMARK    6  A    between atoms: N_9  and  C_31
REMARK    7  A    between atoms: N_9  and  C_32
REMARK    8  A    between atoms: C_12  and  C_14
REMARK    9  A    between atoms: C_13  and  C_15
REMARK   10  A    between atoms: C_14  and  C_16
REMARK   11  A    between atoms: C_17  and  C_19
REMARK   12  A    between atoms: C_18  and  C_20
REMARK                            x       y       z     vdW  Elec       q    Type
REMARK                         _______ _______ _______ _____ _____    ______ ____
ROOT
ATOM      2  O   UNL     1     -16.495   3.355  22.778  0.00  0.00    -0.366 OA
ATOM     10  C   UNL     1     -15.968   5.447  23.728  0.00  0.00    +0.175 C 
ATOM     11  C   UNL     1     -15.127   4.395  24.423  0.00  0.00    +0.176 C 
ATOM     12  C   UNL     1     -16.328   4.740  22.432  0.00  0.00    +0.158 C 
ATOM     13  C   UNL     1     -15.860   3.109  24.053  0.00  0.00    +0.167 C 
ENDROOT
BRANCH  10   3
ATOM      3  O   UNL     1     -15.275   6.655  23.497  0.00  0.00    -0.387 OA
ATOM     33  H   UNL     1     -15.922   7.377  23.561  0.00  0.00    +0.210 HD
ENDBRANCH  10   3
BRANCH  11   4
ATOM      4  O   UNL     1     -13.823   4.344  23.846  0.00  0.00    -0.387 OA
ATOM     34  H   UNL     1     -13.542   5.261  23.683  0.00  0.00    +0.210 HD
ENDBRANCH  11   4
BRANCH  12  14
ATOM     14  C   UNL     1     -17.603   5.265  21.795  0.00  0.00    +0.130 C 
BRANCH  14  16
ATOM      5  O   UNL     1     -18.167   6.008  19.563  0.00  0.00    -0.276 OA
ATOM      8  N   UNL     1     -16.089   6.554  20.447  0.00  0.00    -0.311 N 
ATOM     16  C   UNL     1     -17.347   5.972  20.476  0.00  0.00    +0.216 C 
ATOM     36  H   UNL     1     -15.493   6.474  21.268  0.00  0.00    +0.149 HD
BRANCH   8  18
ATOM     18  C   UNL     1     -15.586   7.289  19.310  0.00  0.00    +0.139 C 
BRANCH  18  20
ATOM      1  F   UNL     1     -10.142   8.615  19.908  0.00  0.00    -0.205 F 
ATOM     20  C   UNL     1     -14.131   7.644  19.470  0.00  0.00    -0.030 A 
ATOM     26  C   UNL     1     -13.488   8.407  18.495  0.00  0.00    +0.008 A 
ATOM     27  C   UNL     1     -13.426   7.208  20.592  0.00  0.00    +0.008 A 
ATOM     28  C   UNL     1     -12.141   8.734  18.643  0.00  0.00    +0.038 A 
ATOM     29  C   UNL     1     -12.078   7.536  20.740  0.00  0.00    +0.038 A 
ATOM     30  C   UNL     1     -11.436   8.299  19.765  0.00  0.00    +0.123 A 
ENDBRANCH  18  20
ENDBRANCH   8  18
ENDBRANCH  14  16
ENDBRANCH  12  14
BRANCH  13  15
ATOM     15  C   UNL     1     -16.947   2.735  25.051  0.00  0.00    +0.138 C 
BRANCH  15   7
ATOM      6  O   UNL     1     -16.818   0.580  26.944  0.00  0.00    -0.270 OA
ATOM      7  N   UNL     1     -16.460   2.807  26.397  0.00  0.00    -0.309 N 
ATOM     17  C   UNL     1     -16.434   1.706  27.250  0.00  0.00    +0.244 C 
ATOM     35  H   UNL     1     -16.179   3.723  26.731  0.00  0.00    +0.149 HD
BRANCH  17  19
ATOM     19  C   UNL     1     -15.924   1.950  28.623  0.00  0.00    +0.037 A 
ATOM     21  C   UNL     1     -15.879   0.906  29.547  0.00  0.00    +0.015 A 
ATOM     22  C   UNL     1     -15.492   3.225  28.991  0.00  0.00    +0.015 A 
ATOM     23  C   UNL     1     -14.970   2.410  31.204  0.00  0.00    +0.029 A 
ATOM     24  C   UNL     1     -15.401   1.135  30.837  0.00  0.00    +0.024 A 
ATOM     25  C   UNL     1     -15.014   3.455  30.281  0.00  0.00    +0.024 A 
BRANCH  23   9
ATOM      9  N   UNL     1     -14.485   2.643  32.509  0.00  0.00    -0.336 N 
ATOM     31  C   UNL     1     -14.605   1.621  33.530  0.00  0.00    +0.129 C 
ATOM     32  C   UNL     1     -13.856   3.904  32.843  0.00  0.00    +0.129 C 
ENDBRANCH  23   9
ENDBRANCH  17  19
ENDBRANCH  15   7
ENDBRANCH  13  15
TORSDOF 10
ENDMDL
