MODEL 1
REMARK VINA RESULT:      -7.3      0.000      0.000
REMARK  Name = 40777226
REMARK  8 active torsions:
REMARK  status: ('A' for Active; 'I' for Inactive)
REMARK    1  A    between atoms: O_2  and  C_25
REMARK    2  A    between atoms: O_2  and  C_35
REMARK    3  A    between atoms: N_6  and  C_16
REMARK    4  A    between atoms: N_7  and  C_17
REMARK    5  A    between atoms: N_8  and  C_23
REMARK    6  A    between atoms: C_10  and  C_16
REMARK    7  A    between atoms: C_11  and  C_17
REMARK    8  A    between atoms: C_22  and  C_24
REMARK                            x       y       z     vdW  Elec       q    Type
REMARK                         _______ _______ _______ _____ _____    ______ ____
ROOT
ATOM      5  N   UNL     1      -1.721 -11.716  14.266  0.00  0.00    -0.298 NA
ATOM      9  C   UNL     1      -3.886 -12.509  13.061  0.00  0.00    -0.003 C 
ATOM     10  C   UNL     1      -3.309 -11.245  12.384  0.00  0.00    +0.020 C 
ATOM     11  C   UNL     1      -2.820 -11.888  15.254  0.00  0.00    +0.074 C 
ATOM     12  C   UNL     1      -4.155 -12.212  14.547  0.00  0.00    +0.024 C 
ATOM     13  C   UNL     1      -2.113 -10.738  13.222  0.00  0.00    +0.089 C 
ATOM     14  C   UNL     1      -2.788 -13.589  13.002  0.00  0.00    +0.019 C 
ATOM     15  C   UNL     1      -1.490 -13.026  13.608  0.00  0.00    +0.085 C 
ENDROOT
BRANCH  10  16
ATOM     16  C   UNL     1      -4.348 -10.149  12.166  0.00  0.00    +0.089 C 
BRANCH  16   6
ATOM      6  N   UNL     1      -4.890 -10.204  10.809  0.00  0.00    -0.299 NA
ATOM      8  N   UNL     1      -6.251  -9.212   8.502  0.00  0.00    -0.325 N 
ATOM     18  C   UNL     1      -4.269  -9.176   9.964  0.00  0.00    +0.103 C 
ATOM     19  C   UNL     1      -6.347 -10.023  10.827  0.00  0.00    +0.103 C 
ATOM     20  C   UNL     1      -4.785  -9.260   8.526  0.00  0.00    +0.120 C 
ATOM     21  C   UNL     1      -6.931 -10.136   9.418  0.00  0.00    +0.120 C 
BRANCH   8  23
ATOM     23  C   UNL     1      -6.913  -8.845   7.326  0.00  0.00    +0.072 A 
ATOM     25  C   UNL     1      -7.801  -7.769   7.317  0.00  0.00    +0.141 A 
ATOM     26  C   UNL     1      -6.680  -9.565   6.154  0.00  0.00    +0.027 A 
ATOM     29  C   UNL     1      -8.455  -7.413   6.138  0.00  0.00    +0.047 A 
ATOM     30  C   UNL     1      -7.333  -9.209   4.974  0.00  0.00    +0.002 A 
ATOM     31  C   UNL     1      -8.222  -8.133   4.966  0.00  0.00    +0.004 A 
BRANCH  25   2
ATOM      2  O   UNL     1      -8.045  -7.053   8.452  0.00  0.00    -0.493 OA
ATOM     35  C   UNL     1      -8.907  -5.924   8.332  0.00  0.00    +0.277 C 
ENDBRANCH  25   2
ENDBRANCH   8  23
ENDBRANCH  16   6
ENDBRANCH  10  16
BRANCH  11  17
ATOM     17  C   UNL     1      -2.952 -10.687  16.194  0.00  0.00    +0.123 C 
BRANCH  17   7
ATOM      1  O   UNL     1      -4.260 -11.370  18.657  0.00  0.00    -0.270 OA
ATOM      7  N   UNL     1      -4.345 -10.448  16.533  0.00  0.00    -0.310 N 
ATOM     22  C   UNL     1      -4.879 -10.817  17.752  0.00  0.00    +0.244 C 
ATOM     37  H   UNL     1      -4.934 -10.077  15.795  0.00  0.00    +0.149 HD
BRANCH  22  24
ATOM      3  O   UNL     1      -9.182 -11.228  20.125  0.00  0.00    -0.453 OA
ATOM      4  O   UNL     1     -10.318  -9.803  18.548  0.00  0.00    -0.453 OA
ATOM     24  C   UNL     1      -6.325 -10.527  17.932  0.00  0.00    +0.040 A 
ATOM     27  C   UNL     1      -7.013 -11.082  19.014  0.00  0.00    +0.062 A 
ATOM     28  C   UNL     1      -6.987  -9.696  17.012  0.00  0.00    +0.017 A 
ATOM     32  C   UNL     1      -8.354 -10.782  19.141  0.00  0.00    +0.167 A 
ATOM     33  C   UNL     1      -8.345  -9.408  17.164  0.00  0.00    +0.050 A 
ATOM     34  C   UNL     1      -9.003  -9.968  18.240  0.00  0.00    +0.166 A 
ATOM     36  C   UNL     1     -10.424 -10.603  19.742  0.00  0.00    +0.466 C 
ENDBRANCH  22  24
ENDBRANCH  17   7
ENDBRANCH  11  17
TORSDOF 7
ENDMDL
MODEL 2
REMARK VINA RESULT:      -7.2     23.426     25.968
REMARK  Name = 40777226
REMARK  8 active torsions:
REMARK  status: ('A' for Active; 'I' for Inactive)
REMARK    1  A    between atoms: O_2  and  C_25
REMARK    2  A    between atoms: O_2  and  C_35
REMARK    3  A    between atoms: N_6  and  C_16
REMARK    4  A    between atoms: N_7  and  C_17
REMARK    5  A    between atoms: N_8  and  C_23
REMARK    6  A    between atoms: C_10  and  C_16
REMARK    7  A    between atoms: C_11  and  C_17
REMARK    8  A    between atoms: C_22  and  C_24
REMARK                            x       y       z     vdW  Elec       q    Type
REMARK                         _______ _______ _______ _____ _____    ______ ____
ROOT
ATOM      5  N   UNL     1      10.083   6.527   7.233  0.00  0.00    -0.298 NA
ATOM      9  C   UNL     1       9.542   5.063   5.152  0.00  0.00    -0.003 C 
ATOM     10  C   UNL     1      10.858   5.848   4.947  0.00  0.00    +0.020 C 
ATOM     11  C   UNL     1       8.696   6.794   6.769  0.00  0.00    +0.074 C 
ATOM     12  C   UNL     1       8.400   6.051   5.448  0.00  0.00    +0.024 C 
ATOM     13  C   UNL     1      11.053   6.804   6.145  0.00  0.00    +0.089 C 
ATOM     14  C   UNL     1       9.732   4.194   6.411  0.00  0.00    +0.019 C 
ATOM     15  C   UNL     1      10.180   5.088   7.581  0.00  0.00    +0.085 C 
ENDROOT
BRANCH  10  16
ATOM     16  C   UNL     1      10.913   6.595   3.616  0.00  0.00    +0.089 C 
BRANCH  16   6
ATOM      6  N   UNL     1      10.886   5.661   2.492  0.00  0.00    -0.299 NA
ATOM      8  N   UNL     1      11.681   4.607  -0.042  0.00  0.00    -0.325 N 
ATOM     18  C   UNL     1      12.191   5.006   2.335  0.00  0.00    +0.103 C 
ATOM     19  C   UNL     1      10.526   6.359   1.251  0.00  0.00    +0.103 C 
ATOM     20  C   UNL     1      12.161   3.984   1.197  0.00  0.00    +0.120 C 
ATOM     21  C   UNL     1      10.440   5.382   0.077  0.00  0.00    +0.120 C 
BRANCH   8  23
ATOM     23  C   UNL     1      11.970   4.013  -1.274  0.00  0.00    +0.072 A 
ATOM     25  C   UNL     1      13.157   4.308  -1.944  0.00  0.00    +0.141 A 
ATOM     26  C   UNL     1      11.059   3.116  -1.833  0.00  0.00    +0.027 A 
ATOM     29  C   UNL     1      13.433   3.708  -3.173  0.00  0.00    +0.047 A 
ATOM     30  C   UNL     1      11.335   2.516  -3.062  0.00  0.00    +0.002 A 
ATOM     31  C   UNL     1      12.522   2.812  -3.732  0.00  0.00    +0.004 A 
BRANCH  25   2
ATOM      2  O   UNL     1      14.061   5.182  -1.416  0.00  0.00    -0.493 OA
ATOM     35  C   UNL     1      15.271   4.629  -0.902  0.00  0.00    +0.277 C 
ENDBRANCH  25   2
ENDBRANCH   8  23
ENDBRANCH  16   6
ENDBRANCH  10  16
BRANCH  11  17
ATOM     17  C   UNL     1       8.396   8.292   6.658  0.00  0.00    +0.123 C 
BRANCH  17   7
ATOM      1  O   UNL     1       9.098   9.993   4.455  0.00  0.00    -0.270 OA
ATOM      7  N   UNL     1       7.586   8.570   5.484  0.00  0.00    -0.310 N 
ATOM     22  C   UNL     1       8.018   9.409   4.475  0.00  0.00    +0.244 C 
ATOM     37  H   UNL     1       6.646   8.190   5.481  0.00  0.00    +0.149 HD
BRANCH  22  24
ATOM      3  O   UNL     1       3.587  10.536   2.628  0.00  0.00    -0.453 OA
ATOM      4  O   UNL     1       4.323  10.204   0.357  0.00  0.00    -0.453 OA
ATOM     24  C   UNL     1       7.062   9.610   3.356  0.00  0.00    +0.040 A 
ATOM     27  C   UNL     1       5.746   9.992   3.629  0.00  0.00    +0.062 A 
ATOM     28  C   UNL     1       7.492   9.417   2.032  0.00  0.00    +0.017 A 
ATOM     32  C   UNL     1       4.895  10.169   2.557  0.00  0.00    +0.167 A 
ATOM     33  C   UNL     1       6.610   9.603   0.964  0.00  0.00    +0.050 A 
ATOM     34  C   UNL     1       5.316   9.979   1.259  0.00  0.00    +0.166 A 
ATOM     36  C   UNL     1       3.232  10.556   1.230  0.00  0.00    +0.466 C 
ENDBRANCH  22  24
ENDBRANCH  17   7
ENDBRANCH  11  17
TORSDOF 7
ENDMDL
MODEL 3
REMARK VINA RESULT:      -7.1      4.035      7.715
REMARK  Name = 40777226
REMARK  8 active torsions:
REMARK  status: ('A' for Active; 'I' for Inactive)
REMARK    1  A    between atoms: O_2  and  C_25
REMARK    2  A    between atoms: O_2  and  C_35
REMARK    3  A    between atoms: N_6  and  C_16
REMARK    4  A    between atoms: N_7  and  C_17
REMARK    5  A    between atoms: N_8  and  C_23
REMARK    6  A    between atoms: C_10  and  C_16
REMARK    7  A    between atoms: C_11  and  C_17
REMARK    8  A    between atoms: C_22  and  C_24
REMARK                            x       y       z     vdW  Elec       q    Type
REMARK                         _______ _______ _______ _____ _____    ______ ____
ROOT
ATOM      5  N   UNL     1      -9.416 -10.963  18.681  0.00  0.00    -0.298 NA
ATOM      9  C   UNL     1      -8.380 -13.188  19.542  0.00  0.00    -0.003 C 
ATOM     10  C   UNL     1      -7.359 -12.031  19.638  0.00  0.00    +0.020 C 
ATOM     11  C   UNL     1      -9.595 -12.034  17.665  0.00  0.00    +0.074 C 
ATOM     12  C   UNL     1      -8.859 -13.326  18.086  0.00  0.00    +0.024 C 
ATOM     13  C   UNL     1      -7.976 -10.774  18.983  0.00  0.00    +0.089 C 
ATOM     14  C   UNL     1      -9.601 -12.778  20.387  0.00  0.00    +0.019 C 
ATOM     15  C   UNL     1     -10.096 -11.395  19.926  0.00  0.00    +0.085 C 
ENDROOT
BRANCH  10  16
ATOM     16  C   UNL     1      -6.001 -12.373  19.030  0.00  0.00    +0.089 C 
BRANCH  16   6
ATOM      6  N   UNL     1      -5.868 -11.800  17.692  0.00  0.00    -0.299 NA
ATOM      8  N   UNL     1      -4.540 -11.188  15.238  0.00  0.00    -0.325 N 
ATOM     18  C   UNL     1      -5.608 -12.855  16.704  0.00  0.00    +0.103 C 
ATOM     19  C   UNL     1      -4.785 -10.809  17.661  0.00  0.00    +0.103 C 
ATOM     20  C   UNL     1      -5.523 -12.275  15.290  0.00  0.00    +0.120 C 
ATOM     21  C   UNL     1      -4.674 -10.161  16.279  0.00  0.00    +0.120 C 
BRANCH   8  23
ATOM     23  C   UNL     1      -3.988 -10.810  14.009  0.00  0.00    +0.072 A 
ATOM     25  C   UNL     1      -2.606 -10.804  13.824  0.00  0.00    +0.141 A 
ATOM     26  C   UNL     1      -4.833 -10.438  12.963  0.00  0.00    +0.027 A 
ATOM     29  C   UNL     1      -2.068 -10.426  12.594  0.00  0.00    +0.047 A 
ATOM     30  C   UNL     1      -4.295 -10.060  11.733  0.00  0.00    +0.002 A 
ATOM     31  C   UNL     1      -2.912 -10.053  11.548  0.00  0.00    +0.004 A 
BRANCH  25   2
ATOM      2  O   UNL     1      -1.763 -11.164  14.833  0.00  0.00    -0.493 OA
ATOM     35  C   UNL     1      -1.068 -10.113  15.502  0.00  0.00    +0.277 C 
ENDBRANCH  25   2
ENDBRANCH   8  23
ENDBRANCH  16   6
ENDBRANCH  10  16
BRANCH  11  17
ATOM     17  C   UNL     1      -9.190 -11.580  16.260  0.00  0.00    +0.123 C 
BRANCH  17   7
ATOM      1  O   UNL     1      -8.334  -8.842  16.154  0.00  0.00    -0.270 OA
ATOM      7  N   UNL     1      -9.984 -10.438  15.839  0.00  0.00    -0.310 N 
ATOM     22  C   UNL     1      -9.475  -9.154  15.825  0.00  0.00    +0.244 C 
ATOM     37  H   UNL     1     -10.963 -10.615  15.641  0.00  0.00    +0.149 HD
BRANCH  22  24
ATOM      3  O   UNL     1     -13.125  -7.400  13.011  0.00  0.00    -0.453 OA
ATOM      4  O   UNL     1     -13.094  -5.255  14.109  0.00  0.00    -0.453 OA
ATOM     24  C   UNL     1     -10.423  -8.094  15.394  0.00  0.00    +0.040 A 
ATOM     27  C   UNL     1     -11.323  -8.350  14.357  0.00  0.00    +0.062 A 
ATOM     28  C   UNL     1     -10.405  -6.844  16.035  0.00  0.00    +0.017 A 
ATOM     32  C   UNL     1     -12.185  -7.335  13.992  0.00  0.00    +0.167 A 
ATOM     33  C   UNL     1     -11.288  -5.833  15.647  0.00  0.00    +0.050 A 
ATOM     34  C   UNL     1     -12.168  -6.110  14.620  0.00  0.00    +0.166 A 
ATOM     36  C   UNL     1     -13.697  -6.078  13.091  0.00  0.00    +0.466 C 
ENDBRANCH  22  24
ENDBRANCH  17   7
ENDBRANCH  11  17
TORSDOF 7
ENDMDL
MODEL 4
REMARK VINA RESULT:      -7.1     23.858     26.001
REMARK  Name = 40777226
REMARK  8 active torsions:
REMARK  status: ('A' for Active; 'I' for Inactive)
REMARK    1  A    between atoms: O_2  and  C_25
REMARK    2  A    between atoms: O_2  and  C_35
REMARK    3  A    between atoms: N_6  and  C_16
REMARK    4  A    between atoms: N_7  and  C_17
REMARK    5  A    between atoms: N_8  and  C_23
REMARK    6  A    between atoms: C_10  and  C_16
REMARK    7  A    between atoms: C_11  and  C_17
REMARK    8  A    between atoms: C_22  and  C_24
REMARK                            x       y       z     vdW  Elec       q    Type
REMARK                         _______ _______ _______ _____ _____    ______ ____
ROOT
ATOM      5  N   UNL     1      11.119   7.269   7.278  0.00  0.00    -0.298 NA
ATOM      9  C   UNL     1       9.136   5.701   6.665  0.00  0.00    -0.003 C 
ATOM     10  C   UNL     1      10.172   5.754   5.519  0.00  0.00    +0.020 C 
ATOM     11  C   UNL     1       9.828   7.981   7.470  0.00  0.00    +0.074 C 
ATOM     12  C   UNL     1       8.643   7.126   6.971  0.00  0.00    +0.024 C 
ATOM     13  C   UNL     1      11.249   6.804   5.875  0.00  0.00    +0.089 C 
ATOM     14  C   UNL     1       9.880   5.195   7.916  0.00  0.00    +0.019 C 
ATOM     15  C   UNL     1      11.119   6.076   8.160  0.00  0.00    +0.085 C 
ENDROOT
BRANCH  10  16
ATOM     16  C   UNL     1       9.548   6.029   4.153  0.00  0.00    +0.089 C 
BRANCH  16   6
ATOM      6  N   UNL     1      10.527   5.841   3.084  0.00  0.00    -0.299 NA
ATOM      8  N   UNL     1      11.480   4.922   0.552  0.00  0.00    -0.325 N 
ATOM     18  C   UNL     1      10.059   6.468   1.841  0.00  0.00    +0.103 C 
ATOM     19  C   UNL     1      10.777   4.412   2.859  0.00  0.00    +0.103 C 
ATOM     20  C   UNL     1      11.100   6.328   0.728  0.00  0.00    +0.120 C 
ATOM     21  C   UNL     1      11.843   4.204   1.781  0.00  0.00    +0.120 C 
BRANCH   8  23
ATOM     23  C   UNL     1      12.063   4.506  -0.649  0.00  0.00    +0.072 A 
ATOM     25  C   UNL     1      11.269   4.155  -1.740  0.00  0.00    +0.141 A 
ATOM     26  C   UNL     1      13.453   4.444  -0.751  0.00  0.00    +0.027 A 
ATOM     29  C   UNL     1      11.863   3.742  -2.933  0.00  0.00    +0.047 A 
ATOM     30  C   UNL     1      14.048   4.031  -1.943  0.00  0.00    +0.002 A 
ATOM     31  C   UNL     1      13.253   3.679  -3.034  0.00  0.00    +0.004 A 
BRANCH  25   2
ATOM      2  O   UNL     1       9.909   4.208  -1.661  0.00  0.00    -0.493 OA
ATOM     35  C   UNL     1       9.247   5.145  -2.509  0.00  0.00    +0.277 C 
ENDBRANCH  25   2
ENDBRANCH   8  23
ENDBRANCH  16   6
ENDBRANCH  10  16
BRANCH  11  17
ATOM     17  C   UNL     1       9.831   9.375   6.836  0.00  0.00    +0.123 C 
BRANCH  17   7
ATOM      1  O   UNL     1      10.017   9.590   3.979  0.00  0.00    -0.270 OA
ATOM      7  N   UNL     1       8.726   9.518   5.901  0.00  0.00    -0.310 N 
ATOM     22  C   UNL     1       8.925   9.614   4.538  0.00  0.00    +0.244 C 
ATOM     37  H   UNL     1       7.804   9.636   6.305  0.00  0.00    +0.149 HD
BRANCH  22  24
ATOM      3  O   UNL     1       6.389   9.407   0.314  0.00  0.00    -0.453 OA
ATOM      4  O   UNL     1       4.367  10.201   1.357  0.00  0.00    -0.453 OA
ATOM     24  C   UNL     1       7.695   9.783   3.722  0.00  0.00    +0.040 A 
ATOM     27  C   UNL     1       7.721   9.479   2.359  0.00  0.00    +0.062 A 
ATOM     28  C   UNL     1       6.515  10.246   4.331  0.00  0.00    +0.017 A 
ATOM     32  C   UNL     1       6.553   9.649   1.643  0.00  0.00    +0.167 A 
ATOM     33  C   UNL     1       5.347  10.410   3.583  0.00  0.00    +0.050 A 
ATOM     34  C   UNL     1       5.397  10.103   2.238  0.00  0.00    +0.166 A 
ATOM     36  C   UNL     1       5.001   9.758   0.141  0.00  0.00    +0.466 C 
ENDBRANCH  22  24
ENDBRANCH  17   7
ENDBRANCH  11  17
TORSDOF 7
ENDMDL
MODEL 5
REMARK VINA RESULT:      -7.0      3.672      8.177
REMARK  Name = 40777226
REMARK  8 active torsions:
REMARK  status: ('A' for Active; 'I' for Inactive)
REMARK    1  A    between atoms: O_2  and  C_25
REMARK    2  A    between atoms: O_2  and  C_35
REMARK    3  A    between atoms: N_6  and  C_16
REMARK    4  A    between atoms: N_7  and  C_17
REMARK    5  A    between atoms: N_8  and  C_23
REMARK    6  A    between atoms: C_10  and  C_16
REMARK    7  A    between atoms: C_11  and  C_17
REMARK    8  A    between atoms: C_22  and  C_24
REMARK                            x       y       z     vdW  Elec       q    Type
REMARK                         _______ _______ _______ _____ _____    ______ ____
ROOT
ATOM      5  N   UNL     1      -6.422 -12.806  18.161  0.00  0.00    -0.298 NA
ATOM      9  C   UNL     1      -5.798 -10.281  18.111  0.00  0.00    -0.003 C 
ATOM     10  C   UNL     1      -7.146 -10.530  17.398  0.00  0.00    +0.020 C 
ATOM     11  C   UNL     1      -5.045 -12.633  17.628  0.00  0.00    +0.074 C 
ATOM     12  C   UNL     1      -4.705 -11.137  17.446  0.00  0.00    +0.024 C 
ATOM     13  C   UNL     1      -7.395 -12.054  17.332  0.00  0.00    +0.089 C 
ATOM     14  C   UNL     1      -5.957 -10.787  19.558  0.00  0.00    +0.019 C 
ATOM     15  C   UNL     1      -6.455 -12.244  19.534  0.00  0.00    +0.085 C 
ENDROOT
BRANCH  10  16
ATOM     16  C   UNL     1      -7.226  -9.887  16.016  0.00  0.00    +0.089 C 
BRANCH  16   6
ATOM      6  N   UNL     1      -8.437  -9.079  15.884  0.00  0.00    -0.299 NA
ATOM      8  N   UNL     1     -11.210  -8.467  16.199  0.00  0.00    -0.325 N 
ATOM     18  C   UNL     1      -8.980  -8.745  17.208  0.00  0.00    +0.103 C 
ATOM     19  C   UNL     1      -9.450  -9.793  15.096  0.00  0.00    +0.103 C 
ATOM     20  C   UNL     1     -10.216  -7.852  17.086  0.00  0.00    +0.120 C 
ATOM     21  C   UNL     1     -10.701  -8.934  14.904  0.00  0.00    +0.120 C 
BRANCH   8  23
ATOM     23  C   UNL     1     -12.548  -8.068  16.276  0.00  0.00    +0.072 A 
ATOM     25  C   UNL     1     -12.946  -6.820  15.797  0.00  0.00    +0.141 A 
ATOM     26  C   UNL     1     -13.490  -8.932  16.836  0.00  0.00    +0.027 A 
ATOM     29  C   UNL     1     -14.284  -6.435  15.879  0.00  0.00    +0.047 A 
ATOM     30  C   UNL     1     -14.828  -8.547  16.917  0.00  0.00    +0.002 A 
ATOM     31  C   UNL     1     -15.225  -7.298  16.440  0.00  0.00    +0.004 A 
BRANCH  25   2
ATOM      2  O   UNL     1     -12.041  -5.961  15.247  0.00  0.00    -0.493 OA
ATOM     35  C   UNL     1     -12.372  -5.398  13.978  0.00  0.00    +0.277 C 
ENDBRANCH  25   2
ENDBRANCH   8  23
ENDBRANCH  16   6
ENDBRANCH  10  16
BRANCH  11  17
ATOM     17  C   UNL     1      -4.814 -13.429  16.340  0.00  0.00    +0.123 C 
BRANCH  17   7
ATOM      1  O   UNL     1      -2.715 -13.469  14.381  0.00  0.00    -0.270 OA
ATOM      7  N   UNL     1      -4.672 -12.537  15.201  0.00  0.00    -0.310 N 
ATOM     22  C   UNL     1      -3.619 -12.641  14.314  0.00  0.00    +0.244 C 
ATOM     37  H   UNL     1      -5.335 -11.772  15.139  0.00  0.00    +0.149 HD
BRANCH  22  24
ATOM      3  O   UNL     1      -5.631  -9.018  11.642  0.00  0.00    -0.453 OA
ATOM      4  O   UNL     1      -3.687  -8.823  10.232  0.00  0.00    -0.453 OA
ATOM     24  C   UNL     1      -3.603 -11.637  13.219  0.00  0.00    +0.040 A 
ATOM     27  C   UNL     1      -4.714 -10.815  13.016  0.00  0.00    +0.062 A 
ATOM     28  C   UNL     1      -2.468 -11.523  12.397  0.00  0.00    +0.017 A 
ATOM     32  C   UNL     1      -4.652  -9.897  11.987  0.00  0.00    +0.167 A 
ATOM     33  C   UNL     1      -2.431 -10.586  11.362  0.00  0.00    +0.050 A 
ATOM     34  C   UNL     1      -3.541  -9.785  11.182  0.00  0.00    +0.166 A 
ATOM     36  C   UNL     1      -5.012  -8.341  10.529  0.00  0.00    +0.466 C 
ENDBRANCH  22  24
ENDBRANCH  17   7
ENDBRANCH  11  17
TORSDOF 7
ENDMDL
MODEL 6
REMARK VINA RESULT:      -6.9      4.986     11.428
REMARK  Name = 40777226
REMARK  8 active torsions:
REMARK  status: ('A' for Active; 'I' for Inactive)
REMARK    1  A    between atoms: O_2  and  C_25
REMARK    2  A    between atoms: O_2  and  C_35
REMARK    3  A    between atoms: N_6  and  C_16
REMARK    4  A    between atoms: N_7  and  C_17
REMARK    5  A    between atoms: N_8  and  C_23
REMARK    6  A    between atoms: C_10  and  C_16
REMARK    7  A    between atoms: C_11  and  C_17
REMARK    8  A    between atoms: C_22  and  C_24
REMARK                            x       y       z     vdW  Elec       q    Type
REMARK                         _______ _______ _______ _____ _____    ______ ____
ROOT
ATOM      5  N   UNL     1     -14.927  -6.748  15.898  0.00  0.00    -0.298 NA
ATOM      9  C   UNL     1     -13.752  -8.777  14.770  0.00  0.00    -0.003 C 
ATOM     10  C   UNL     1     -12.719  -7.850  15.452  0.00  0.00    +0.020 C 
ATOM     11  C   UNL     1     -15.359  -6.862  14.479  0.00  0.00    +0.074 C 
ATOM     12  C   UNL     1     -14.564  -7.965  13.745  0.00  0.00    +0.024 C 
ATOM     13  C   UNL     1     -13.453  -6.596  15.977  0.00  0.00    +0.089 C 
ATOM     14  C   UNL     1     -14.731  -9.238  15.866  0.00  0.00    +0.019 C 
ATOM     15  C   UNL     1     -15.299  -8.005  16.592  0.00  0.00    +0.085 C 
ENDROOT
BRANCH  10  16
ATOM     16  C   UNL     1     -11.549  -7.479  14.544  0.00  0.00    +0.089 C 
BRANCH  16   6
ATOM      6  N   UNL     1     -10.276  -7.862  15.150  0.00  0.00    -0.299 NA
ATOM      8  N   UNL     1      -8.540  -9.400  16.819  0.00  0.00    -0.325 N 
ATOM     18  C   UNL     1      -9.929  -9.243  14.790  0.00  0.00    +0.103 C 
ATOM     19  C   UNL     1     -10.339  -7.728  16.611  0.00  0.00    +0.103 C 
ATOM     20  C   UNL     1      -8.569  -9.638  15.372  0.00  0.00    +0.120 C 
ATOM     21  C   UNL     1      -8.993  -8.073  17.252  0.00  0.00    +0.120 C 
BRANCH   8  23
ATOM     23  C   UNL     1      -7.600 -10.066  17.612  0.00  0.00    +0.072 A 
ATOM     25  C   UNL     1      -7.994 -10.727  18.775  0.00  0.00    +0.141 A 
ATOM     26  C   UNL     1      -6.258 -10.065  17.231  0.00  0.00    +0.027 A 
ATOM     29  C   UNL     1      -7.046 -11.388  19.557  0.00  0.00    +0.047 A 
ATOM     30  C   UNL     1      -5.310 -10.726  18.014  0.00  0.00    +0.002 A 
ATOM     31  C   UNL     1      -5.704 -11.386  19.177  0.00  0.00    +0.004 A 
BRANCH  25   2
ATOM      2  O   UNL     1      -9.300 -10.740  19.165  0.00  0.00    -0.493 OA
ATOM     35  C   UNL     1      -9.758 -11.899  19.859  0.00  0.00    +0.277 C 
ENDBRANCH  25   2
ENDBRANCH   8  23
ENDBRANCH  16   6
ENDBRANCH  10  16
BRANCH  11  17
ATOM     17  C   UNL     1     -15.291  -5.524  13.739  0.00  0.00    +0.123 C 
BRANCH  17   7
ATOM      1  O   UNL     1     -13.501  -3.411  12.981  0.00  0.00    -0.270 OA
ATOM      7  N   UNL     1     -14.292  -5.569  12.683  0.00  0.00    -0.310 N 
ATOM     22  C   UNL     1     -13.477  -4.491  12.397  0.00  0.00    +0.244 C 
ATOM     37  H   UNL     1     -14.284  -6.400  12.103  0.00  0.00    +0.149 HD
BRANCH  22  24
ATOM      3  O   UNL     1     -10.897  -7.287   9.259  0.00  0.00    -0.453 OA
ATOM      4  O   UNL     1      -9.922  -5.369   8.174  0.00  0.00    -0.453 OA
ATOM     24  C   UNL     1     -12.528  -4.688  11.272  0.00  0.00    +0.040 A 
ATOM     27  C   UNL     1     -12.209  -5.982  10.852  0.00  0.00    +0.062 A 
ATOM     28  C   UNL     1     -11.959  -3.569  10.639  0.00  0.00    +0.017 A 
ATOM     32  C   UNL     1     -11.324  -6.114   9.802  0.00  0.00    +0.167 A 
ATOM     33  C   UNL     1     -11.065  -3.730   9.578  0.00  0.00    +0.050 A 
ATOM     34  C   UNL     1     -10.766  -5.018   9.181  0.00  0.00    +0.166 A 
ATOM     36  C   UNL     1     -10.010  -6.807   8.229  0.00  0.00    +0.466 C 
ENDBRANCH  22  24
ENDBRANCH  17   7
ENDBRANCH  11  17
TORSDOF 7
ENDMDL
MODEL 7
REMARK VINA RESULT:      -6.9      4.836      8.274
REMARK  Name = 40777226
REMARK  8 active torsions:
REMARK  status: ('A' for Active; 'I' for Inactive)
REMARK    1  A    between atoms: O_2  and  C_25
REMARK    2  A    between atoms: O_2  and  C_35
REMARK    3  A    between atoms: N_6  and  C_16
REMARK    4  A    between atoms: N_7  and  C_17
REMARK    5  A    between atoms: N_8  and  C_23
REMARK    6  A    between atoms: C_10  and  C_16
REMARK    7  A    between atoms: C_11  and  C_17
REMARK    8  A    between atoms: C_22  and  C_24
REMARK                            x       y       z     vdW  Elec       q    Type
REMARK                         _______ _______ _______ _____ _____    ______ ____
ROOT
ATOM      5  N   UNL     1     -10.415 -10.590  16.213  0.00  0.00    -0.298 NA
ATOM      9  C   UNL     1     -12.295 -10.229  17.974  0.00  0.00    -0.003 C 
ATOM     10  C   UNL     1     -12.708  -9.651  16.601  0.00  0.00    +0.020 C 
ATOM     11  C   UNL     1      -9.857  -9.937  17.427  0.00  0.00    +0.074 C 
ATOM     12  C   UNL     1     -10.978  -9.575  18.427  0.00  0.00    +0.024 C 
ATOM     13  C   UNL     1     -11.505  -9.763  15.637  0.00  0.00    +0.089 C 
ATOM     14  C   UNL     1     -12.012 -11.729  17.761  0.00  0.00    +0.019 C 
ATOM     15  C   UNL     1     -10.992 -11.895  16.619  0.00  0.00    +0.085 C 
ENDROOT
BRANCH  10  16
ATOM     16  C   UNL     1     -13.232  -8.220  16.682  0.00  0.00    +0.089 C 
BRANCH  16   6
ATOM      6  N   UNL     1     -13.118  -7.548  15.389  0.00  0.00    -0.299 NA
ATOM      8  N   UNL     1     -13.703  -5.559  13.422  0.00  0.00    -0.325 N 
ATOM     18  C   UNL     1     -12.650  -6.167  15.565  0.00  0.00    +0.103 C 
ATOM     19  C   UNL     1     -14.410  -7.551  14.690  0.00  0.00    +0.103 C 
ATOM     20  C   UNL     1     -12.471  -5.470  14.214  0.00  0.00    +0.120 C 
ATOM     21  C   UNL     1     -14.289  -6.900  13.311  0.00  0.00    +0.120 C 
BRANCH   8  23
ATOM     23  C   UNL     1     -13.922  -4.656  12.377  0.00  0.00    +0.072 A 
ATOM     25  C   UNL     1     -13.111  -4.672  11.243  0.00  0.00    +0.141 A 
ATOM     26  C   UNL     1     -14.964  -3.733  12.476  0.00  0.00    +0.027 A 
ATOM     29  C   UNL     1     -13.341  -3.766  10.207  0.00  0.00    +0.047 A 
ATOM     30  C   UNL     1     -15.194  -2.827  11.440  0.00  0.00    +0.002 A 
ATOM     31  C   UNL     1     -14.382  -2.843  10.306  0.00  0.00    +0.004 A 
BRANCH  25   2
ATOM      2  O   UNL     1     -12.087  -5.565  11.127  0.00  0.00    -0.493 OA
ATOM     35  C   UNL     1     -11.606  -5.832   9.811  0.00  0.00    +0.277 C 
ENDBRANCH  25   2
ENDBRANCH   8  23
ENDBRANCH  16   6
ENDBRANCH  10  16
BRANCH  11  17
ATOM     17  C   UNL     1      -8.984  -8.726  17.089  0.00  0.00    +0.123 C 
BRANCH  17   7
ATOM      1  O   UNL     1      -6.706  -9.977  18.309  0.00  0.00    -0.270 OA
ATOM      7  N   UNL     1      -7.761  -9.142  16.422  0.00  0.00    -0.310 N 
ATOM     22  C   UNL     1      -6.718  -9.738  17.104  0.00  0.00    +0.244 C 
ATOM     37  H   UNL     1      -7.670  -8.891  15.444  0.00  0.00    +0.149 HD
BRANCH  22  24
ATOM      3  O   UNL     1      -1.956 -10.881  16.530  0.00  0.00    -0.453 OA
ATOM      4  O   UNL     1      -2.165 -11.036  14.135  0.00  0.00    -0.453 OA
ATOM     24  C   UNL     1      -5.528 -10.079  16.284  0.00  0.00    +0.040 A 
ATOM     27  C   UNL     1      -4.300 -10.310  16.908  0.00  0.00    +0.062 A 
ATOM     28  C   UNL     1      -5.650 -10.170  14.887  0.00  0.00    +0.017 A 
ATOM     32  C   UNL     1      -3.223 -10.626  16.104  0.00  0.00    +0.167 A 
ATOM     33  C   UNL     1      -4.545 -10.492  14.096  0.00  0.00    +0.050 A 
ATOM     34  C   UNL     1      -3.342 -10.715  14.735  0.00  0.00    +0.166 A 
ATOM     36  C   UNL     1      -1.292 -11.140  15.277  0.00  0.00    +0.466 C 
ENDBRANCH  22  24
ENDBRANCH  17   7
ENDBRANCH  11  17
TORSDOF 7
ENDMDL
MODEL 8
REMARK VINA RESULT:      -6.8      2.917      6.386
REMARK  Name = 40777226
REMARK  8 active torsions:
REMARK  status: ('A' for Active; 'I' for Inactive)
REMARK    1  A    between atoms: O_2  and  C_25
REMARK    2  A    between atoms: O_2  and  C_35
REMARK    3  A    between atoms: N_6  and  C_16
REMARK    4  A    between atoms: N_7  and  C_17
REMARK    5  A    between atoms: N_8  and  C_23
REMARK    6  A    between atoms: C_10  and  C_16
REMARK    7  A    between atoms: C_11  and  C_17
REMARK    8  A    between atoms: C_22  and  C_24
REMARK                            x       y       z     vdW  Elec       q    Type
REMARK                         _______ _______ _______ _____ _____    ______ ____
ROOT
ATOM      5  N   UNL     1     -12.045  -9.108  16.578  0.00  0.00    -0.298 NA
ATOM      9  C   UNL     1     -10.259  -7.623  15.407  0.00  0.00    -0.003 C 
ATOM     10  C   UNL     1     -10.309  -9.030  14.770  0.00  0.00    +0.020 C 
ATOM     11  C   UNL     1     -11.129  -8.520  17.591  0.00  0.00    +0.074 C 
ATOM     12  C   UNL     1      -9.970  -7.755  16.913  0.00  0.00    +0.024 C 
ATOM     13  C   UNL     1     -11.278  -9.910  15.593  0.00  0.00    +0.089 C 
ATOM     14  C   UNL     1     -11.669  -7.017  15.264  0.00  0.00    +0.019 C 
ATOM     15  C   UNL     1     -12.703  -7.993  15.853  0.00  0.00    +0.085 C 
ENDROOT
BRANCH  10  16
ATOM     16  C   UNL     1      -8.934  -9.681  14.636  0.00  0.00    +0.089 C 
BRANCH  16   6
ATOM      6  N   UNL     1      -8.372  -9.444  13.308  0.00  0.00    -0.299 NA
ATOM      8  N   UNL     1      -6.921 -10.100  10.935  0.00  0.00    -0.325 N 
ATOM     18  C   UNL     1      -8.925 -10.397  12.337  0.00  0.00    +0.103 C 
ATOM     19  C   UNL     1      -6.908  -9.559  13.340  0.00  0.00    +0.103 C 
ATOM     20  C   UNL     1      -8.388 -10.124  10.930  0.00  0.00    +0.120 C 
ATOM     21  C   UNL     1      -6.304  -9.257  11.967  0.00  0.00    +0.120 C 
BRANCH   8  23
ATOM     23  C   UNL     1      -6.220 -10.298   9.741  0.00  0.00    +0.072 A 
ATOM     25  C   UNL     1      -5.375 -11.397   9.588  0.00  0.00    +0.141 A 
ATOM     26  C   UNL     1      -6.372  -9.385   8.697  0.00  0.00    +0.027 A 
ATOM     29  C   UNL     1      -4.682 -11.583   8.392  0.00  0.00    +0.047 A 
ATOM     30  C   UNL     1      -5.679  -9.571   7.501  0.00  0.00    +0.002 A 
ATOM     31  C   UNL     1      -4.833 -10.670   7.349  0.00  0.00    +0.004 A 
BRANCH  25   2
ATOM      2  O   UNL     1      -5.212 -12.300  10.596  0.00  0.00    -0.493 OA
ATOM     35  C   UNL     1      -3.888 -12.482  11.095  0.00  0.00    +0.277 C 
ENDBRANCH  25   2
ENDBRANCH   8  23
ENDBRANCH  16   6
ENDBRANCH  10  16
BRANCH  11  17
ATOM     17  C   UNL     1     -10.616  -9.561  18.589  0.00  0.00    +0.123 C 
BRANCH  17   7
ATOM      1  O   UNL     1      -8.964 -11.369  20.088  0.00  0.00    -0.270 OA
ATOM      7  N   UNL     1      -9.217  -9.868  18.341  0.00  0.00    -0.310 N 
ATOM     22  C   UNL     1      -8.509 -10.757  19.126  0.00  0.00    +0.244 C 
ATOM     37  H   UNL     1      -8.756  -9.329  17.616  0.00  0.00    +0.149 HD
BRANCH  22  24
ATOM      3  O   UNL     1      -4.659 -10.286  16.080  0.00  0.00    -0.453 OA
ATOM      4  O   UNL     1      -3.163 -11.384  17.618  0.00  0.00    -0.453 OA
ATOM     24  C   UNL     1      -7.082 -10.941  18.757  0.00  0.00    +0.040 A 
ATOM     27  C   UNL     1      -6.619 -10.476  17.523  0.00  0.00    +0.062 A 
ATOM     28  C   UNL     1      -6.210 -11.581  19.654  0.00  0.00    +0.017 A 
ATOM     32  C   UNL     1      -5.285 -10.669  17.226  0.00  0.00    +0.167 A 
ATOM     33  C   UNL     1      -4.863 -11.764  19.329  0.00  0.00    +0.050 A 
ATOM     34  C   UNL     1      -4.430 -11.296  18.105  0.00  0.00    +0.166 A 
ATOM     36  C   UNL     1      -3.315 -10.742  16.336  0.00  0.00    +0.466 C 
ENDBRANCH  22  24
ENDBRANCH  17   7
ENDBRANCH  11  17
TORSDOF 7
ENDMDL
MODEL 9
REMARK VINA RESULT:      -6.8      1.414      2.401
REMARK  Name = 40777226
REMARK  8 active torsions:
REMARK  status: ('A' for Active; 'I' for Inactive)
REMARK    1  A    between atoms: O_2  and  C_25
REMARK    2  A    between atoms: O_2  and  C_35
REMARK    3  A    between atoms: N_6  and  C_16
REMARK    4  A    between atoms: N_7  and  C_17
REMARK    5  A    between atoms: N_8  and  C_23
REMARK    6  A    between atoms: C_10  and  C_16
REMARK    7  A    between atoms: C_11  and  C_17
REMARK    8  A    between atoms: C_22  and  C_24
REMARK                            x       y       z     vdW  Elec       q    Type
REMARK                         _______ _______ _______ _____ _____    ______ ____
ROOT
ATOM      5  N   UNL     1      -2.672 -11.687  14.051  0.00  0.00    -0.298 NA
ATOM      9  C   UNL     1      -4.877 -12.216  12.776  0.00  0.00    -0.003 C 
ATOM     10  C   UNL     1      -4.532 -10.712  12.680  0.00  0.00    +0.020 C 
ATOM     11  C   UNL     1      -3.609 -12.426  14.939  0.00  0.00    +0.074 C 
ATOM     12  C   UNL     1      -4.982 -12.620  14.258  0.00  0.00    +0.024 C 
ATOM     13  C   UNL     1      -3.299 -10.432  13.569  0.00  0.00    +0.089 C 
ATOM     14  C   UNL     1      -3.687 -12.988  12.175  0.00  0.00    +0.019 C 
ATOM     15  C   UNL     1      -2.389 -12.543  12.873  0.00  0.00    +0.085 C 
ENDROOT
BRANCH  10  16
ATOM     16  C   UNL     1      -5.702  -9.800  13.036  0.00  0.00    +0.089 C 
BRANCH  16   6
ATOM      6  N   UNL     1      -6.208  -9.112  11.850  0.00  0.00    -0.299 NA
ATOM      8  N   UNL     1      -6.855  -8.819   9.082  0.00  0.00    -0.325 N 
ATOM     18  C   UNL     1      -7.335  -9.851  11.267  0.00  0.00    +0.103 C 
ATOM     19  C   UNL     1      -5.143  -8.956  10.851  0.00  0.00    +0.103 C 
ATOM     20  C   UNL     1      -7.911  -9.113  10.057  0.00  0.00    +0.120 C 
ATOM     21  C   UNL     1      -5.647  -8.188   9.627  0.00  0.00    +0.120 C 
BRANCH   8  23
ATOM     23  C   UNL     1      -7.193  -8.553   7.752  0.00  0.00    +0.072 A 
ATOM     25  C   UNL     1      -6.575  -9.244   6.710  0.00  0.00    +0.141 A 
ATOM     26  C   UNL     1      -8.159  -7.586   7.470  0.00  0.00    +0.027 A 
ATOM     29  C   UNL     1      -6.922  -8.969   5.387  0.00  0.00    +0.047 A 
ATOM     30  C   UNL     1      -8.506  -7.311   6.148  0.00  0.00    +0.002 A 
ATOM     31  C   UNL     1      -7.887  -8.002   5.106  0.00  0.00    +0.004 A 
BRANCH  25   2
ATOM      2  O   UNL     1      -5.629 -10.192   6.963  0.00  0.00    -0.493 OA
ATOM     35  C   UNL     1      -5.363 -11.134   5.926  0.00  0.00    +0.277 C 
ENDBRANCH  25   2
ENDBRANCH   8  23
ENDBRANCH  16   6
ENDBRANCH  10  16
BRANCH  11  17
ATOM     17  C   UNL     1      -3.746 -11.771  16.316  0.00  0.00    +0.123 C 
BRANCH  17   7
ATOM      1  O   UNL     1      -4.867 -10.827  18.785  0.00  0.00    -0.270 OA
ATOM      7  N   UNL     1      -5.103 -11.294  16.528  0.00  0.00    -0.310 N 
ATOM     22  C   UNL     1      -5.545 -10.860  17.762  0.00  0.00    +0.244 C 
ATOM     37  H   UNL     1      -5.741 -11.381  15.745  0.00  0.00    +0.149 HD
BRANCH  22  24
ATOM      3  O   UNL     1      -9.318  -7.968  16.451  0.00  0.00    -0.453 OA
ATOM      4  O   UNL     1     -10.863  -9.143  17.879  0.00  0.00    -0.453 OA
ATOM     24  C   UNL     1      -6.966 -10.430  17.819  0.00  0.00    +0.040 A 
ATOM     27  C   UNL     1      -7.394  -9.349  17.043  0.00  0.00    +0.062 A 
ATOM     28  C   UNL     1      -7.867 -11.116  18.651  0.00  0.00    +0.017 A 
ATOM     32  C   UNL     1      -8.723  -8.988  17.128  0.00  0.00    +0.167 A 
ATOM     33  C   UNL     1      -9.208 -10.730  18.719  0.00  0.00    +0.050 A 
ATOM     34  C   UNL     1      -9.606  -9.659  17.943  0.00  0.00    +0.166 A 
ATOM     36  C   UNL     1     -10.673  -8.073  16.933  0.00  0.00    +0.466 C 
ENDBRANCH  22  24
ENDBRANCH  17   7
ENDBRANCH  11  17
TORSDOF 7
ENDMDL
MODEL 10
REMARK VINA RESULT:      -6.8      2.511      5.962
REMARK  Name = 40777226
REMARK  8 active torsions:
REMARK  status: ('A' for Active; 'I' for Inactive)
REMARK    1  A    between atoms: O_2  and  C_25
REMARK    2  A    between atoms: O_2  and  C_35
REMARK    3  A    between atoms: N_6  and  C_16
REMARK    4  A    between atoms: N_7  and  C_17
REMARK    5  A    between atoms: N_8  and  C_23
REMARK    6  A    between atoms: C_10  and  C_16
REMARK    7  A    between atoms: C_11  and  C_17
REMARK    8  A    between atoms: C_22  and  C_24
REMARK                            x       y       z     vdW  Elec       q    Type
REMARK                         _______ _______ _______ _____ _____    ______ ____
ROOT
ATOM      5  N   UNL     1      -8.598 -11.199  18.277  0.00  0.00    -0.298 NA
ATOM      9  C   UNL     1      -8.679  -9.444  16.359  0.00  0.00    -0.003 C 
ATOM     10  C   UNL     1      -8.676 -10.882  15.791  0.00  0.00    +0.020 C 
ATOM     11  C   UNL     1      -7.503 -10.208  18.448  0.00  0.00    +0.074 C 
ATOM     12  C   UNL     1      -7.435  -9.243  17.242  0.00  0.00    +0.024 C 
ATOM     13  C   UNL     1      -8.483 -11.873  16.960  0.00  0.00    +0.089 C 
ATOM     14  C   UNL     1      -9.913  -9.327  17.273  0.00  0.00    +0.019 C 
ATOM     15  C   UNL     1      -9.888 -10.466  18.308  0.00  0.00    +0.085 C 
ENDROOT
BRANCH  10  16
ATOM     16  C   UNL     1      -7.636 -11.095  14.694  0.00  0.00    +0.089 C 
BRANCH  16   6
ATOM      6  N   UNL     1      -7.901 -10.229  13.547  0.00  0.00    -0.299 NA
ATOM      8  N   UNL     1      -7.886  -9.472  10.792  0.00  0.00    -0.325 N 
ATOM     18  C   UNL     1      -8.784 -10.902  12.585  0.00  0.00    +0.103 C 
ATOM     19  C   UNL     1      -6.645  -9.847  12.888  0.00  0.00    +0.103 C 
ATOM     20  C   UNL     1      -9.115  -9.985  11.406  0.00  0.00    +0.120 C 
ATOM     21  C   UNL     1      -6.906  -8.894  11.720  0.00  0.00    +0.120 C 
BRANCH   8  23
ATOM     23  C   UNL     1      -7.917  -8.986   9.481  0.00  0.00    +0.072 A 
ATOM     25  C   UNL     1      -7.130  -9.570   8.488  0.00  0.00    +0.141 A 
ATOM     26  C   UNL     1      -8.744  -7.907   9.169  0.00  0.00    +0.027 A 
ATOM     29  C   UNL     1      -7.170  -9.076   7.185  0.00  0.00    +0.047 A 
ATOM     30  C   UNL     1      -8.784  -7.413   7.865  0.00  0.00    +0.002 A 
ATOM     31  C   UNL     1      -7.997  -7.997   6.873  0.00  0.00    +0.004 A 
BRANCH  25   2
ATOM      2  O   UNL     1      -6.314 -10.625   8.772  0.00  0.00    -0.493 OA
ATOM     35  C   UNL     1      -4.918 -10.352   8.883  0.00  0.00    +0.277 C 
ENDBRANCH  25   2
ENDBRANCH   8  23
ENDBRANCH  16   6
ENDBRANCH  10  16
BRANCH  11  17
ATOM     17  C   UNL     1      -6.151 -10.873  18.721  0.00  0.00    +0.123 C 
BRANCH  17   7
ATOM      1  O   UNL     1      -4.796 -12.811  17.094  0.00  0.00    -0.270 OA
ATOM      7  N   UNL     1      -5.215 -10.599  17.643  0.00  0.00    -0.310 N 
ATOM     22  C   UNL     1      -4.614 -11.609  16.918  0.00  0.00    +0.244 C 
ATOM     37  H   UNL     1      -4.952  -9.629  17.506  0.00  0.00    +0.149 HD
BRANCH  22  24
ATOM      3  O   UNL     1      -3.282 -10.839  12.233  0.00  0.00    -0.453 OA
ATOM      4  O   UNL     1      -1.127  -9.968  12.870  0.00  0.00    -0.453 OA
ATOM     24  C   UNL     1      -3.662 -11.165  15.868  0.00  0.00    +0.040 A 
ATOM     27  C   UNL     1      -4.024 -11.254  14.522  0.00  0.00    +0.062 A 
ATOM     28  C   UNL     1      -2.405 -10.656  16.240  0.00  0.00    +0.017 A 
ATOM     32  C   UNL     1      -3.107 -10.827  13.582  0.00  0.00    +0.167 A 
ATOM     33  C   UNL     1      -1.495 -10.230  15.269  0.00  0.00    +0.050 A 
ATOM     34  C   UNL     1      -1.876 -10.329  13.946  0.00  0.00    +0.166 A 
ATOM     36  C   UNL     1      -2.023 -10.293  11.789  0.00  0.00    +0.466 C 
ENDBRANCH  22  24
ENDBRANCH  17   7
ENDBRANCH  11  17
TORSDOF 7
ENDMDL
