MODEL 1
REMARK VINA RESULT:      -7.1      0.000      0.000
REMARK  Name = 26742496
REMARK  11 active torsions:
REMARK  status: ('A' for Active; 'I' for Inactive)
REMARK    1  A    between atoms: N_3  and  C_15
REMARK    2  A    between atoms: N_6  and  C_23
REMARK    3  A    between atoms: N_7  and  C_30
REMARK    4  A    between atoms: N_7  and  C_31
REMARK    5  A    between atoms: N_7  and  C_32
REMARK    6  A    between atoms: C_9  and  C_16
REMARK    7  A    between atoms: C_10  and  C_15
REMARK    8  A    between atoms: C_18  and  C_21
REMARK    9  A    between atoms: C_19  and  C_22
REMARK   10  A    between atoms: C_23  and  C_26
REMARK   11  A    between atoms: C_23  and  C_27
REMARK                            x       y       z     vdW  Elec       q    Type
REMARK                         _______ _______ _______ _____ _____    ______ ____
ROOT
ATOM      2  N   UNL     1      -7.404 -11.748  17.808  0.00  0.00    -0.297 NA
ATOM      8  C   UNL     1      -5.033 -10.916  18.492  0.00  0.00    +0.002 C 
ATOM      9  C   UNL     1      -5.403 -10.397  17.074  0.00  0.00    +0.055 C 
ATOM     10  C   UNL     1      -6.586 -12.890  18.296  0.00  0.00    +0.074 C 
ATOM     11  C   UNL     1      -5.120 -12.457  18.510  0.00  0.00    +0.024 C 
ATOM     12  C   UNL     1      -6.118 -10.389  19.456  0.00  0.00    +0.019 C 
ATOM     13  C   UNL     1      -6.730 -11.095  16.658  0.00  0.00    +0.094 C 
ATOM     14  C   UNL     1      -7.507 -10.758  18.907  0.00  0.00    +0.085 C 
ENDROOT
BRANCH   9  16
ATOM      4  N   UNL     1      -3.058 -10.449  16.385  0.00  0.00    -0.237 NA
ATOM      5  N   UNL     1      -2.403 -10.597  14.070  0.00  0.00    -0.232 NA
ATOM     16  C   UNL     1      -4.346 -10.471  15.983  0.00  0.00    +0.050 A 
ATOM     17  C   UNL     1      -4.735 -10.552  14.661  0.00  0.00    +0.052 A 
ATOM     18  C   UNL     1      -3.711 -10.613  13.740  0.00  0.00    +0.075 A 
ATOM     19  C   UNL     1      -2.152 -10.515  15.390  0.00  0.00    +0.127 A 
ATOM     22  C   UNL     1      -0.717 -10.492  15.795  0.00  0.00    +0.088 C 
BRANCH  18  21
ATOM     21  C   UNL     1      -3.985 -10.700  12.325  0.00  0.00    +0.001 A 
ATOM     24  C   UNL     1      -3.405 -11.714  11.563  0.00  0.00    +0.012 A 
ATOM     25  C   UNL     1      -4.832  -9.770  11.720  0.00  0.00    +0.012 A 
ATOM     28  C   UNL     1      -3.670 -11.798  10.196  0.00  0.00    +0.024 A 
ATOM     29  C   UNL     1      -5.098  -9.854  10.354  0.00  0.00    +0.024 A 
ATOM     30  C   UNL     1      -4.517 -10.869   9.592  0.00  0.00    +0.029 A 
BRANCH  30   7
ATOM      7  N   UNL     1      -4.786 -10.953   8.210  0.00  0.00    -0.336 N 
ATOM     31  C   UNL     1      -4.376 -12.119   7.453  0.00  0.00    +0.129 C 
ATOM     32  C   UNL     1      -5.481  -9.879   7.530  0.00  0.00    +0.129 C 
ENDBRANCH  30   7
ENDBRANCH  18  21
ENDBRANCH   9  16
BRANCH  10  15
ATOM     15  C   UNL     1      -6.692 -14.114  17.385  0.00  0.00    +0.124 C 
BRANCH  15   3
ATOM      1  O   UNL     1      -5.497 -14.343  14.768  0.00  0.00    -0.253 OA
ATOM      3  N   UNL     1      -5.396 -14.631  17.072  0.00  0.00    -0.298 N 
ATOM      6  N   UNL     1      -3.603 -15.253  15.752  0.00  0.00    -0.297 N 
ATOM     20  C   UNL     1      -4.885 -14.710  15.770  0.00  0.00    +0.300 C 
ATOM     33  H   UNL     1      -4.815 -14.967  17.834  0.00  0.00    +0.150 HD
ATOM     34  H   UNL     1      -3.152 -15.456  16.639  0.00  0.00    +0.150 HD
BRANCH   6  23
ATOM     23  C   UNL     1      -2.851 -15.444  14.533  0.00  0.00    +0.068 C 
ATOM     26  C   UNL     1      -1.839 -16.569  14.706  0.00  0.00    +0.027 C 
ATOM     27  C   UNL     1      -2.169 -14.146  14.117  0.00  0.00    +0.027 C 
ENDBRANCH   6  23
ENDBRANCH  15   3
ENDBRANCH  10  15
TORSDOF 6
ENDMDL
MODEL 2
REMARK VINA RESULT:      -6.9      2.473      7.634
REMARK  Name = 26742496
REMARK  11 active torsions:
REMARK  status: ('A' for Active; 'I' for Inactive)
REMARK    1  A    between atoms: N_3  and  C_15
REMARK    2  A    between atoms: N_6  and  C_23
REMARK    3  A    between atoms: N_7  and  C_30
REMARK    4  A    between atoms: N_7  and  C_31
REMARK    5  A    between atoms: N_7  and  C_32
REMARK    6  A    between atoms: C_9  and  C_16
REMARK    7  A    between atoms: C_10  and  C_15
REMARK    8  A    between atoms: C_18  and  C_21
REMARK    9  A    between atoms: C_19  and  C_22
REMARK   10  A    between atoms: C_23  and  C_26
REMARK   11  A    between atoms: C_23  and  C_27
REMARK                            x       y       z     vdW  Elec       q    Type
REMARK                         _______ _______ _______ _____ _____    ______ ____
ROOT
ATOM      2  N   UNL     1      -5.573 -11.216  10.190  0.00  0.00    -0.297 NA
ATOM      8  C   UNL     1      -4.069  -9.314  11.140  0.00  0.00    +0.002 C 
ATOM      9  C   UNL     1      -3.738 -10.667  11.831  0.00  0.00    +0.055 C 
ATOM     10  C   UNL     1      -6.411 -10.050  10.576  0.00  0.00    +0.074 C 
ATOM     11  C   UNL     1      -5.568  -8.999  11.329  0.00  0.00    +0.024 C 
ATOM     12  C   UNL     1      -3.836  -9.519   9.627  0.00  0.00    +0.019 C 
ATOM     13  C   UNL     1      -4.803 -11.700  11.363  0.00  0.00    +0.094 C 
ATOM     14  C   UNL     1      -4.610 -10.763   9.158  0.00  0.00    +0.085 C 
ENDROOT
BRANCH   9  16
ATOM      4  N   UNL     1      -2.309 -10.409  13.799  0.00  0.00    -0.237 NA
ATOM      5  N   UNL     1      -3.152 -10.678  16.041  0.00  0.00    -0.232 NA
ATOM     16  C   UNL     1      -3.550 -10.675  13.341  0.00  0.00    +0.050 A 
ATOM     17  C   UNL     1      -4.628 -10.949  14.159  0.00  0.00    +0.052 A 
ATOM     18  C   UNL     1      -4.367 -10.936  15.514  0.00  0.00    +0.075 A 
ATOM     19  C   UNL     1      -2.184 -10.426  15.140  0.00  0.00    +0.127 A 
ATOM     22  C   UNL     1      -0.826 -10.139  15.685  0.00  0.00    +0.088 C 
BRANCH  18  21
ATOM     21  C   UNL     1      -5.408 -11.207  16.476  0.00  0.00    +0.001 A 
ATOM     24  C   UNL     1      -6.534 -11.939  16.099  0.00  0.00    +0.012 A 
ATOM     25  C   UNL     1      -5.287 -10.739  17.786  0.00  0.00    +0.012 A 
ATOM     28  C   UNL     1      -7.540 -12.201  17.029  0.00  0.00    +0.024 A 
ATOM     29  C   UNL     1      -6.292 -11.002  18.716  0.00  0.00    +0.024 A 
ATOM     30  C   UNL     1      -7.418 -11.733  18.338  0.00  0.00    +0.029 A 
BRANCH  30   7
ATOM      7  N   UNL     1      -8.434 -11.998  19.278  0.00  0.00    -0.336 N 
ATOM     31  C   UNL     1      -8.508 -13.288  19.935  0.00  0.00    +0.129 C 
ATOM     32  C   UNL     1      -9.414 -10.982  19.608  0.00  0.00    +0.129 C 
ENDBRANCH  30   7
ENDBRANCH  18  21
ENDBRANCH   9  16
BRANCH  10  15
ATOM     15  C   UNL     1      -7.652 -10.461  11.371  0.00  0.00    +0.124 C 
BRANCH  15   3
ATOM      1  O   UNL     1      -9.284 -11.034  13.682  0.00  0.00    -0.253 OA
ATOM      3  N   UNL     1      -7.795  -9.658  12.546  0.00  0.00    -0.298 N 
ATOM      6  N   UNL     1      -8.564  -9.045  14.639  0.00  0.00    -0.297 N 
ATOM     20  C   UNL     1      -8.610 -10.005  13.630  0.00  0.00    +0.300 C 
ATOM     33  H   UNL     1      -7.282  -8.783  12.595  0.00  0.00    +0.150 HD
ATOM     34  H   UNL     1      -7.920  -8.268  14.535  0.00  0.00    +0.150 HD
BRANCH   6  23
ATOM     23  C   UNL     1      -9.316  -9.164  15.866  0.00  0.00    +0.068 C 
ATOM     26  C   UNL     1     -10.689  -8.524  15.709  0.00  0.00    +0.027 C 
ATOM     27  C   UNL     1      -8.547  -8.543  17.026  0.00  0.00    +0.027 C 
ENDBRANCH   6  23
ENDBRANCH  15   3
ENDBRANCH  10  15
TORSDOF 6
ENDMDL
MODEL 3
REMARK VINA RESULT:      -6.8     21.072     24.743
REMARK  Name = 26742496
REMARK  11 active torsions:
REMARK  status: ('A' for Active; 'I' for Inactive)
REMARK    1  A    between atoms: N_3  and  C_15
REMARK    2  A    between atoms: N_6  and  C_23
REMARK    3  A    between atoms: N_7  and  C_30
REMARK    4  A    between atoms: N_7  and  C_31
REMARK    5  A    between atoms: N_7  and  C_32
REMARK    6  A    between atoms: C_9  and  C_16
REMARK    7  A    between atoms: C_10  and  C_15
REMARK    8  A    between atoms: C_18  and  C_21
REMARK    9  A    between atoms: C_19  and  C_22
REMARK   10  A    between atoms: C_23  and  C_26
REMARK   11  A    between atoms: C_23  and  C_27
REMARK                            x       y       z     vdW  Elec       q    Type
REMARK                         _______ _______ _______ _____ _____    ______ ____
ROOT
ATOM      2  N   UNL     1     -18.780   2.668  26.294  0.00  0.00    -0.297 NA
ATOM      8  C   UNL     1     -16.879   0.891  26.170  0.00  0.00    +0.002 C 
ATOM      9  C   UNL     1     -17.290   1.147  27.648  0.00  0.00    +0.055 C 
ATOM     10  C   UNL     1     -17.669   3.170  25.442  0.00  0.00    +0.074 C 
ATOM     11  C   UNL     1     -16.451   2.225  25.523  0.00  0.00    +0.024 C 
ATOM     12  C   UNL     1     -18.148   0.416  25.432  0.00  0.00    +0.019 C 
ATOM     13  C   UNL     1     -18.274   2.352  27.653  0.00  0.00    +0.094 C 
ATOM     14  C   UNL     1     -19.289   1.415  25.686  0.00  0.00    +0.085 C 
ENDROOT
BRANCH   9  16
ATOM      4  N   UNL     1     -15.327   0.265  28.810  0.00  0.00    -0.237 NA
ATOM      5  N   UNL     1     -14.189   1.508  30.531  0.00  0.00    -0.232 NA
ATOM     16  C   UNL     1     -16.187   1.297  28.685  0.00  0.00    +0.050 A 
ATOM     17  C   UNL     1     -16.114   2.452  29.438  0.00  0.00    +0.052 A 
ATOM     18  C   UNL     1     -15.084   2.502  30.354  0.00  0.00    +0.075 A 
ATOM     19  C   UNL     1     -14.366   0.436  29.738  0.00  0.00    +0.127 A 
ATOM     22  C   UNL     1     -13.397  -0.685  29.906  0.00  0.00    +0.088 C 
BRANCH  18  21
ATOM     21  C   UNL     1     -14.898   3.654  31.204  0.00  0.00    +0.001 A 
ATOM     24  C   UNL     1     -14.055   3.575  32.313  0.00  0.00    +0.012 A 
ATOM     25  C   UNL     1     -15.559   4.849  30.914  0.00  0.00    +0.012 A 
ATOM     28  C   UNL     1     -13.875   4.688  33.133  0.00  0.00    +0.024 A 
ATOM     29  C   UNL     1     -15.378   5.962  31.734  0.00  0.00    +0.024 A 
ATOM     30  C   UNL     1     -14.536   5.882  32.843  0.00  0.00    +0.029 A 
BRANCH  30   7
ATOM      7  N   UNL     1     -14.354   7.008  33.672  0.00  0.00    -0.336 N 
ATOM     31  C   UNL     1     -13.525   6.920  34.858  0.00  0.00    +0.129 C 
ATOM     32  C   UNL     1     -14.986   8.270  33.346  0.00  0.00    +0.129 C 
ENDBRANCH  30   7
ENDBRANCH  18  21
ENDBRANCH   9  16
BRANCH  10  15
ATOM     15  C   UNL     1     -17.292   4.616  25.768  0.00  0.00    +0.124 C 
BRANCH  15   3
ATOM      1  O   UNL     1     -17.020   5.823  23.161  0.00  0.00    -0.253 OA
ATOM      3  N   UNL     1     -16.076   4.987  25.112  0.00  0.00    -0.298 N 
ATOM      6  N   UNL     1     -14.717   5.829  23.442  0.00  0.00    -0.297 N 
ATOM     20  C   UNL     1     -16.027   5.571  23.840  0.00  0.00    +0.300 C 
ATOM     33  H   UNL     1     -15.199   4.811  25.592  0.00  0.00    +0.150 HD
ATOM     34  H   UNL     1     -13.968   5.654  24.105  0.00  0.00    +0.150 HD
BRANCH   6  23
ATOM     23  C   UNL     1     -14.390   6.429  22.169  0.00  0.00    +0.068 C 
ATOM     26  C   UNL     1     -13.062   5.887  21.655  0.00  0.00    +0.027 C 
ATOM     27  C   UNL     1     -14.360   7.948  22.287  0.00  0.00    +0.027 C 
ENDBRANCH   6  23
ENDBRANCH  15   3
ENDBRANCH  10  15
TORSDOF 6
ENDMDL
MODEL 4
REMARK VINA RESULT:      -6.4     21.056     24.134
REMARK  Name = 26742496
REMARK  11 active torsions:
REMARK  status: ('A' for Active; 'I' for Inactive)
REMARK    1  A    between atoms: N_3  and  C_15
REMARK    2  A    between atoms: N_6  and  C_23
REMARK    3  A    between atoms: N_7  and  C_30
REMARK    4  A    between atoms: N_7  and  C_31
REMARK    5  A    between atoms: N_7  and  C_32
REMARK    6  A    between atoms: C_9  and  C_16
REMARK    7  A    between atoms: C_10  and  C_15
REMARK    8  A    between atoms: C_18  and  C_21
REMARK    9  A    between atoms: C_19  and  C_22
REMARK   10  A    between atoms: C_23  and  C_26
REMARK   11  A    between atoms: C_23  and  C_27
REMARK                            x       y       z     vdW  Elec       q    Type
REMARK                         _______ _______ _______ _____ _____    ______ ____
ROOT
ATOM      2  N   UNL     1     -11.464  10.127  15.658  0.00  0.00    -0.297 NA
ATOM      8  C   UNL     1     -10.652   8.168  17.170  0.00  0.00    +0.002 C 
ATOM      9  C   UNL     1     -12.133   8.520  17.484  0.00  0.00    +0.055 C 
ATOM     10  C   UNL     1     -10.171  10.484  16.301  0.00  0.00    +0.074 C 
ATOM     11  C   UNL     1      -9.779   9.428  17.356  0.00  0.00    +0.024 C 
ATOM     12  C   UNL     1     -10.591   7.792  15.674  0.00  0.00    +0.019 C 
ATOM     13  C   UNL     1     -12.479   9.816  16.695  0.00  0.00    +0.094 C 
ATOM     14  C   UNL     1     -11.245   8.908  14.843  0.00  0.00    +0.085 C 
ENDROOT
BRANCH   9  16
ATOM      4  N   UNL     1     -12.271   9.746  19.595  0.00  0.00    -0.237 NA
ATOM      5  N   UNL     1     -13.296   8.803  21.562  0.00  0.00    -0.232 NA
ATOM     16  C   UNL     1     -12.559   8.601  18.942  0.00  0.00    +0.050 A 
ATOM     17  C   UNL     1     -13.204   7.528  19.523  0.00  0.00    +0.052 A 
ATOM     18  C   UNL     1     -13.552   7.687  20.849  0.00  0.00    +0.075 A 
ATOM     19  C   UNL     1     -12.663   9.778  20.884  0.00  0.00    +0.127 A 
ATOM     22  C   UNL     1     -12.360  11.027  21.640  0.00  0.00    +0.088 C 
BRANCH  18  21
ATOM     21  C   UNL     1     -14.230   6.639  21.572  0.00  0.00    +0.001 A 
ATOM     24  C   UNL     1     -13.505   5.566  22.091  0.00  0.00    +0.012 A 
ATOM     25  C   UNL     1     -15.613   6.699  21.755  0.00  0.00    +0.012 A 
ATOM     28  C   UNL     1     -14.161   4.554  22.791  0.00  0.00    +0.024 A 
ATOM     29  C   UNL     1     -16.269   5.687  22.455  0.00  0.00    +0.024 A 
ATOM     30  C   UNL     1     -15.542   4.614  22.974  0.00  0.00    +0.029 A 
BRANCH  30   7
ATOM      7  N   UNL     1     -16.206   3.591  23.681  0.00  0.00    -0.336 N 
ATOM     31  C   UNL     1     -17.311   2.877  23.073  0.00  0.00    +0.129 C 
ATOM     32  C   UNL     1     -15.788   3.234  25.022  0.00  0.00    +0.129 C 
ENDBRANCH  30   7
ENDBRANCH  18  21
ENDBRANCH   9  16
BRANCH  10  15
ATOM     15  C   UNL     1     -10.181  11.897  16.885  0.00  0.00    +0.124 C 
BRANCH  15   3
ATOM      1  O   UNL     1      -8.741  13.638  15.090  0.00  0.00    -0.253 OA
ATOM      3  N   UNL     1      -8.849  12.392  17.048  0.00  0.00    -0.298 N 
ATOM      6  N   UNL     1      -6.925  13.566  16.532  0.00  0.00    -0.297 N 
ATOM     20  C   UNL     1      -8.217  13.237  16.128  0.00  0.00    +0.300 C 
ATOM     33  H   UNL     1      -8.329  12.110  17.873  0.00  0.00    +0.150 HD
ATOM     34  H   UNL     1      -6.608  13.245  17.442  0.00  0.00    +0.150 HD
BRANCH   6  23
ATOM     23  C   UNL     1      -6.057  14.424  15.759  0.00  0.00    +0.068 C 
ATOM     26  C   UNL     1      -5.458  13.655  14.589  0.00  0.00    +0.027 C 
ATOM     27  C   UNL     1      -4.969  15.020  16.644  0.00  0.00    +0.027 C 
ENDBRANCH   6  23
ENDBRANCH  15   3
ENDBRANCH  10  15
TORSDOF 6
ENDMDL
MODEL 5
REMARK VINA RESULT:      -6.4     21.951     26.575
REMARK  Name = 26742496
REMARK  11 active torsions:
REMARK  status: ('A' for Active; 'I' for Inactive)
REMARK    1  A    between atoms: N_3  and  C_15
REMARK    2  A    between atoms: N_6  and  C_23
REMARK    3  A    between atoms: N_7  and  C_30
REMARK    4  A    between atoms: N_7  and  C_31
REMARK    5  A    between atoms: N_7  and  C_32
REMARK    6  A    between atoms: C_9  and  C_16
REMARK    7  A    between atoms: C_10  and  C_15
REMARK    8  A    between atoms: C_18  and  C_21
REMARK    9  A    between atoms: C_19  and  C_22
REMARK   10  A    between atoms: C_23  and  C_26
REMARK   11  A    between atoms: C_23  and  C_27
REMARK                            x       y       z     vdW  Elec       q    Type
REMARK                         _______ _______ _______ _____ _____    ______ ____
ROOT
ATOM      2  N   UNL     1     -15.994   1.422  30.046  0.00  0.00    -0.297 NA
ATOM      8  C   UNL     1     -13.870   2.755  30.752  0.00  0.00    +0.002 C 
ATOM      9  C   UNL     1     -14.978   2.883  31.835  0.00  0.00    +0.055 C 
ATOM     10  C   UNL     1     -15.550   2.300  28.931  0.00  0.00    +0.074 C 
ATOM     11  C   UNL     1     -14.423   3.246  29.397  0.00  0.00    +0.024 C 
ATOM     12  C   UNL     1     -13.569   1.249  30.600  0.00  0.00    +0.019 C 
ATOM     13  C   UNL     1     -16.269   2.238  31.256  0.00  0.00    +0.094 C 
ATOM     14  C   UNL     1     -14.885   0.489  30.360  0.00  0.00    +0.085 C 
ENDROOT
BRANCH   9  16
ATOM      4  N   UNL     1     -16.518   4.547  32.752  0.00  0.00    -0.237 NA
ATOM      5  N   UNL     1     -15.767   6.704  33.520  0.00  0.00    -0.232 NA
ATOM     16  C   UNL     1     -15.238   4.255  32.438  0.00  0.00    +0.050 A 
ATOM     17  C   UNL     1     -14.184   5.125  32.632  0.00  0.00    +0.052 A 
ATOM     18  C   UNL     1     -14.511   6.347  33.181  0.00  0.00    +0.075 A 
ATOM     19  C   UNL     1     -16.707   5.771  33.282  0.00  0.00    +0.127 A 
ATOM     22  C   UNL     1     -18.109   6.130  33.640  0.00  0.00    +0.088 C 
BRANCH  18  21
ATOM     21  C   UNL     1     -13.501   7.346  33.434  0.00  0.00    +0.001 A 
ATOM     24  C   UNL     1     -13.225   7.745  34.742  0.00  0.00    +0.012 A 
ATOM     25  C   UNL     1     -12.796   7.911  32.370  0.00  0.00    +0.012 A 
ATOM     28  C   UNL     1     -12.248   8.710  34.986  0.00  0.00    +0.024 A 
ATOM     29  C   UNL     1     -11.819   8.875  32.614  0.00  0.00    +0.024 A 
ATOM     30  C   UNL     1     -11.544   9.274  33.922  0.00  0.00    +0.029 A 
BRANCH  30   7
ATOM      7  N   UNL     1     -10.556  10.250  34.168  0.00  0.00    -0.336 N 
ATOM     31  C   UNL     1     -10.811  11.334  35.096  0.00  0.00    +0.129 C 
ATOM     32  C   UNL     1      -9.271  10.178  33.503  0.00  0.00    +0.129 C 
ENDBRANCH  30   7
ENDBRANCH  18  21
ENDBRANCH   9  16
BRANCH  10  15
ATOM     15  C   UNL     1     -16.712   3.066  28.295  0.00  0.00    +0.124 C 
BRANCH  15   3
ATOM      1  O   UNL     1     -16.320   2.278  25.547  0.00  0.00    -0.253 OA
ATOM      3  N   UNL     1     -16.252   3.889  27.219  0.00  0.00    -0.298 N 
ATOM      6  N   UNL     1     -15.628   4.439  25.062  0.00  0.00    -0.297 N 
ATOM     20  C   UNL     1     -16.087   3.431  25.906  0.00  0.00    +0.300 C 
ATOM     33  H   UNL     1     -16.026   4.859  27.419  0.00  0.00    +0.150 HD
ATOM     34  H   UNL     1     -15.536   5.378  25.437  0.00  0.00    +0.150 HD
BRANCH   6  23
ATOM     23  C   UNL     1     -15.375   4.227  23.656  0.00  0.00    +0.068 C 
ATOM     26  C   UNL     1     -14.162   5.033  23.209  0.00  0.00    +0.027 C 
ATOM     27  C   UNL     1     -16.607   4.580  22.832  0.00  0.00    +0.027 C 
ENDBRANCH   6  23
ENDBRANCH  15   3
ENDBRANCH  10  15
TORSDOF 6
ENDMDL
MODEL 6
REMARK VINA RESULT:      -6.3      2.981      5.343
REMARK  Name = 26742496
REMARK  11 active torsions:
REMARK  status: ('A' for Active; 'I' for Inactive)
REMARK    1  A    between atoms: N_3  and  C_15
REMARK    2  A    between atoms: N_6  and  C_23
REMARK    3  A    between atoms: N_7  and  C_30
REMARK    4  A    between atoms: N_7  and  C_31
REMARK    5  A    between atoms: N_7  and  C_32
REMARK    6  A    between atoms: C_9  and  C_16
REMARK    7  A    between atoms: C_10  and  C_15
REMARK    8  A    between atoms: C_18  and  C_21
REMARK    9  A    between atoms: C_19  and  C_22
REMARK   10  A    between atoms: C_23  and  C_26
REMARK   11  A    between atoms: C_23  and  C_27
REMARK                            x       y       z     vdW  Elec       q    Type
REMARK                         _______ _______ _______ _____ _____    ______ ____
ROOT
ATOM      2  N   UNL     1      -6.671 -10.964  18.662  0.00  0.00    -0.297 NA
ATOM      8  C   UNL     1      -6.403 -12.525  16.594  0.00  0.00    +0.002 C 
ATOM      9  C   UNL     1      -5.026 -11.941  17.017  0.00  0.00    +0.055 C 
ATOM     10  C   UNL     1      -7.659 -10.593  17.613  0.00  0.00    +0.074 C 
ATOM     11  C   UNL     1      -7.381 -11.366  16.306  0.00  0.00    +0.024 C 
ATOM     12  C   UNL     1      -6.955 -13.292  17.815  0.00  0.00    +0.019 C 
ATOM     13  C   UNL     1      -5.294 -10.873  18.117  0.00  0.00    +0.094 C 
ATOM     14  C   UNL     1      -6.925 -12.373  19.048  0.00  0.00    +0.085 C 
ENDROOT
BRANCH   9  16
ATOM      4  N   UNL     1      -2.895 -10.961  16.325  0.00  0.00    -0.237 NA
ATOM      5  N   UNL     1      -2.390 -10.490  14.016  0.00  0.00    -0.232 NA
ATOM     16  C   UNL     1      -4.097 -11.427  15.927  0.00  0.00    +0.050 A 
ATOM     17  C   UNL     1      -4.512 -11.456  14.611  0.00  0.00    +0.052 A 
ATOM     18  C   UNL     1      -3.608 -10.970  13.690  0.00  0.00    +0.075 A 
ATOM     19  C   UNL     1      -2.103 -10.514  15.331  0.00  0.00    +0.127 A 
ATOM     22  C   UNL     1      -0.766  -9.989  15.731  0.00  0.00    +0.088 C 
BRANCH  18  21
ATOM     21  C   UNL     1      -3.919 -10.945  12.281  0.00  0.00    +0.001 A 
ATOM     24  C   UNL     1      -3.207 -10.106  11.423  0.00  0.00    +0.012 A 
ATOM     25  C   UNL     1      -4.933 -11.761  11.775  0.00  0.00    +0.012 A 
ATOM     28  C   UNL     1      -3.508 -10.082  10.061  0.00  0.00    +0.024 A 
ATOM     29  C   UNL     1      -5.234 -11.737  10.414  0.00  0.00    +0.024 A 
ATOM     30  C   UNL     1      -4.521 -10.898   9.557  0.00  0.00    +0.029 A 
BRANCH  30   7
ATOM      7  N   UNL     1      -4.826 -10.875   8.180  0.00  0.00    -0.336 N 
ATOM     31  C   UNL     1      -4.495 -12.005   7.336  0.00  0.00    +0.129 C 
ATOM     32  C   UNL     1      -5.482  -9.724   7.593  0.00  0.00    +0.129 C 
ENDBRANCH  30   7
ENDBRANCH  18  21
ENDBRANCH   9  16
BRANCH  10  15
ATOM     15  C   UNL     1      -7.722  -9.083  17.380  0.00  0.00    +0.124 C 
BRANCH  15   3
ATOM      1  O   UNL     1      -9.564  -8.510  15.234  0.00  0.00    -0.253 OA
ATOM      3  N   UNL     1      -9.065  -8.604  17.501  0.00  0.00    -0.298 N 
ATOM      6  N   UNL     1     -11.152  -7.890  16.809  0.00  0.00    -0.297 N 
ATOM     20  C   UNL     1      -9.900  -8.348  16.406  0.00  0.00    +0.300 C 
ATOM     33  H   UNL     1      -9.431  -8.432  18.432  0.00  0.00    +0.150 HD
ATOM     34  H   UNL     1     -11.359  -7.861  17.802  0.00  0.00    +0.150 HD
BRANCH   6  23
ATOM     23  C   UNL     1     -12.199  -7.553  15.873  0.00  0.00    +0.068 C 
ATOM     26  C   UNL     1     -12.237  -6.048  15.641  0.00  0.00    +0.027 C 
ATOM     27  C   UNL     1     -13.545  -8.070  16.369  0.00  0.00    +0.027 C 
ENDBRANCH   6  23
ENDBRANCH  15   3
ENDBRANCH  10  15
TORSDOF 6
ENDMDL
MODEL 7
REMARK VINA RESULT:      -6.3     23.924     26.750
REMARK  Name = 26742496
REMARK  11 active torsions:
REMARK  status: ('A' for Active; 'I' for Inactive)
REMARK    1  A    between atoms: N_3  and  C_15
REMARK    2  A    between atoms: N_6  and  C_23
REMARK    3  A    between atoms: N_7  and  C_30
REMARK    4  A    between atoms: N_7  and  C_31
REMARK    5  A    between atoms: N_7  and  C_32
REMARK    6  A    between atoms: C_9  and  C_16
REMARK    7  A    between atoms: C_10  and  C_15
REMARK    8  A    between atoms: C_18  and  C_21
REMARK    9  A    between atoms: C_19  and  C_22
REMARK   10  A    between atoms: C_23  and  C_26
REMARK   11  A    between atoms: C_23  and  C_27
REMARK                            x       y       z     vdW  Elec       q    Type
REMARK                         _______ _______ _______ _____ _____    ______ ____
ROOT
ATOM      2  N   UNL     1      10.650   5.442   7.802  0.00  0.00    -0.297 NA
ATOM      8  C   UNL     1       9.207   7.504   7.131  0.00  0.00    +0.002 C 
ATOM      9  C   UNL     1       9.058   6.370   6.078  0.00  0.00    +0.055 C 
ATOM     10  C   UNL     1      11.473   6.680   7.861  0.00  0.00    +0.074 C 
ATOM     11  C   UNL     1      10.698   7.877   7.270  0.00  0.00    +0.024 C 
ATOM     12  C   UNL     1       8.758   6.915   8.485  0.00  0.00    +0.019 C 
ATOM     13  C   UNL     1      10.094   5.266   6.437  0.00  0.00    +0.094 C 
ATOM     14  C   UNL     1       9.517   5.603   8.746  0.00  0.00    +0.085 C 
ENDROOT
BRANCH   9  16
ATOM      4  N   UNL     1       8.354   7.802   4.225  0.00  0.00    -0.237 NA
ATOM      5  N   UNL     1       9.142   7.467   1.973  0.00  0.00    -0.232 NA
ATOM     16  C   UNL     1       9.103   6.746   4.605  0.00  0.00    +0.050 A 
ATOM     17  C   UNL     1       9.887   6.011   3.738  0.00  0.00    +0.052 A 
ATOM     18  C   UNL     1       9.867   6.422   2.421  0.00  0.00    +0.075 A 
ATOM     19  C   UNL     1       8.419   8.103   2.914  0.00  0.00    +0.127 A 
ATOM     22  C   UNL     1       7.603   9.264   2.456  0.00  0.00    +0.088 C 
BRANCH  18  21
ATOM     21  C   UNL     1      10.642   5.737   1.415  0.00  0.00    +0.001 A 
ATOM     24  C   UNL     1      10.751   6.274   0.132  0.00  0.00    +0.012 A 
ATOM     25  C   UNL     1      11.285   4.537   1.726  0.00  0.00    +0.012 A 
ATOM     28  C   UNL     1      11.501   5.612  -0.840  0.00  0.00    +0.024 A 
ATOM     29  C   UNL     1      12.035   3.875   0.754  0.00  0.00    +0.024 A 
ATOM     30  C   UNL     1      12.143   4.413  -0.529  0.00  0.00    +0.029 A 
BRANCH  30   7
ATOM      7  N   UNL     1      12.901   3.744  -1.511  0.00  0.00    -0.336 N 
ATOM     31  C   UNL     1      14.287   4.103  -1.740  0.00  0.00    +0.129 C 
ATOM     32  C   UNL     1      12.309   2.682  -2.299  0.00  0.00    +0.129 C 
ENDBRANCH  30   7
ENDBRANCH  18  21
ENDBRANCH   9  16
BRANCH  10  15
ATOM     15  C   UNL     1      12.840   6.501   7.198  0.00  0.00    +0.124 C 
BRANCH  15   3
ATOM      1  O   UNL     1      14.757   7.533   5.304  0.00  0.00    -0.253 OA
ATOM      3  N   UNL     1      12.722   6.516   5.772  0.00  0.00    -0.298 N 
ATOM      6  N   UNL     1      13.329   6.924   3.579  0.00  0.00    -0.297 N 
ATOM     20  C   UNL     1      13.700   7.037   4.917  0.00  0.00    +0.300 C 
ATOM     33  H   UNL     1      11.878   6.133   5.357  0.00  0.00    +0.150 HD
ATOM     34  H   UNL     1      12.470   6.432   3.357  0.00  0.00    +0.150 HD
BRANCH   6  23
ATOM     23  C   UNL     1      14.162   7.388   2.495  0.00  0.00    +0.068 C 
ATOM     26  C   UNL     1      13.394   8.369   1.619  0.00  0.00    +0.027 C 
ATOM     27  C   UNL     1      14.682   6.209   1.680  0.00  0.00    +0.027 C 
ENDBRANCH   6  23
ENDBRANCH  15   3
ENDBRANCH  10  15
TORSDOF 6
ENDMDL
MODEL 8
REMARK VINA RESULT:      -6.1      2.542      4.734
REMARK  Name = 26742496
REMARK  11 active torsions:
REMARK  status: ('A' for Active; 'I' for Inactive)
REMARK    1  A    between atoms: N_3  and  C_15
REMARK    2  A    between atoms: N_6  and  C_23
REMARK    3  A    between atoms: N_7  and  C_30
REMARK    4  A    between atoms: N_7  and  C_31
REMARK    5  A    between atoms: N_7  and  C_32
REMARK    6  A    between atoms: C_9  and  C_16
REMARK    7  A    between atoms: C_10  and  C_15
REMARK    8  A    between atoms: C_18  and  C_21
REMARK    9  A    between atoms: C_19  and  C_22
REMARK   10  A    between atoms: C_23  and  C_26
REMARK   11  A    between atoms: C_23  and  C_27
REMARK                            x       y       z     vdW  Elec       q    Type
REMARK                         _______ _______ _______ _____ _____    ______ ____
ROOT
ATOM      2  N   UNL     1      -4.883 -12.870  17.158  0.00  0.00    -0.297 NA
ATOM      8  C   UNL     1      -5.506 -10.402  17.715  0.00  0.00    +0.002 C 
ATOM      9  C   UNL     1      -6.743 -11.164  17.159  0.00  0.00    +0.055 C 
ATOM     10  C   UNL     1      -3.893 -11.944  16.544  0.00  0.00    +0.074 C 
ATOM     11  C   UNL     1      -4.357 -10.479  16.687  0.00  0.00    +0.024 C 
ATOM     12  C   UNL     1      -5.041 -11.167  18.972  0.00  0.00    +0.019 C 
ATOM     13  C   UNL     1      -6.247 -12.554  16.665  0.00  0.00    +0.094 C 
ATOM     14  C   UNL     1      -4.859 -12.654  18.625  0.00  0.00    +0.085 C 
ENDROOT
BRANCH   9  16
ATOM      4  N   UNL     1      -8.774  -9.934  16.576  0.00  0.00    -0.237 NA
ATOM      5  N   UNL     1      -9.225  -9.194  14.328  0.00  0.00    -0.232 NA
ATOM     16  C   UNL     1      -7.616 -10.463  16.130  0.00  0.00    +0.050 A 
ATOM     17  C   UNL     1      -7.200 -10.399  14.815  0.00  0.00    +0.052 A 
ATOM     18  C   UNL     1      -8.053  -9.746  13.950  0.00  0.00    +0.075 A 
ATOM     19  C   UNL     1      -9.519  -9.324  15.635  0.00  0.00    +0.127 A 
ATOM     22  C   UNL     1     -10.809  -8.729  16.090  0.00  0.00    +0.088 C 
BRANCH  18  21
ATOM     21  C   UNL     1      -7.735  -9.610  12.549  0.00  0.00    +0.001 A 
ATOM     24  C   UNL     1      -6.540  -9.005  12.160  0.00  0.00    +0.012 A 
ATOM     25  C   UNL     1      -8.622 -10.087  11.583  0.00  0.00    +0.012 A 
ATOM     28  C   UNL     1      -6.232  -8.875  10.806  0.00  0.00    +0.024 A 
ATOM     29  C   UNL     1      -8.314  -9.957  10.229  0.00  0.00    +0.024 A 
ATOM     30  C   UNL     1      -7.119  -9.352   9.840  0.00  0.00    +0.029 A 
BRANCH  30   7
ATOM      7  N   UNL     1      -6.808  -9.220   8.471  0.00  0.00    -0.336 N 
ATOM     31  C   UNL     1      -7.775  -8.655   7.551  0.00  0.00    +0.129 C 
ATOM     32  C   UNL     1      -5.517  -9.640   7.967  0.00  0.00    +0.129 C 
ENDBRANCH  30   7
ENDBRANCH  18  21
ENDBRANCH   9  16
BRANCH  10  15
ATOM     15  C   UNL     1      -3.582 -12.305  15.091  0.00  0.00    +0.124 C 
BRANCH  15   3
ATOM      1  O   UNL     1      -2.771 -12.203  12.323  0.00  0.00    -0.253 OA
ATOM      3  N   UNL     1      -2.961 -11.208  14.414  0.00  0.00    -0.298 N 
ATOM      6  N   UNL     1      -2.010 -10.037  12.662  0.00  0.00    -0.297 N 
ATOM     20  C   UNL     1      -2.595 -11.236  13.063  0.00  0.00    +0.300 C 
ATOM     33  H   UNL     1      -2.768 -10.364  14.944  0.00  0.00    +0.150 HD
ATOM     34  H   UNL     1      -1.978  -9.270  13.327  0.00  0.00    +0.150 HD
BRANCH   6  23
ATOM     23  C   UNL     1      -1.543  -9.806  11.315  0.00  0.00    +0.068 C 
ATOM     26  C   UNL     1      -0.390  -8.811  11.318  0.00  0.00    +0.027 C 
ATOM     27  C   UNL     1      -2.686  -9.327  10.428  0.00  0.00    +0.027 C 
ENDBRANCH   6  23
ENDBRANCH  15   3
ENDBRANCH  10  15
TORSDOF 6
ENDMDL
MODEL 9
REMARK VINA RESULT:      -6.0      3.938      7.500
REMARK  Name = 26742496
REMARK  11 active torsions:
REMARK  status: ('A' for Active; 'I' for Inactive)
REMARK    1  A    between atoms: N_3  and  C_15
REMARK    2  A    between atoms: N_6  and  C_23
REMARK    3  A    between atoms: N_7  and  C_30
REMARK    4  A    between atoms: N_7  and  C_31
REMARK    5  A    between atoms: N_7  and  C_32
REMARK    6  A    between atoms: C_9  and  C_16
REMARK    7  A    between atoms: C_10  and  C_15
REMARK    8  A    between atoms: C_18  and  C_21
REMARK    9  A    between atoms: C_19  and  C_22
REMARK   10  A    between atoms: C_23  and  C_26
REMARK   11  A    between atoms: C_23  and  C_27
REMARK                            x       y       z     vdW  Elec       q    Type
REMARK                         _______ _______ _______ _____ _____    ______ ____
ROOT
ATOM      2  N   UNL     1      -5.143 -12.080  17.289  0.00  0.00    -0.297 NA
ATOM      8  C   UNL     1      -5.957 -11.031  19.530  0.00  0.00    +0.002 C 
ATOM      9  C   UNL     1      -6.998 -12.058  19.000  0.00  0.00    +0.055 C 
ATOM     10  C   UNL     1      -5.046 -10.598  17.222  0.00  0.00    +0.074 C 
ATOM     11  C   UNL     1      -5.714  -9.952  18.454  0.00  0.00    +0.024 C 
ATOM     12  C   UNL     1      -4.630 -11.797  19.713  0.00  0.00    +0.019 C 
ATOM     13  C   UNL     1      -6.542 -12.485  17.575  0.00  0.00    +0.094 C 
ATOM     14  C   UNL     1      -4.290 -12.542  18.411  0.00  0.00    +0.085 C 
ENDROOT
BRANCH   9  16
ATOM      4  N   UNL     1      -9.247 -12.366  19.909  0.00  0.00    -0.237 NA
ATOM      5  N   UNL     1     -11.121 -11.042  19.172  0.00  0.00    -0.232 NA
ATOM     16  C   UNL     1      -8.470 -11.678  19.047  0.00  0.00    +0.050 A 
ATOM     17  C   UNL     1      -8.940 -10.673  18.225  0.00  0.00    +0.052 A 
ATOM     18  C   UNL     1     -10.287 -10.396  18.331  0.00  0.00    +0.075 A 
ATOM     19  C   UNL     1     -10.544 -12.001  19.920  0.00  0.00    +0.127 A 
ATOM     22  C   UNL     1     -11.435 -12.740  20.859  0.00  0.00    +0.088 C 
BRANCH  18  21
ATOM     21  C   UNL     1     -10.902  -9.368  17.527  0.00  0.00    +0.001 A 
ATOM     24  C   UNL     1     -10.261  -8.142  17.350  0.00  0.00    +0.012 A 
ATOM     25  C   UNL     1     -12.139  -9.601  16.923  0.00  0.00    +0.012 A 
ATOM     28  C   UNL     1     -10.856  -7.149  16.572  0.00  0.00    +0.024 A 
ATOM     29  C   UNL     1     -12.734  -8.609  16.144  0.00  0.00    +0.024 A 
ATOM     30  C   UNL     1     -12.091  -7.383  15.968  0.00  0.00    +0.029 A 
BRANCH  30   7
ATOM      7  N   UNL     1     -12.693  -6.379  15.182  0.00  0.00    -0.336 N 
ATOM     31  C   UNL     1     -11.876  -5.421  14.464  0.00  0.00    +0.129 C 
ATOM     32  C   UNL     1     -14.136  -6.297  15.074  0.00  0.00    +0.129 C 
ENDBRANCH  30   7
ENDBRANCH  18  21
ENDBRANCH   9  16
BRANCH  10  15
ATOM     15  C   UNL     1      -5.602 -10.037  15.912  0.00  0.00    +0.124 C 
BRANCH  15   3
ATOM      1  O   UNL     1      -6.164 -10.291  13.093  0.00  0.00    -0.253 OA
ATOM      3  N   UNL     1      -4.651 -10.177  14.852  0.00  0.00    -0.298 N 
ATOM      6  N   UNL     1      -3.883 -10.421  12.685  0.00  0.00    -0.297 N 
ATOM     20  C   UNL     1      -5.004 -10.296  13.503  0.00  0.00    +0.300 C 
ATOM     33  H   UNL     1      -3.664 -10.200  15.092  0.00  0.00    +0.150 HD
ATOM     34  H   UNL     1      -2.965 -10.338  13.110  0.00  0.00    +0.150 HD
BRANCH   6  23
ATOM     23  C   UNL     1      -3.973 -10.559  11.250  0.00  0.00    +0.068 C 
ATOM     26  C   UNL     1      -3.378 -11.889  10.809  0.00  0.00    +0.027 C 
ATOM     27  C   UNL     1      -3.285  -9.389  10.557  0.00  0.00    +0.027 C 
ENDBRANCH   6  23
ENDBRANCH  15   3
ENDBRANCH  10  15
TORSDOF 6
ENDMDL
MODEL 10
REMARK VINA RESULT:      -6.0      3.000      7.319
REMARK  Name = 26742496
REMARK  11 active torsions:
REMARK  status: ('A' for Active; 'I' for Inactive)
REMARK    1  A    between atoms: N_3  and  C_15
REMARK    2  A    between atoms: N_6  and  C_23
REMARK    3  A    between atoms: N_7  and  C_30
REMARK    4  A    between atoms: N_7  and  C_31
REMARK    5  A    between atoms: N_7  and  C_32
REMARK    6  A    between atoms: C_9  and  C_16
REMARK    7  A    between atoms: C_10  and  C_15
REMARK    8  A    between atoms: C_18  and  C_21
REMARK    9  A    between atoms: C_19  and  C_22
REMARK   10  A    between atoms: C_23  and  C_26
REMARK   11  A    between atoms: C_23  and  C_27
REMARK                            x       y       z     vdW  Elec       q    Type
REMARK                         _______ _______ _______ _____ _____    ______ ____
ROOT
ATOM      2  N   UNL     1      -3.739 -12.308  12.101  0.00  0.00    -0.297 NA
ATOM      8  C   UNL     1      -2.521 -11.843  14.356  0.00  0.00    +0.002 C 
ATOM      9  C   UNL     1      -3.933 -12.439  14.613  0.00  0.00    +0.055 C 
ATOM     10  C   UNL     1      -3.198 -10.922  12.111  0.00  0.00    +0.074 C 
ATOM     11  C   UNL     1      -2.656 -10.559  13.510  0.00  0.00    +0.024 C 
ATOM     12  C   UNL     1      -1.753 -12.872  13.499  0.00  0.00    +0.019 C 
ATOM     13  C   UNL     1      -4.668 -12.498  13.243  0.00  0.00    +0.094 C 
ATOM     14  C   UNL     1      -2.600 -13.242  12.269  0.00  0.00    +0.085 C 
ENDROOT
BRANCH   9  16
ATOM      4  N   UNL     1      -4.413 -12.036  16.977  0.00  0.00    -0.237 NA
ATOM      5  N   UNL     1      -6.293 -10.712  17.697  0.00  0.00    -0.232 NA
ATOM     16  C   UNL     1      -4.791 -11.811  15.701  0.00  0.00    +0.050 A 
ATOM     17  C   UNL     1      -5.893 -11.058  15.349  0.00  0.00    +0.052 A 
ATOM     18  C   UNL     1      -6.614 -10.528  16.400  0.00  0.00    +0.075 A 
ATOM     19  C   UNL     1      -5.198 -11.465  17.910  0.00  0.00    +0.127 A 
ATOM     22  C   UNL     1      -4.813 -11.692  19.333  0.00  0.00    +0.088 C 
BRANCH  18  21
ATOM     21  C   UNL     1      -7.788  -9.723  16.166  0.00  0.00    +0.001 A 
ATOM     24  C   UNL     1      -8.415  -9.745  14.920  0.00  0.00    +0.012 A 
ATOM     25  C   UNL     1      -8.300  -8.922  17.189  0.00  0.00    +0.012 A 
ATOM     28  C   UNL     1      -9.550  -8.967  14.695  0.00  0.00    +0.024 A 
ATOM     29  C   UNL     1      -9.435  -8.144  16.964  0.00  0.00    +0.024 A 
ATOM     30  C   UNL     1     -10.060  -8.167  15.717  0.00  0.00    +0.029 A 
BRANCH  30   7
ATOM      7  N   UNL     1     -11.208  -7.380  15.490  0.00  0.00    -0.336 N 
ATOM     31  C   UNL     1     -12.214  -7.807  14.538  0.00  0.00    +0.129 C 
ATOM     32  C   UNL     1     -11.402  -6.138  16.212  0.00  0.00    +0.129 C 
ENDBRANCH  30   7
ENDBRANCH  18  21
ENDBRANCH   9  16
BRANCH  10  15
ATOM     15  C   UNL     1      -4.215  -9.896  11.609  0.00  0.00    +0.124 C 
BRANCH  15   3
ATOM      1  O   UNL     1      -6.009 -11.159   9.733  0.00  0.00    -0.253 OA
ATOM      3  N   UNL     1      -4.180  -9.798  10.182  0.00  0.00    -0.298 N 
ATOM      6  N   UNL     1      -4.825 -10.178   7.994  0.00  0.00    -0.297 N 
ATOM     20  C   UNL     1      -5.090 -10.444   9.336  0.00  0.00    +0.300 C 
ATOM     33  H   UNL     1      -3.450  -9.234   9.757  0.00  0.00    +0.150 HD
ATOM     34  H   UNL     1      -4.090  -9.515   7.770  0.00  0.00    +0.150 HD
BRANCH   6  23
ATOM     23  C   UNL     1      -5.618 -10.724   6.918  0.00  0.00    +0.068 C 
ATOM     26  C   UNL     1      -4.739 -11.534   5.973  0.00  0.00    +0.027 C 
ATOM     27  C   UNL     1      -6.349  -9.613   6.176  0.00  0.00    +0.027 C 
ENDBRANCH   6  23
ENDBRANCH  15   3
ENDBRANCH  10  15
TORSDOF 6
ENDMDL
