MODEL 1
REMARK VINA RESULT:      -6.6      0.000      0.000
REMARK  Name = 45360422
REMARK  9 active torsions:
REMARK  status: ('A' for Active; 'I' for Inactive)
REMARK    1  A    between atoms: O_1  and  C_22
REMARK    2  A    between atoms: O_1  and  C_25
REMARK    3  A    between atoms: O_2  and  C_24
REMARK    4  A    between atoms: O_2  and  C_26
REMARK    5  A    between atoms: N_4  and  C_18
REMARK    6  A    between atoms: N_5  and  C_15
REMARK    7  A    between atoms: C_8  and  C_14
REMARK    8  A    between atoms: C_9  and  C_15
REMARK    9  A    between atoms: C_17  and  C_19
REMARK                            x       y       z     vdW  Elec       q    Type
REMARK                         _______ _______ _______ _____ _____    ______ ____
ROOT
ATOM      4  N   UNL     1      17.561   9.652  21.527  0.00  0.00    -0.270 N 
ATOM      6  N   UNL     1      16.402   9.775  20.858  0.00  0.00    -0.171 NA
ATOM     14  C   UNL     1      18.061   8.383  21.533  0.00  0.00    +0.044 A 
ATOM     16  C   UNL     1      17.166   7.623  20.820  0.00  0.00    +0.053 A 
ATOM     17  C   UNL     1      16.166   8.533  20.428  0.00  0.00    +0.093 A 
ATOM     18  C   UNL     1      18.143  10.817  22.151  0.00  0.00    +0.172 C 
ENDROOT
BRANCH  14   8
ATOM      3  N   UNL     1      20.709   5.912  22.628  0.00  0.00    -0.298 NA
ATOM      7  C   UNL     1      20.696   8.246  21.472  0.00  0.00    +0.002 C 
ATOM      8  C   UNL     1      19.361   8.006  22.230  0.00  0.00    +0.055 C 
ATOM      9  C   UNL     1      21.114   5.776  21.204  0.00  0.00    +0.070 C 
ATOM     10  C   UNL     1      20.913   7.108  20.451  0.00  0.00    +0.024 C 
ATOM     11  C   UNL     1      21.826   8.140  22.517  0.00  0.00    +0.019 C 
ATOM     12  C   UNL     1      19.362   6.529  22.718  0.00  0.00    +0.094 C 
ATOM     13  C   UNL     1      21.679   6.818  23.291  0.00  0.00    +0.085 C 
BRANCH   9  15
ATOM     15  C   UNL     1      20.404   4.613  20.506  0.00  0.00    +0.096 C 
BRANCH  15   5
ATOM      5  N   UNL     1      19.353   5.102  19.630  0.00  0.00    -0.329 NA
ATOM     27  H   UNL     1      19.186   6.089  19.818  0.00  0.00    +0.118 HD
ATOM     28  H   UNL     1      19.649   5.048  18.657  0.00  0.00    +0.118 HD
ENDBRANCH  15   5
ENDBRANCH   9  15
ENDBRANCH  14   8
BRANCH  17  19
ATOM     19  C   UNL     1      14.989   8.237  19.652  0.00  0.00    +0.006 A 
ATOM     20  C   UNL     1      14.032   7.353  20.147  0.00  0.00    +0.059 A 
ATOM     21  C   UNL     1      14.808   8.835  18.405  0.00  0.00    +0.014 A 
ATOM     22  C   UNL     1      12.892   7.066  19.396  0.00  0.00    +0.162 A 
ATOM     23  C   UNL     1      13.668   8.548  17.653  0.00  0.00    +0.050 A 
ATOM     24  C   UNL     1      12.710   7.663  18.150  0.00  0.00    +0.162 A 
BRANCH  22   1
ATOM      1  O   UNL     1      11.963   6.201  19.891  0.00  0.00    -0.491 OA
ATOM     25  C   UNL     1      11.526   6.417  21.231  0.00  0.00    +0.277 C 
ENDBRANCH  22   1
BRANCH  24   2
ATOM      2  O   UNL     1      11.601   7.392  17.406  0.00  0.00    -0.491 OA
ATOM     26  C   UNL     1      10.882   8.507  16.884  0.00  0.00    +0.277 C 
ENDBRANCH  24   2
ENDBRANCH  17  19
TORSDOF 6
ENDMDL
MODEL 2
REMARK VINA RESULT:      -6.6     15.022     18.963
REMARK  Name = 45360422
REMARK  9 active torsions:
REMARK  status: ('A' for Active; 'I' for Inactive)
REMARK    1  A    between atoms: O_1  and  C_22
REMARK    2  A    between atoms: O_1  and  C_25
REMARK    3  A    between atoms: O_2  and  C_24
REMARK    4  A    between atoms: O_2  and  C_26
REMARK    5  A    between atoms: N_4  and  C_18
REMARK    6  A    between atoms: N_5  and  C_15
REMARK    7  A    between atoms: C_8  and  C_14
REMARK    8  A    between atoms: C_9  and  C_15
REMARK    9  A    between atoms: C_17  and  C_19
REMARK                            x       y       z     vdW  Elec       q    Type
REMARK                         _______ _______ _______ _____ _____    ______ ____
ROOT
ATOM      4  N   UNL     1       9.896   6.929   1.898  0.00  0.00    -0.270 N 
ATOM      6  N   UNL     1       9.459   7.168   3.146  0.00  0.00    -0.171 NA
ATOM     14  C   UNL     1      10.665   5.807   1.790  0.00  0.00    +0.044 A 
ATOM     16  C   UNL     1      10.737   5.277   3.055  0.00  0.00    +0.053 A 
ATOM     17  C   UNL     1       9.975   6.156   3.848  0.00  0.00    +0.093 A 
ATOM     18  C   UNL     1       9.531   7.837   0.837  0.00  0.00    +0.172 C 
ENDROOT
BRANCH  14   8
ATOM      3  N   UNL     1      13.575   5.096  -0.522  0.00  0.00    -0.298 NA
ATOM      7  C   UNL     1      11.442   3.812   0.247  0.00  0.00    +0.002 C 
ATOM      8  C   UNL     1      11.270   5.340   0.474  0.00  0.00    +0.055 C 
ATOM      9  C   UNL     1      13.954   3.967   0.368  0.00  0.00    +0.070 C 
ATOM     10  C   UNL     1      12.699   3.325   0.998  0.00  0.00    +0.024 C 
ATOM     11  C   UNL     1      11.709   3.614  -1.260  0.00  0.00    +0.019 C 
ATOM     12  C   UNL     1      12.643   6.011   0.184  0.00  0.00    +0.094 C 
ATOM     13  C   UNL     1      12.866   4.530  -1.696  0.00  0.00    +0.085 C 
BRANCH   9  15
ATOM     15  C   UNL     1      14.976   4.381   1.429  0.00  0.00    +0.096 C 
BRANCH  15   5
ATOM      5  N   UNL     1      15.427   3.227   2.189  0.00  0.00    -0.329 NA
ATOM     27  H   UNL     1      14.637   2.608   2.365  0.00  0.00    +0.118 HD
ATOM     28  H   UNL     1      16.094   2.683   1.645  0.00  0.00    +0.118 HD
ENDBRANCH  15   5
ENDBRANCH   9  15
ENDBRANCH  14   8
BRANCH  17  19
ATOM     19  C   UNL     1       9.734   6.048   5.264  0.00  0.00    +0.006 A 
ATOM     20  C   UNL     1       9.260   7.149   5.976  0.00  0.00    +0.059 A 
ATOM     21  C   UNL     1       9.976   4.843   5.923  0.00  0.00    +0.014 A 
ATOM     22  C   UNL     1       9.026   7.045   7.348  0.00  0.00    +0.162 A 
ATOM     23  C   UNL     1       9.743   4.739   7.295  0.00  0.00    +0.050 A 
ATOM     24  C   UNL     1       9.267   5.840   8.006  0.00  0.00    +0.162 A 
BRANCH  22   1
ATOM      1  O   UNL     1       8.562   8.127   8.033  0.00  0.00    -0.491 OA
ATOM     25  C   UNL     1       9.416   9.268   8.097  0.00  0.00    +0.277 C 
ENDBRANCH  22   1
BRANCH  24   2
ATOM      2  O   UNL     1       9.043   5.725   9.345  0.00  0.00    -0.491 OA
ATOM     26  C   UNL     1       9.247   4.440   9.929  0.00  0.00    +0.277 C 
ENDBRANCH  24   2
ENDBRANCH  17  19
TORSDOF 6
ENDMDL
MODEL 3
REMARK VINA RESULT:      -6.2     15.330     18.936
REMARK  Name = 45360422
REMARK  9 active torsions:
REMARK  status: ('A' for Active; 'I' for Inactive)
REMARK    1  A    between atoms: O_1  and  C_22
REMARK    2  A    between atoms: O_1  and  C_25
REMARK    3  A    between atoms: O_2  and  C_24
REMARK    4  A    between atoms: O_2  and  C_26
REMARK    5  A    between atoms: N_4  and  C_18
REMARK    6  A    between atoms: N_5  and  C_15
REMARK    7  A    between atoms: C_8  and  C_14
REMARK    8  A    between atoms: C_9  and  C_15
REMARK    9  A    between atoms: C_17  and  C_19
REMARK                            x       y       z     vdW  Elec       q    Type
REMARK                         _______ _______ _______ _____ _____    ______ ____
ROOT
ATOM      4  N   UNL     1       9.081   7.843   3.051  0.00  0.00    -0.270 N 
ATOM      6  N   UNL     1       9.398   7.181   1.925  0.00  0.00    -0.171 NA
ATOM     14  C   UNL     1       9.739   7.393   4.158  0.00  0.00    +0.044 A 
ATOM     16  C   UNL     1      10.541   6.365   3.727  0.00  0.00    +0.053 A 
ATOM     17  C   UNL     1      10.291   6.280   2.345  0.00  0.00    +0.093 A 
ATOM     18  C   UNL     1       8.118   8.917   2.991  0.00  0.00    +0.172 C 
ENDROOT
BRANCH  14   8
ATOM      3  N   UNL     1       8.675   7.220   7.786  0.00  0.00    -0.298 NA
ATOM      7  C   UNL     1      10.766   8.079   6.491  0.00  0.00    +0.002 C 
ATOM      8  C   UNL     1       9.538   7.991   5.544  0.00  0.00    +0.055 C 
ATOM      9  C   UNL     1       9.834   6.325   8.041  0.00  0.00    +0.070 C 
ATOM     10  C   UNL     1      11.021   6.694   7.125  0.00  0.00    +0.024 C 
ATOM     11  C   UNL     1      10.378   9.038   7.636  0.00  0.00    +0.019 C 
ATOM     12  C   UNL     1       8.394   7.287   6.330  0.00  0.00    +0.094 C 
ATOM     13  C   UNL     1       9.042   8.581   8.249  0.00  0.00    +0.085 C 
BRANCH   9  15
ATOM     15  C   UNL     1       9.463   4.845   7.925  0.00  0.00    +0.096 C 
BRANCH  15   5
ATOM      5  N   UNL     1      10.387   4.020   8.686  0.00  0.00    -0.329 NA
ATOM     27  H   UNL     1      10.907   3.419   8.049  0.00  0.00    +0.118 HD
ATOM     28  H   UNL     1      11.080   4.603   9.152  0.00  0.00    +0.118 HD
ENDBRANCH  15   5
ENDBRANCH   9  15
ENDBRANCH  14   8
BRANCH  17  19
ATOM     19  C   UNL     1      10.886   5.353   1.417  0.00  0.00    +0.006 A 
ATOM     20  C   UNL     1      11.979   4.580   1.808  0.00  0.00    +0.059 A 
ATOM     21  C   UNL     1      10.371   5.230   0.126  0.00  0.00    +0.014 A 
ATOM     22  C   UNL     1      12.556   3.683   0.910  0.00  0.00    +0.162 A 
ATOM     23  C   UNL     1      10.949   4.333  -0.772  0.00  0.00    +0.050 A 
ATOM     24  C   UNL     1      12.041   3.559  -0.380  0.00  0.00    +0.162 A 
BRANCH  22   1
ATOM      1  O   UNL     1      13.623   2.932   1.303  0.00  0.00    -0.491 OA
ATOM     25  C   UNL     1      14.806   3.635   1.679  0.00  0.00    +0.277 C 
ENDBRANCH  22   1
BRANCH  24   2
ATOM      2  O   UNL     1      12.595   2.686  -1.267  0.00  0.00    -0.491 OA
ATOM     26  C   UNL     1      11.763   2.225  -2.329  0.00  0.00    +0.277 C 
ENDBRANCH  24   2
ENDBRANCH  17  19
TORSDOF 6
ENDMDL
MODEL 4
REMARK VINA RESULT:      -6.0     26.932     29.713
REMARK  Name = 45360422
REMARK  9 active torsions:
REMARK  status: ('A' for Active; 'I' for Inactive)
REMARK    1  A    between atoms: O_1  and  C_22
REMARK    2  A    between atoms: O_1  and  C_25
REMARK    3  A    between atoms: O_2  and  C_24
REMARK    4  A    between atoms: O_2  and  C_26
REMARK    5  A    between atoms: N_4  and  C_18
REMARK    6  A    between atoms: N_5  and  C_15
REMARK    7  A    between atoms: C_8  and  C_14
REMARK    8  A    between atoms: C_9  and  C_15
REMARK    9  A    between atoms: C_17  and  C_19
REMARK                            x       y       z     vdW  Elec       q    Type
REMARK                         _______ _______ _______ _____ _____    ______ ____
ROOT
ATOM      4  N   UNL     1      -2.639 -10.663  15.013  0.00  0.00    -0.270 N 
ATOM      6  N   UNL     1      -2.462 -10.654  13.681  0.00  0.00    -0.171 NA
ATOM     14  C   UNL     1      -3.948 -10.703  15.394  0.00  0.00    +0.044 A 
ATOM     16  C   UNL     1      -4.678 -10.720  14.230  0.00  0.00    +0.053 A 
ATOM     17  C   UNL     1      -3.711 -10.689  13.208  0.00  0.00    +0.093 A 
ATOM     18  C   UNL     1      -1.484 -10.629  15.879  0.00  0.00    +0.172 C 
ENDROOT
BRANCH  14   8
ATOM      3  N   UNL     1      -6.563 -10.678  18.129  0.00  0.00    -0.298 NA
ATOM      7  C   UNL     1      -4.440 -12.087  17.587  0.00  0.00    +0.002 C 
ATOM      8  C   UNL     1      -4.388 -10.719  16.851  0.00  0.00    +0.055 C 
ATOM      9  C   UNL     1      -6.956 -12.049  17.710  0.00  0.00    +0.070 C 
ATOM     10  C   UNL     1      -5.731 -12.832  17.188  0.00  0.00    +0.024 C 
ATOM     11  C   UNL     1      -4.542 -11.777  19.095  0.00  0.00    +0.019 C 
ATOM     12  C   UNL     1      -5.766 -10.028  17.059  0.00  0.00    +0.094 C 
ATOM     13  C   UNL     1      -5.707 -10.799  19.334  0.00  0.00    +0.085 C 
BRANCH   9  15
ATOM     15  C   UNL     1      -8.103 -12.042  16.697  0.00  0.00    +0.096 C 
BRANCH  15   5
ATOM      5  N   UNL     1      -7.679 -12.623  15.434  0.00  0.00    -0.329 NA
ATOM     27  H   UNL     1      -8.446 -12.575  14.765  0.00  0.00    +0.118 HD
ATOM     28  H   UNL     1      -6.920 -12.077  15.031  0.00  0.00    +0.118 HD
ENDBRANCH  15   5
ENDBRANCH   9  15
ENDBRANCH  14   8
BRANCH  17  19
ATOM     19  C   UNL     1      -3.957 -10.690  11.789  0.00  0.00    +0.006 A 
ATOM     20  C   UNL     1      -4.550  -9.584  11.184  0.00  0.00    +0.059 A 
ATOM     21  C   UNL     1      -3.603 -11.800  11.021  0.00  0.00    +0.014 A 
ATOM     22  C   UNL     1      -4.790  -9.585   9.809  0.00  0.00    +0.162 A 
ATOM     23  C   UNL     1      -3.842 -11.801   9.647  0.00  0.00    +0.050 A 
ATOM     24  C   UNL     1      -4.435 -10.693   9.041  0.00  0.00    +0.162 A 
BRANCH  22   1
ATOM      1  O   UNL     1      -5.369  -8.497   9.228  0.00  0.00    -0.491 OA
ATOM     25  C   UNL     1      -6.791  -8.407   9.299  0.00  0.00    +0.277 C 
ENDBRANCH  22   1
BRANCH  24   2
ATOM      2  O   UNL     1      -4.663 -10.707   7.698  0.00  0.00    -0.491 OA
ATOM     26  C   UNL     1      -4.533 -11.961   7.031  0.00  0.00    +0.277 C 
ENDBRANCH  24   2
ENDBRANCH  17  19
TORSDOF 6
ENDMDL
MODEL 5
REMARK VINA RESULT:      -6.0     29.037     31.308
REMARK  Name = 45360422
REMARK  9 active torsions:
REMARK  status: ('A' for Active; 'I' for Inactive)
REMARK    1  A    between atoms: O_1  and  C_22
REMARK    2  A    between atoms: O_1  and  C_25
REMARK    3  A    between atoms: O_2  and  C_24
REMARK    4  A    between atoms: O_2  and  C_26
REMARK    5  A    between atoms: N_4  and  C_18
REMARK    6  A    between atoms: N_5  and  C_15
REMARK    7  A    between atoms: C_8  and  C_14
REMARK    8  A    between atoms: C_9  and  C_15
REMARK    9  A    between atoms: C_17  and  C_19
REMARK                            x       y       z     vdW  Elec       q    Type
REMARK                         _______ _______ _______ _____ _____    ______ ____
ROOT
ATOM      4  N   UNL     1      -9.526 -10.572  18.918  0.00  0.00    -0.270 N 
ATOM      6  N   UNL     1     -10.503  -9.734  18.530  0.00  0.00    -0.171 NA
ATOM     14  C   UNL     1      -8.423 -10.537  18.117  0.00  0.00    +0.044 A 
ATOM     16  C   UNL     1      -8.697  -9.615  17.137  0.00  0.00    +0.053 A 
ATOM     17  C   UNL     1      -9.991  -9.152  17.443  0.00  0.00    +0.093 A 
ATOM     18  C   UNL     1      -9.725 -11.394  20.089  0.00  0.00    +0.172 C 
ENDROOT
BRANCH  14   8
ATOM      3  N   UNL     1      -5.381 -12.478  16.976  0.00  0.00    -0.298 NA
ATOM      7  C   UNL     1      -5.882 -10.700  18.812  0.00  0.00    +0.002 C 
ATOM      8  C   UNL     1      -7.193 -11.401  18.361  0.00  0.00    +0.055 C 
ATOM      9  C   UNL     1      -4.740 -11.185  16.620  0.00  0.00    +0.070 C 
ATOM     10  C   UNL     1      -5.194 -10.067  17.584  0.00  0.00    +0.024 C 
ATOM     11  C   UNL     1      -4.943 -11.806  19.338  0.00  0.00    +0.019 C 
ATOM     12  C   UNL     1      -6.845 -12.293  17.135  0.00  0.00    +0.094 C 
ATOM     13  C   UNL     1      -4.825 -12.916  18.279  0.00  0.00    +0.085 C 
BRANCH   9  15
ATOM     15  C   UNL     1      -4.971 -10.804  15.156  0.00  0.00    +0.096 C 
BRANCH  15   5
ATOM      5  N   UNL     1      -5.694  -9.547  15.058  0.00  0.00    -0.329 NA
ATOM     27  H   UNL     1      -5.575  -9.160  14.123  0.00  0.00    +0.118 HD
ATOM     28  H   UNL     1      -6.693  -9.703  15.172  0.00  0.00    +0.118 HD
ENDBRANCH  15   5
ENDBRANCH   9  15
ENDBRANCH  14   8
BRANCH  17  19
ATOM     19  C   UNL     1     -10.747  -8.167  16.714  0.00  0.00    +0.006 A 
ATOM     20  C   UNL     1     -12.138  -8.255  16.662  0.00  0.00    +0.059 A 
ATOM     21  C   UNL     1     -10.089  -7.126  16.060  0.00  0.00    +0.014 A 
ATOM     22  C   UNL     1     -12.871  -7.301  15.955  0.00  0.00    +0.162 A 
ATOM     23  C   UNL     1     -10.822  -6.172  15.354  0.00  0.00    +0.050 A 
ATOM     24  C   UNL     1     -12.213  -6.259  15.302  0.00  0.00    +0.162 A 
BRANCH  22   1
ATOM      1  O   UNL     1     -14.229  -7.396  15.912  0.00  0.00    -0.491 OA
ATOM     25  C   UNL     1     -14.783  -8.339  14.996  0.00  0.00    +0.277 C 
ENDBRANCH  22   1
BRANCH  24   2
ATOM      2  O   UNL     1     -12.917  -5.321  14.609  0.00  0.00    -0.491 OA
ATOM     26  C   UNL     1     -12.380  -4.901  13.357  0.00  0.00    +0.277 C 
ENDBRANCH  24   2
ENDBRANCH  17  19
TORSDOF 6
ENDMDL
MODEL 6
REMARK VINA RESULT:      -5.9     27.773     30.201
REMARK  Name = 45360422
REMARK  9 active torsions:
REMARK  status: ('A' for Active; 'I' for Inactive)
REMARK    1  A    between atoms: O_1  and  C_22
REMARK    2  A    between atoms: O_1  and  C_25
REMARK    3  A    between atoms: O_2  and  C_24
REMARK    4  A    between atoms: O_2  and  C_26
REMARK    5  A    between atoms: N_4  and  C_18
REMARK    6  A    between atoms: N_5  and  C_15
REMARK    7  A    between atoms: C_8  and  C_14
REMARK    8  A    between atoms: C_9  and  C_15
REMARK    9  A    between atoms: C_17  and  C_19
REMARK                            x       y       z     vdW  Elec       q    Type
REMARK                         _______ _______ _______ _____ _____    ______ ____
ROOT
ATOM      4  N   UNL     1      -3.261 -10.568  13.535  0.00  0.00    -0.270 N 
ATOM      6  N   UNL     1      -3.549 -10.658  14.845  0.00  0.00    -0.171 NA
ATOM     14  C   UNL     1      -4.353 -10.364  12.744  0.00  0.00    +0.044 A 
ATOM     16  C   UNL     1      -5.430 -10.319  13.595  0.00  0.00    +0.053 A 
ATOM     17  C   UNL     1      -4.876 -10.504  14.875  0.00  0.00    +0.093 A 
ATOM     18  C   UNL     1      -1.888 -10.692  13.105  0.00  0.00    +0.172 C 
ENDROOT
BRANCH  14   8
ATOM      3  N   UNL     1      -5.678 -10.859   9.234  0.00  0.00    -0.298 NA
ATOM      7  C   UNL     1      -4.668  -8.876  10.588  0.00  0.00    +0.002 C 
ATOM      8  C   UNL     1      -4.268 -10.233  11.230  0.00  0.00    +0.055 C 
ATOM      9  C   UNL     1      -6.735  -9.859   9.536  0.00  0.00    +0.070 C 
ATOM     10  C   UNL     1      -6.207  -8.784  10.509  0.00  0.00    +0.024 C 
ATOM     11  C   UNL     1      -4.141  -8.897   9.138  0.00  0.00    +0.019 C 
ATOM     12  C   UNL     1      -5.065 -11.348  10.495  0.00  0.00    +0.094 C 
ATOM     13  C   UNL     1      -4.624 -10.181   8.441  0.00  0.00    +0.085 C 
BRANCH   9  15
ATOM     15  C   UNL     1      -8.022 -10.510  10.048  0.00  0.00    +0.096 C 
BRANCH  15   5
ATOM      5  N   UNL     1      -9.155  -9.615   9.880  0.00  0.00    -0.329 NA
ATOM     27  H   UNL     1      -9.562  -9.753   8.956  0.00  0.00    +0.118 HD
ATOM     28  H   UNL     1      -9.890  -9.844  10.547  0.00  0.00    +0.118 HD
ENDBRANCH  15   5
ENDBRANCH   9  15
ENDBRANCH  14   8
BRANCH  17  19
ATOM     19  C   UNL     1      -5.589 -10.540  16.126  0.00  0.00    +0.006 A 
ATOM     20  C   UNL     1      -4.976 -11.064  17.263  0.00  0.00    +0.059 A 
ATOM     21  C   UNL     1      -6.894 -10.052  16.199  0.00  0.00    +0.014 A 
ATOM     22  C   UNL     1      -5.667 -11.099  18.475  0.00  0.00    +0.162 A 
ATOM     23  C   UNL     1      -7.585 -10.087  17.410  0.00  0.00    +0.050 A 
ATOM     24  C   UNL     1      -6.970 -10.610  18.548  0.00  0.00    +0.162 A 
BRANCH  22   1
ATOM      1  O   UNL     1      -5.057 -11.613  19.579  0.00  0.00    -0.491 OA
ATOM     25  C   UNL     1      -3.784 -12.226  19.390  0.00  0.00    +0.277 C 
ENDBRANCH  22   1
BRANCH  24   2
ATOM      2  O   UNL     1      -7.656 -10.638  19.725  0.00  0.00    -0.491 OA
ATOM     26  C   UNL     1      -8.916 -11.306  19.726  0.00  0.00    +0.277 C 
ENDBRANCH  24   2
ENDBRANCH  17  19
TORSDOF 6
ENDMDL
MODEL 7
REMARK VINA RESULT:      -5.7     31.118     33.724
REMARK  Name = 45360422
REMARK  9 active torsions:
REMARK  status: ('A' for Active; 'I' for Inactive)
REMARK    1  A    between atoms: O_1  and  C_22
REMARK    2  A    between atoms: O_1  and  C_25
REMARK    3  A    between atoms: O_2  and  C_24
REMARK    4  A    between atoms: O_2  and  C_26
REMARK    5  A    between atoms: N_4  and  C_18
REMARK    6  A    between atoms: N_5  and  C_15
REMARK    7  A    between atoms: C_8  and  C_14
REMARK    8  A    between atoms: C_9  and  C_15
REMARK    9  A    between atoms: C_17  and  C_19
REMARK                            x       y       z     vdW  Elec       q    Type
REMARK                         _______ _______ _______ _____ _____    ______ ____
ROOT
ATOM      4  N   UNL     1     -14.413   5.079  34.089  0.00  0.00    -0.270 N 
ATOM      6  N   UNL     1     -14.633   3.926  33.434  0.00  0.00    -0.171 NA
ATOM     14  C   UNL     1     -14.530   6.189  33.305  0.00  0.00    +0.044 A 
ATOM     16  C   UNL     1     -14.847   5.731  32.050  0.00  0.00    +0.053 A 
ATOM     17  C   UNL     1     -14.898   4.331  32.189  0.00  0.00    +0.093 A 
ATOM     18  C   UNL     1     -14.085   5.040  35.495  0.00  0.00    +0.172 C 
ENDROOT
BRANCH  14   8
ATOM      3  N   UNL     1     -12.597   9.428  33.606  0.00  0.00    -0.298 NA
ATOM      7  C   UNL     1     -15.070   8.766  33.122  0.00  0.00    +0.002 C 
ATOM      8  C   UNL     1     -14.323   7.602  33.831  0.00  0.00    +0.055 C 
ATOM      9  C   UNL     1     -12.931   9.712  32.185  0.00  0.00    +0.070 C 
ATOM     10  C   UNL     1     -14.318   9.138  31.825  0.00  0.00    +0.024 C 
ATOM     11  C   UNL     1     -14.985   9.987  34.061  0.00  0.00    +0.019 C 
ATOM     12  C   UNL     1     -12.818   7.991  33.903  0.00  0.00    +0.094 C 
ATOM     13  C   UNL     1     -13.517  10.223  34.455  0.00  0.00    +0.085 C 
BRANCH   9  15
ATOM     15  C   UNL     1     -11.845   9.224  31.223  0.00  0.00    +0.096 C 
BRANCH  15   5
ATOM      5  N   UNL     1     -11.840  10.017  30.005  0.00  0.00    -0.329 NA
ATOM     27  H   UNL     1     -12.799  10.248  29.748  0.00  0.00    +0.118 HD
ATOM     28  H   UNL     1     -11.369  10.906  30.163  0.00  0.00    +0.118 HD
ENDBRANCH  15   5
ENDBRANCH   9  15
ENDBRANCH  14   8
BRANCH  17  19
ATOM     19  C   UNL     1     -15.194   3.373  31.155  0.00  0.00    +0.006 A 
ATOM     20  C   UNL     1     -14.829   2.037  31.318  0.00  0.00    +0.059 A 
ATOM     21  C   UNL     1     -15.842   3.782  29.990  0.00  0.00    +0.014 A 
ATOM     22  C   UNL     1     -15.114   1.109  30.316  0.00  0.00    +0.162 A 
ATOM     23  C   UNL     1     -16.128   2.854  28.988  0.00  0.00    +0.050 A 
ATOM     24  C   UNL     1     -15.764   1.517  29.152  0.00  0.00    +0.162 A 
BRANCH  22   1
ATOM      1  O   UNL     1     -14.755  -0.194  30.487  0.00  0.00    -0.491 OA
ATOM     25  C   UNL     1     -13.531  -0.612  29.885  0.00  0.00    +0.277 C 
ENDBRANCH  22   1
BRANCH  24   2
ATOM      2  O   UNL     1     -16.049   0.620  28.166  0.00  0.00    -0.491 OA
ATOM     26  C   UNL     1     -16.739   1.114  27.020  0.00  0.00    +0.277 C 
ENDBRANCH  24   2
ENDBRANCH  17  19
TORSDOF 6
ENDMDL
MODEL 8
REMARK VINA RESULT:      -5.6     32.375     34.386
REMARK  Name = 45360422
REMARK  9 active torsions:
REMARK  status: ('A' for Active; 'I' for Inactive)
REMARK    1  A    between atoms: O_1  and  C_22
REMARK    2  A    between atoms: O_1  and  C_25
REMARK    3  A    between atoms: O_2  and  C_24
REMARK    4  A    between atoms: O_2  and  C_26
REMARK    5  A    between atoms: N_4  and  C_18
REMARK    6  A    between atoms: N_5  and  C_15
REMARK    7  A    between atoms: C_8  and  C_14
REMARK    8  A    between atoms: C_9  and  C_15
REMARK    9  A    between atoms: C_17  and  C_19
REMARK                            x       y       z     vdW  Elec       q    Type
REMARK                         _______ _______ _______ _____ _____    ______ ____
ROOT
ATOM      4  N   UNL     1     -15.642   0.943  29.681  0.00  0.00    -0.270 N 
ATOM      6  N   UNL     1     -16.041   0.716  28.418  0.00  0.00    -0.171 NA
ATOM     14  C   UNL     1     -15.380   2.255  29.947  0.00  0.00    +0.044 A 
ATOM     16  C   UNL     1     -15.623   2.933  28.778  0.00  0.00    +0.053 A 
ATOM     17  C   UNL     1     -16.029   1.935  27.871  0.00  0.00    +0.093 A 
ATOM     18  C   UNL     1     -15.530  -0.168  30.596  0.00  0.00    +0.172 C 
ENDROOT
BRANCH  14   8
ATOM      3  N   UNL     1     -14.219   4.939  32.349  0.00  0.00    -0.298 NA
ATOM      7  C   UNL     1     -15.987   3.027  32.397  0.00  0.00    +0.002 C 
ATOM      8  C   UNL     1     -14.913   2.748  31.310  0.00  0.00    +0.055 C 
ATOM      9  C   UNL     1     -15.590   5.513  32.307  0.00  0.00    +0.070 C 
ATOM     10  C   UNL     1     -16.642   4.398  32.126  0.00  0.00    +0.024 C 
ATOM     11  C   UNL     1     -15.240   3.139  33.743  0.00  0.00    +0.019 C 
ATOM     12  C   UNL     1     -14.018   4.016  31.204  0.00  0.00    +0.094 C 
ATOM     13  C   UNL     1     -14.093   4.156  33.602  0.00  0.00    +0.085 C 
BRANCH   9  15
ATOM     15  C   UNL     1     -15.730   6.608  31.246  0.00  0.00    +0.096 C 
BRANCH  15   5
ATOM      5  N   UNL     1     -16.691   6.219  30.228  0.00  0.00    -0.329 NA
ATOM     27  H   UNL     1     -17.075   5.303  30.456  0.00  0.00    +0.118 HD
ATOM     28  H   UNL     1     -17.482   6.861  30.223  0.00  0.00    +0.118 HD
ENDBRANCH  15   5
ENDBRANCH   9  15
ENDBRANCH  14   8
BRANCH  17  19
ATOM     19  C   UNL     1     -16.402   2.123  26.493  0.00  0.00    +0.006 A 
ATOM     20  C   UNL     1     -16.052   3.300  25.831  0.00  0.00    +0.059 A 
ATOM     21  C   UNL     1     -17.115   1.130  25.821  0.00  0.00    +0.014 A 
ATOM     22  C   UNL     1     -16.413   3.483  24.496  0.00  0.00    +0.162 A 
ATOM     23  C   UNL     1     -17.476   1.314  24.486  0.00  0.00    +0.050 A 
ATOM     24  C   UNL     1     -17.125   2.490  23.824  0.00  0.00    +0.162 A 
BRANCH  22   1
ATOM      1  O   UNL     1     -16.065   4.636  23.859  0.00  0.00    -0.491 OA
ATOM     25  C   UNL     1     -14.685   4.811  23.546  0.00  0.00    +0.277 C 
ENDBRANCH  22   1
BRANCH  24   2
ATOM      2  O   UNL     1     -17.484   2.656  22.520  0.00  0.00    -0.491 OA
ATOM     26  C   UNL     1     -18.350   1.674  21.956  0.00  0.00    +0.277 C 
ENDBRANCH  24   2
ENDBRANCH  17  19
TORSDOF 6
ENDMDL
MODEL 9
REMARK VINA RESULT:      -5.6     12.498     15.008
REMARK  Name = 45360422
REMARK  9 active torsions:
REMARK  status: ('A' for Active; 'I' for Inactive)
REMARK    1  A    between atoms: O_1  and  C_22
REMARK    2  A    between atoms: O_1  and  C_25
REMARK    3  A    between atoms: O_2  and  C_24
REMARK    4  A    between atoms: O_2  and  C_26
REMARK    5  A    between atoms: N_4  and  C_18
REMARK    6  A    between atoms: N_5  and  C_15
REMARK    7  A    between atoms: C_8  and  C_14
REMARK    8  A    between atoms: C_9  and  C_15
REMARK    9  A    between atoms: C_17  and  C_19
REMARK                            x       y       z     vdW  Elec       q    Type
REMARK                         _______ _______ _______ _____ _____    ______ ____
ROOT
ATOM      4  N   UNL     1      11.996  10.212   7.504  0.00  0.00    -0.270 N 
ATOM      6  N   UNL     1      11.900  11.099   8.509  0.00  0.00    -0.171 NA
ATOM     14  C   UNL     1      10.899   9.414   7.367  0.00  0.00    +0.044 A 
ATOM     16  C   UNL     1      10.024   9.805   8.351  0.00  0.00    +0.053 A 
ATOM     17  C   UNL     1      10.692  10.847   9.021  0.00  0.00    +0.093 A 
ATOM     18  C   UNL     1      13.197  10.183   6.702  0.00  0.00    +0.172 C 
ENDROOT
BRANCH  14   8
ATOM      3  N   UNL     1      10.803   5.814   6.202  0.00  0.00    -0.298 NA
ATOM      7  C   UNL     1       9.367   7.949   5.794  0.00  0.00    +0.002 C 
ATOM      8  C   UNL     1      10.785   8.335   6.299  0.00  0.00    +0.055 C 
ATOM      9  C   UNL     1       9.483   5.675   6.872  0.00  0.00    +0.070 C 
ATOM     10  C   UNL     1       8.701   7.005   6.818  0.00  0.00    +0.024 C 
ATOM     11  C   UNL     1       9.562   7.142   4.493  0.00  0.00    +0.019 C 
ATOM     12  C   UNL     1      11.506   7.019   6.709  0.00  0.00    +0.094 C 
ATOM     13  C   UNL     1      10.558   5.998   4.751  0.00  0.00    +0.085 C 
BRANCH   9  15
ATOM     15  C   UNL     1       9.610   5.145   8.302  0.00  0.00    +0.096 C 
BRANCH  15   5
ATOM      5  N   UNL     1      10.291   3.861   8.319  0.00  0.00    -0.329 NA
ATOM     27  H   UNL     1      11.296   4.012   8.380  0.00  0.00    +0.118 HD
ATOM     28  H   UNL     1      10.034   3.335   9.152  0.00  0.00    +0.118 HD
ENDBRANCH  15   5
ENDBRANCH   9  15
ENDBRANCH  14   8
BRANCH  17  19
ATOM     19  C   UNL     1      10.201  11.603  10.144  0.00  0.00    +0.006 A 
ATOM     20  C   UNL     1       8.921  12.156  10.105  0.00  0.00    +0.059 A 
ATOM     21  C   UNL     1      11.005  11.784  11.269  0.00  0.00    +0.014 A 
ATOM     22  C   UNL     1       8.445  12.890  11.192  0.00  0.00    +0.162 A 
ATOM     23  C   UNL     1      10.529  12.518  12.356  0.00  0.00    +0.050 A 
ATOM     24  C   UNL     1       9.249  13.070  12.317  0.00  0.00    +0.162 A 
BRANCH  22   1
ATOM      1  O   UNL     1       7.193  13.425  11.144  0.00  0.00    -0.491 OA
ATOM     25  C   UNL     1       6.565  13.486   9.865  0.00  0.00    +0.277 C 
ENDBRANCH  22   1
BRANCH  24   2
ATOM      2  O   UNL     1       8.796  13.784  13.386  0.00  0.00    -0.491 OA
ATOM     26  C   UNL     1       9.357  15.079  13.586  0.00  0.00    +0.277 C 
ENDBRANCH  24   2
ENDBRANCH  17  19
TORSDOF 6
ENDMDL
MODEL 10
REMARK VINA RESULT:      -5.5     27.790     30.465
REMARK  Name = 45360422
REMARK  9 active torsions:
REMARK  status: ('A' for Active; 'I' for Inactive)
REMARK    1  A    between atoms: O_1  and  C_22
REMARK    2  A    between atoms: O_1  and  C_25
REMARK    3  A    between atoms: O_2  and  C_24
REMARK    4  A    between atoms: O_2  and  C_26
REMARK    5  A    between atoms: N_4  and  C_18
REMARK    6  A    between atoms: N_5  and  C_15
REMARK    7  A    between atoms: C_8  and  C_14
REMARK    8  A    between atoms: C_9  and  C_15
REMARK    9  A    between atoms: C_17  and  C_19
REMARK                            x       y       z     vdW  Elec       q    Type
REMARK                         _______ _______ _______ _____ _____    ______ ____
ROOT
ATOM      4  N   UNL     1     -12.652  10.292  21.546  0.00  0.00    -0.270 N 
ATOM      6  N   UNL     1     -13.385   9.393  22.225  0.00  0.00    -0.171 NA
ATOM     14  C   UNL     1     -12.136   9.812  20.378  0.00  0.00    +0.044 A 
ATOM     16  C   UNL     1     -12.560   8.509  20.287  0.00  0.00    +0.053 A 
ATOM     17  C   UNL     1     -13.326   8.306  21.451  0.00  0.00    +0.093 A 
ATOM     18  C   UNL     1     -12.482  11.619  22.090  0.00  0.00    +0.172 C 
ENDROOT
BRANCH  14   8
ATOM      3  N   UNL     1      -9.943  10.294  17.332  0.00  0.00    -0.298 NA
ATOM      7  C   UNL     1     -11.985  11.528  18.378  0.00  0.00    +0.002 C 
ATOM      8  C   UNL     1     -11.274  10.651  19.446  0.00  0.00    +0.055 C 
ATOM      9  C   UNL     1     -11.147  10.094  16.484  0.00  0.00    +0.070 C 
ATOM     10  C   UNL     1     -12.408  10.639  17.189  0.00  0.00    +0.024 C 
ATOM     11  C   UNL     1     -10.933  12.525  17.849  0.00  0.00    +0.019 C 
ATOM     12  C   UNL     1     -10.202   9.798  18.707  0.00  0.00    +0.094 C 
ATOM     13  C   UNL     1      -9.678  11.751  17.408  0.00  0.00    +0.085 C 
BRANCH   9  15
ATOM     15  C   UNL     1     -11.321   8.635  16.054  0.00  0.00    +0.096 C 
BRANCH  15   5
ATOM      5  N   UNL     1     -12.568   8.091  16.565  0.00  0.00    -0.329 NA
ATOM     27  H   UNL     1     -13.237   8.847  16.700  0.00  0.00    +0.118 HD
ATOM     28  H   UNL     1     -12.987   7.463  15.882  0.00  0.00    +0.118 HD
ENDBRANCH  15   5
ENDBRANCH   9  15
ENDBRANCH  14   8
BRANCH  17  19
ATOM     19  C   UNL     1     -14.000   7.094  21.838  0.00  0.00    +0.006 A 
ATOM     20  C   UNL     1     -15.346   7.130  22.200  0.00  0.00    +0.059 A 
ATOM     21  C   UNL     1     -13.305   5.884  21.853  0.00  0.00    +0.014 A 
ATOM     22  C   UNL     1     -15.999   5.955  22.576  0.00  0.00    +0.162 A 
ATOM     23  C   UNL     1     -13.958   4.710  22.229  0.00  0.00    +0.050 A 
ATOM     24  C   UNL     1     -15.305   4.746  22.590  0.00  0.00    +0.162 A 
BRANCH  22   1
ATOM      1  O   UNL     1     -17.314   6.002  22.927  0.00  0.00    -0.491 OA
ATOM     25  C   UNL     1     -18.265   6.062  21.866  0.00  0.00    +0.277 C 
ENDBRANCH  22   1
BRANCH  24   2
ATOM      2  O   UNL     1     -15.931   3.592  22.954  0.00  0.00    -0.491 OA
ATOM     26  C   UNL     1     -15.864   3.225  24.330  0.00  0.00    +0.277 C 
ENDBRANCH  24   2
ENDBRANCH  17  19
TORSDOF 6
ENDMDL
