MODEL 1
REMARK VINA RESULT:      -7.6      0.000      0.000
REMARK  Name = 11886267
REMARK  8 active torsions:
REMARK  status: ('A' for Active; 'I' for Inactive)
REMARK    1  A    between atoms: O_3  and  C_21
REMARK    2  A    between atoms: O_3  and  C_24
REMARK    3  A    between atoms: O_5  and  C_34
REMARK    4  A    between atoms: O_5  and  C_36
REMARK    5  A    between atoms: N_6  and  C_17
REMARK    6  A    between atoms: N_7  and  C_18
REMARK    7  A    between atoms: N_11  and  C_23
REMARK    8  A    between atoms: N_12  and  C_33
REMARK                            x       y       z     vdW  Elec       q    Type
REMARK                         _______ _______ _______ _____ _____    ______ ____
ROOT
ATOM      1  O   UNL     1      13.364  10.438  18.140  0.00  0.00    -0.370 OA
ATOM      2  O   UNL     1      13.052   8.457  15.718  0.00  0.00    -0.370 OA
ATOM     15  C   UNL     1      13.934   8.514  16.853  0.00  0.00    +0.176 C 
ATOM     16  C   UNL     1      14.246   9.976  17.105  0.00  0.00    +0.172 C 
ATOM     17  C   UNL     1      13.200   8.056  18.099  0.00  0.00    +0.171 C 
ATOM     18  C   UNL     1      13.921  10.658  15.796  0.00  0.00    +0.131 C 
ATOM     19  C   UNL     1      12.570   9.344  18.618  0.00  0.00    +0.190 C 
ATOM     20  C   UNL     1      12.806   9.788  15.245  0.00  0.00    +0.185 C 
ENDROOT
BRANCH  18   7
ATOM      4  O   UNL     1      16.240  12.328  16.006  0.00  0.00    -0.252 OA
ATOM      7  N   UNL     1      15.062  10.666  14.913  0.00  0.00    -0.292 N 
ATOM     11  N   UNL     1      17.108  11.300  14.083  0.00  0.00    -0.269 N 
ATOM     22  C   UNL     1      16.160  11.518  15.087  0.00  0.00    +0.304 C 
ATOM     38  H   UNL     1      15.101   9.976  14.167  0.00  0.00    +0.151 HD
ATOM     39  H   UNL     1      16.886  10.587  13.392  0.00  0.00    +0.156 HD
BRANCH  11  23
ATOM     23  C   UNL     1      18.350  11.953  13.906  0.00  0.00    +0.035 A 
ATOM     27  C   UNL     1      18.429  13.096  13.108  0.00  0.00    +0.027 A 
ATOM     28  C   UNL     1      19.496  11.454  14.525  0.00  0.00    +0.027 A 
ATOM     31  C   UNL     1      19.654  13.740  12.932  0.00  0.00    +0.047 A 
ATOM     32  C   UNL     1      20.721  12.098  14.348  0.00  0.00    +0.047 A 
ATOM     34  C   UNL     1      20.799  13.241  13.552  0.00  0.00    +0.120 A 
BRANCH  34   5
ATOM      5  O   UNL     1      21.994  13.868  13.378  0.00  0.00    -0.495 OA
ATOM     36  C   UNL     1      22.819  13.412  12.306  0.00  0.00    +0.277 C 
ENDBRANCH  34   5
ENDBRANCH  11  23
ENDBRANCH  18   7
BRANCH  17   6
ATOM      6  N   UNL     1      14.080   7.369  19.049  0.00  0.00    -0.187 N 
ATOM      8  N   UNL     1      15.357   7.106  18.745  0.00  0.00    -0.041 NA
ATOM      9  N   UNL     1      14.884   6.359  20.791  0.00  0.00    -0.071 NA
ATOM     10  N   UNL     1      15.845   6.488  19.814  0.00  0.00    -0.020 NA
ATOM     21  C   UNL     1      13.800   6.911  20.297  0.00  0.00    +0.342 A 
BRANCH  21   3
ATOM      3  O   UNL     1      12.626   7.015  20.892  0.00  0.00    -0.423 OA
BRANCH   3  24
ATOM     24  C   UNL     1      12.251   8.139  21.615  0.00  0.00    +0.132 A 
ATOM     25  C   UNL     1      13.206   9.093  21.965  0.00  0.00    +0.048 A 
ATOM     26  C   UNL     1      10.919   8.313  21.992  0.00  0.00    +0.048 A 
ATOM     29  C   UNL     1      12.829  10.223  22.691  0.00  0.00    +0.031 A 
ATOM     30  C   UNL     1      10.543   9.443  22.719  0.00  0.00    +0.031 A 
ATOM     33  C   UNL     1      11.498  10.399  23.068  0.00  0.00    +0.067 A 
BRANCH  33  12
ATOM     12  N   UNL     1      11.124  11.518  23.788  0.00  0.00    -0.220 N 
ATOM     13  N   UNL     1      10.924  11.471  25.115  0.00  0.00    -0.154 NA
ATOM     14  N   UNL     1      10.573  13.573  24.286  0.00  0.00    -0.222 NA
ATOM     35  C   UNL     1      10.913  12.771  23.304  0.00  0.00    +0.225 A 
ATOM     37  C   UNL     1      10.593  12.739  25.366  0.00  0.00    +0.245 A 
ENDBRANCH  33  12
ENDBRANCH   3  24
ENDBRANCH  21   3
ENDBRANCH  17   6
TORSDOF 7
ENDMDL
MODEL 2
REMARK VINA RESULT:      -7.6      5.622      7.269
REMARK  Name = 11886267
REMARK  8 active torsions:
REMARK  status: ('A' for Active; 'I' for Inactive)
REMARK    1  A    between atoms: O_3  and  C_21
REMARK    2  A    between atoms: O_3  and  C_24
REMARK    3  A    between atoms: O_5  and  C_34
REMARK    4  A    between atoms: O_5  and  C_36
REMARK    5  A    between atoms: N_6  and  C_17
REMARK    6  A    between atoms: N_7  and  C_18
REMARK    7  A    between atoms: N_11  and  C_23
REMARK    8  A    between atoms: N_12  and  C_33
REMARK                            x       y       z     vdW  Elec       q    Type
REMARK                         _______ _______ _______ _____ _____    ______ ____
ROOT
ATOM      1  O   UNL     1      15.388   7.409  22.351  0.00  0.00    -0.370 OA
ATOM      2  O   UNL     1      17.102   9.156  20.376  0.00  0.00    -0.370 OA
ATOM     15  C   UNL     1      16.085   8.154  20.196  0.00  0.00    +0.176 C 
ATOM     16  C   UNL     1      16.290   7.109  21.275  0.00  0.00    +0.172 C 
ATOM     17  C   UNL     1      14.721   8.747  20.489  0.00  0.00    +0.171 C 
ATOM     18  C   UNL     1      17.722   7.307  21.720  0.00  0.00    +0.131 C 
ATOM     19  C   UNL     1      14.566   8.528  21.990  0.00  0.00    +0.190 C 
ATOM     20  C   UNL     1      17.929   8.792  21.490  0.00  0.00    +0.185 C 
ENDROOT
BRANCH  18   7
ATOM      4  O   UNL     1      20.178   6.116  22.590  0.00  0.00    -0.252 OA
ATOM      7  N   UNL     1      18.631   6.523  20.920  0.00  0.00    -0.292 N 
ATOM     11  N   UNL     1      20.490   5.267  20.425  0.00  0.00    -0.269 N 
ATOM     22  C   UNL     1      19.817   5.973  21.425  0.00  0.00    +0.304 C 
ATOM     38  H   UNL     1      18.368   6.303  19.964  0.00  0.00    +0.151 HD
ATOM     39  H   UNL     1      20.052   5.247  19.506  0.00  0.00    +0.156 HD
BRANCH  11  23
ATOM     23  C   UNL     1      21.717   4.570  20.529  0.00  0.00    +0.035 A 
ATOM     27  C   UNL     1      22.915   5.220  20.230  0.00  0.00    +0.027 A 
ATOM     28  C   UNL     1      21.728   3.234  20.928  0.00  0.00    +0.027 A 
ATOM     31  C   UNL     1      24.125   4.533  20.332  0.00  0.00    +0.047 A 
ATOM     32  C   UNL     1      22.938   2.547  21.029  0.00  0.00    +0.047 A 
ATOM     34  C   UNL     1      24.136   3.196  20.732  0.00  0.00    +0.120 A 
BRANCH  34   5
ATOM      5  O   UNL     1      25.316   2.526  20.828  0.00  0.00    -0.495 OA
ATOM     36  C   UNL     1      25.399   1.490  21.807  0.00  0.00    +0.277 C 
ENDBRANCH  34   5
ENDBRANCH  11  23
ENDBRANCH  18   7
BRANCH  17   6
ATOM      6  N   UNL     1      13.662   8.158  19.664  0.00  0.00    -0.187 N 
ATOM      8  N   UNL     1      13.662   6.852  19.368  0.00  0.00    -0.041 NA
ATOM      9  N   UNL     1      11.899   7.852  18.441  0.00  0.00    -0.071 NA
ATOM     10  N   UNL     1      12.580   6.670  18.620  0.00  0.00    -0.020 NA
ATOM     21  C   UNL     1      12.586   8.760  19.096  0.00  0.00    +0.342 A 
BRANCH  21   3
ATOM      3  O   UNL     1      12.299  10.045  19.198  0.00  0.00    -0.423 OA
BRANCH   3  24
ATOM     24  C   UNL     1      12.089  10.669  20.420  0.00  0.00    +0.132 A 
ATOM     25  C   UNL     1      12.652  11.920  20.669  0.00  0.00    +0.048 A 
ATOM     26  C   UNL     1      11.314  10.045  21.398  0.00  0.00    +0.048 A 
ATOM     29  C   UNL     1      12.441  12.548  21.896  0.00  0.00    +0.031 A 
ATOM     30  C   UNL     1      11.104  10.673  22.625  0.00  0.00    +0.031 A 
ATOM     33  C   UNL     1      11.667  11.925  22.875  0.00  0.00    +0.067 A 
BRANCH  33  12
ATOM     12  N   UNL     1      11.457  12.547  24.092  0.00  0.00    -0.220 N 
ATOM     13  N   UNL     1      10.225  12.858  24.524  0.00  0.00    -0.154 NA
ATOM     14  N   UNL     1      11.827  13.480  26.033  0.00  0.00    -0.222 NA
ATOM     35  C   UNL     1      12.404  12.920  24.994  0.00  0.00    +0.225 A 
ATOM     37  C   UNL     1      10.505  13.420  25.702  0.00  0.00    +0.245 A 
ENDBRANCH  33  12
ENDBRANCH   3  24
ENDBRANCH  21   3
ENDBRANCH  17   6
TORSDOF 7
ENDMDL
MODEL 3
REMARK VINA RESULT:      -7.5      1.720      2.260
REMARK  Name = 11886267
REMARK  8 active torsions:
REMARK  status: ('A' for Active; 'I' for Inactive)
REMARK    1  A    between atoms: O_3  and  C_21
REMARK    2  A    between atoms: O_3  and  C_24
REMARK    3  A    between atoms: O_5  and  C_34
REMARK    4  A    between atoms: O_5  and  C_36
REMARK    5  A    between atoms: N_6  and  C_17
REMARK    6  A    between atoms: N_7  and  C_18
REMARK    7  A    between atoms: N_11  and  C_23
REMARK    8  A    between atoms: N_12  and  C_33
REMARK                            x       y       z     vdW  Elec       q    Type
REMARK                         _______ _______ _______ _____ _____    ______ ____
ROOT
ATOM      1  O   UNL     1      13.420  10.458  18.034  0.00  0.00    -0.370 OA
ATOM      2  O   UNL     1      13.057   8.499  15.601  0.00  0.00    -0.370 OA
ATOM     15  C   UNL     1      13.964   8.546  16.717  0.00  0.00    +0.176 C 
ATOM     16  C   UNL     1      14.279  10.006  16.976  0.00  0.00    +0.172 C 
ATOM     17  C   UNL     1      13.258   8.076  17.975  0.00  0.00    +0.171 C 
ATOM     18  C   UNL     1      13.926  10.701  15.680  0.00  0.00    +0.131 C 
ATOM     19  C   UNL     1      12.638   9.358  18.519  0.00  0.00    +0.190 C 
ATOM     20  C   UNL     1      12.800   9.834  15.146  0.00  0.00    +0.185 C 
ENDROOT
BRANCH  18   7
ATOM      4  O   UNL     1      14.619  12.795  13.853  0.00  0.00    -0.252 OA
ATOM      7  N   UNL     1      15.047  10.718  14.773  0.00  0.00    -0.292 N 
ATOM     11  N   UNL     1      16.462  11.523  13.152  0.00  0.00    -0.269 N 
ATOM     22  C   UNL     1      15.316  11.786  13.908  0.00  0.00    +0.304 C 
ATOM     38  H   UNL     1      15.710   9.948  14.809  0.00  0.00    +0.151 HD
ATOM     39  H   UNL     1      16.926  10.633  13.321  0.00  0.00    +0.156 HD
BRANCH  11  23
ATOM     23  C   UNL     1      17.064  12.346  12.172  0.00  0.00    +0.035 A 
ATOM     27  C   UNL     1      16.556  12.366  10.872  0.00  0.00    +0.027 A 
ATOM     28  C   UNL     1      18.165  13.135  12.503  0.00  0.00    +0.027 A 
ATOM     31  C   UNL     1      17.150  13.176   9.904  0.00  0.00    +0.047 A 
ATOM     32  C   UNL     1      18.759  13.945  11.535  0.00  0.00    +0.047 A 
ATOM     34  C   UNL     1      18.251  13.966  10.236  0.00  0.00    +0.120 A 
BRANCH  34   5
ATOM      5  O   UNL     1      18.831  14.755   9.291  0.00  0.00    -0.495 OA
ATOM     36  C   UNL     1      18.246  14.748   7.989  0.00  0.00    +0.277 C 
ENDBRANCH  34   5
ENDBRANCH  11  23
ENDBRANCH  18   7
BRANCH  17   6
ATOM      6  N   UNL     1      14.159   7.381  18.899  0.00  0.00    -0.187 N 
ATOM      8  N   UNL     1      15.440   7.156  18.579  0.00  0.00    -0.041 NA
ATOM      9  N   UNL     1      14.996   6.339  20.605  0.00  0.00    -0.071 NA
ATOM     10  N   UNL     1      15.948   6.518  19.627  0.00  0.00    -0.020 NA
ATOM     21  C   UNL     1      13.897   6.880  20.134  0.00  0.00    +0.342 A 
BRANCH  21   3
ATOM      3  O   UNL     1      12.725   6.940  20.738  0.00  0.00    -0.423 OA
BRANCH   3  24
ATOM     24  C   UNL     1      12.317   8.045  21.472  0.00  0.00    +0.132 A 
ATOM     25  C   UNL     1      10.966   8.223  21.771  0.00  0.00    +0.048 A 
ATOM     26  C   UNL     1      13.258   8.977  21.911  0.00  0.00    +0.048 A 
ATOM     29  C   UNL     1      10.556   9.334  22.509  0.00  0.00    +0.031 A 
ATOM     30  C   UNL     1      12.847  10.088  22.648  0.00  0.00    +0.031 A 
ATOM     33  C   UNL     1      11.496  10.266  22.948  0.00  0.00    +0.067 A 
BRANCH  33  12
ATOM     12  N   UNL     1      11.090  11.367  23.679  0.00  0.00    -0.220 N 
ATOM     13  N   UNL     1      10.721  12.512  23.086  0.00  0.00    -0.154 NA
ATOM     14  N   UNL     1      10.577  12.661  25.363  0.00  0.00    -0.222 NA
ATOM     35  C   UNL     1      11.002  11.464  25.033  0.00  0.00    +0.225 A 
ATOM     37  C   UNL     1      10.420  13.263  24.148  0.00  0.00    +0.245 A 
ENDBRANCH  33  12
ENDBRANCH   3  24
ENDBRANCH  21   3
ENDBRANCH  17   6
TORSDOF 7
ENDMDL
MODEL 4
REMARK VINA RESULT:      -7.4     28.348     31.222
REMARK  Name = 11886267
REMARK  8 active torsions:
REMARK  status: ('A' for Active; 'I' for Inactive)
REMARK    1  A    between atoms: O_3  and  C_21
REMARK    2  A    between atoms: O_3  and  C_24
REMARK    3  A    between atoms: O_5  and  C_34
REMARK    4  A    between atoms: O_5  and  C_36
REMARK    5  A    between atoms: N_6  and  C_17
REMARK    6  A    between atoms: N_7  and  C_18
REMARK    7  A    between atoms: N_11  and  C_23
REMARK    8  A    between atoms: N_12  and  C_33
REMARK                            x       y       z     vdW  Elec       q    Type
REMARK                         _______ _______ _______ _____ _____    ______ ____
ROOT
ATOM      1  O   UNL     1      -4.832 -10.480  18.287  0.00  0.00    -0.370 OA
ATOM      2  O   UNL     1      -6.457 -11.986  16.054  0.00  0.00    -0.370 OA
ATOM     15  C   UNL     1      -5.303 -11.127  16.040  0.00  0.00    +0.176 C 
ATOM     16  C   UNL     1      -5.524 -10.064  17.099  0.00  0.00    +0.172 C 
ATOM     17  C   UNL     1      -4.083 -11.894  16.514  0.00  0.00    +0.171 C 
ATOM     18  C   UNL     1      -7.018 -10.073  17.332  0.00  0.00    +0.131 C 
ATOM     19  C   UNL     1      -4.119 -11.697  18.025  0.00  0.00    +0.190 C 
ATOM     20  C   UNL     1      -7.381 -11.518  17.046  0.00  0.00    +0.185 C 
ENDROOT
BRANCH  18   7
ATOM      4  O   UNL     1      -9.811  -9.434  17.319  0.00  0.00    -0.252 OA
ATOM      7  N   UNL     1      -7.693  -9.176  16.426  0.00  0.00    -0.292 N 
ATOM     11  N   UNL     1      -9.439  -8.012  15.490  0.00  0.00    -0.269 N 
ATOM     22  C   UNL     1      -9.069  -8.917  16.488  0.00  0.00    +0.304 C 
ATOM     38  H   UNL     1      -7.136  -8.657  15.754  0.00  0.00    +0.151 HD
ATOM     39  H   UNL     1      -8.697  -7.677  14.879  0.00  0.00    +0.156 HD
BRANCH  11  23
ATOM     23  C   UNL     1     -10.728  -7.498  15.218  0.00  0.00    +0.035 A 
ATOM     27  C   UNL     1     -11.585  -8.183  14.356  0.00  0.00    +0.027 A 
ATOM     28  C   UNL     1     -11.142  -6.304  15.810  0.00  0.00    +0.027 A 
ATOM     31  C   UNL     1     -12.856  -7.676  14.087  0.00  0.00    +0.047 A 
ATOM     32  C   UNL     1     -12.414  -5.797  15.541  0.00  0.00    +0.047 A 
ATOM     34  C   UNL     1     -13.270  -6.482  14.680  0.00  0.00    +0.120 A 
BRANCH  34   5
ATOM      5  O   UNL     1     -14.509  -5.987  14.415  0.00  0.00    -0.495 OA
ATOM     36  C   UNL     1     -14.622  -5.057  13.338  0.00  0.00    +0.277 C 
ENDBRANCH  34   5
ENDBRANCH  11  23
ENDBRANCH  18   7
BRANCH  17   6
ATOM      6  N   UNL     1      -2.850 -11.448  15.859  0.00  0.00    -0.187 N 
ATOM      8  N   UNL     1      -1.967 -10.672  16.501  0.00  0.00    -0.041 NA
ATOM      9  N   UNL     1      -1.252 -11.105  14.435  0.00  0.00    -0.071 NA
ATOM     10  N   UNL     1      -0.991 -10.465  15.625  0.00  0.00    -0.020 NA
ATOM     21  C   UNL     1      -2.407 -11.706  14.602  0.00  0.00    +0.342 A 
BRANCH  21   3
ATOM      3  O   UNL     1      -3.049 -12.443  13.713  0.00  0.00    -0.423 OA
BRANCH   3  24
ATOM     24  C   UNL     1      -3.586 -11.911  12.549  0.00  0.00    +0.132 A 
ATOM     25  C   UNL     1      -4.322 -10.728  12.599  0.00  0.00    +0.048 A 
ATOM     26  C   UNL     1      -3.389 -12.560  11.330  0.00  0.00    +0.048 A 
ATOM     29  C   UNL     1      -4.862 -10.193  11.429  0.00  0.00    +0.031 A 
ATOM     30  C   UNL     1      -3.930 -12.026  10.161  0.00  0.00    +0.031 A 
ATOM     33  C   UNL     1      -4.666 -10.842  10.209  0.00  0.00    +0.067 A 
BRANCH  33  12
ATOM     12  N   UNL     1      -5.201 -10.312   9.050  0.00  0.00    -0.220 N 
ATOM     13  N   UNL     1      -6.160  -9.375   9.078  0.00  0.00    -0.154 NA
ATOM     14  N   UNL     1      -5.582  -9.921   6.934  0.00  0.00    -0.222 NA
ATOM     35  C   UNL     1      -4.863 -10.631   7.772  0.00  0.00    +0.225 A 
ATOM     37  C   UNL     1      -6.356  -9.173   7.773  0.00  0.00    +0.245 A 
ENDBRANCH  33  12
ENDBRANCH   3  24
ENDBRANCH  21   3
ENDBRANCH  17   6
TORSDOF 7
ENDMDL
MODEL 5
REMARK VINA RESULT:      -7.4      5.493     10.614
REMARK  Name = 11886267
REMARK  8 active torsions:
REMARK  status: ('A' for Active; 'I' for Inactive)
REMARK    1  A    between atoms: O_3  and  C_21
REMARK    2  A    between atoms: O_3  and  C_24
REMARK    3  A    between atoms: O_5  and  C_34
REMARK    4  A    between atoms: O_5  and  C_36
REMARK    5  A    between atoms: N_6  and  C_17
REMARK    6  A    between atoms: N_7  and  C_18
REMARK    7  A    between atoms: N_11  and  C_23
REMARK    8  A    between atoms: N_12  and  C_33
REMARK                            x       y       z     vdW  Elec       q    Type
REMARK                         _______ _______ _______ _____ _____    ______ ____
ROOT
ATOM      1  O   UNL     1      11.372  11.296  22.971  0.00  0.00    -0.370 OA
ATOM      2  O   UNL     1      14.288  11.798  21.904  0.00  0.00    -0.370 OA
ATOM     15  C   UNL     1      13.484  10.620  22.094  0.00  0.00    +0.176 C 
ATOM     16  C   UNL     1      12.674  10.830  23.358  0.00  0.00    +0.172 C 
ATOM     17  C   UNL     1      12.451  10.517  20.988  0.00  0.00    +0.171 C 
ATOM     18  C   UNL     1      13.419  11.914  24.104  0.00  0.00    +0.131 C 
ATOM     19  C   UNL     1      11.276  11.317  21.540  0.00  0.00    +0.190 C 
ATOM     20  C   UNL     1      14.035  12.719  22.974  0.00  0.00    +0.185 C 
ENDROOT
BRANCH  18   7
ATOM      4  O   UNL     1      13.929  12.612  26.835  0.00  0.00    -0.252 OA
ATOM      7  N   UNL     1      14.436  11.355  24.961  0.00  0.00    -0.292 N 
ATOM     11  N   UNL     1      15.674  11.042  26.871  0.00  0.00    -0.269 N 
ATOM     22  C   UNL     1      14.619  11.754  26.292  0.00  0.00    +0.304 C 
ATOM     38  H   UNL     1      15.003  10.591  24.605  0.00  0.00    +0.151 HD
ATOM     39  H   UNL     1      16.146  10.362  26.279  0.00  0.00    +0.156 HD
BRANCH  11  23
ATOM     23  C   UNL     1      16.172  11.149  28.190  0.00  0.00    +0.035 A 
ATOM     27  C   UNL     1      15.581  10.416  29.220  0.00  0.00    +0.027 A 
ATOM     28  C   UNL     1      17.252  11.989  28.462  0.00  0.00    +0.027 A 
ATOM     31  C   UNL     1      16.071  10.523  30.522  0.00  0.00    +0.047 A 
ATOM     32  C   UNL     1      17.742  12.096  29.764  0.00  0.00    +0.047 A 
ATOM     34  C   UNL     1      17.152  11.362  30.793  0.00  0.00    +0.120 A 
BRANCH  34   5
ATOM      5  O   UNL     1      17.628  11.468  32.063  0.00  0.00    -0.495 OA
ATOM     36  C   UNL     1      18.137  12.739  32.465  0.00  0.00    +0.277 C 
ENDBRANCH  34   5
ENDBRANCH  11  23
ENDBRANCH  18   7
BRANCH  17   6
ATOM      6  N   UNL     1      12.144   9.128  20.633  0.00  0.00    -0.187 N 
ATOM      8  N   UNL     1      11.034   8.528  21.083  0.00  0.00    -0.041 NA
ATOM      9  N   UNL     1      12.208   7.124  19.810  0.00  0.00    -0.071 NA
ATOM     10  N   UNL     1      11.078   7.302  20.575  0.00  0.00    -0.020 NA
ATOM     21  C   UNL     1      12.853   8.266  19.860  0.00  0.00    +0.342 A 
BRANCH  21   3
ATOM      3  O   UNL     1      13.997   8.552  19.266  0.00  0.00    -0.423 OA
BRANCH   3  24
ATOM     24  C   UNL     1      15.211   8.032  19.692  0.00  0.00    +0.132 A 
ATOM     25  C   UNL     1      16.003   8.752  20.586  0.00  0.00    +0.048 A 
ATOM     26  C   UNL     1      15.638   6.788  19.227  0.00  0.00    +0.048 A 
ATOM     29  C   UNL     1      17.223   8.229  21.015  0.00  0.00    +0.031 A 
ATOM     30  C   UNL     1      16.859   6.266  19.655  0.00  0.00    +0.031 A 
ATOM     33  C   UNL     1      17.651   6.985  20.550  0.00  0.00    +0.067 A 
BRANCH  33  12
ATOM     12  N   UNL     1      18.860   6.466  20.975  0.00  0.00    -0.220 N 
ATOM     13  N   UNL     1      19.579   5.631  20.208  0.00  0.00    -0.154 NA
ATOM     14  N   UNL     1      20.613   6.038  22.207  0.00  0.00    -0.222 NA
ATOM     35  C   UNL     1      19.482   6.703  22.161  0.00  0.00    +0.225 A 
ATOM     37  C   UNL     1      20.629   5.401  21.000  0.00  0.00    +0.245 A 
ENDBRANCH  33  12
ENDBRANCH   3  24
ENDBRANCH  21   3
ENDBRANCH  17   6
TORSDOF 7
ENDMDL
MODEL 6
REMARK VINA RESULT:      -7.3     23.735     29.546
REMARK  Name = 11886267
REMARK  8 active torsions:
REMARK  status: ('A' for Active; 'I' for Inactive)
REMARK    1  A    between atoms: O_3  and  C_21
REMARK    2  A    between atoms: O_3  and  C_24
REMARK    3  A    between atoms: O_5  and  C_34
REMARK    4  A    between atoms: O_5  and  C_36
REMARK    5  A    between atoms: N_6  and  C_17
REMARK    6  A    between atoms: N_7  and  C_18
REMARK    7  A    between atoms: N_11  and  C_23
REMARK    8  A    between atoms: N_12  and  C_33
REMARK                            x       y       z     vdW  Elec       q    Type
REMARK                         _______ _______ _______ _____ _____    ______ ____
ROOT
ATOM      1  O   UNL     1     -11.201  11.896  34.796  0.00  0.00    -0.370 OA
ATOM      2  O   UNL     1     -10.529  10.189  32.241  0.00  0.00    -0.370 OA
ATOM     15  C   UNL     1     -10.462   9.936  33.656  0.00  0.00    +0.176 C 
ATOM     16  C   UNL     1     -10.023  11.226  34.321  0.00  0.00    +0.172 C 
ATOM     17  C   UNL     1     -11.854   9.677  34.200  0.00  0.00    +0.171 C 
ATOM     18  C   UNL     1      -9.380  12.021  33.207  0.00  0.00    +0.131 C 
ATOM     19  C   UNL     1     -12.352  11.076  34.549  0.00  0.00    +0.190 C 
ATOM     20  C   UNL     1     -10.150  11.549  31.988  0.00  0.00    +0.185 C 
ENDROOT
BRANCH  18   7
ATOM      4  O   UNL     1      -7.212  13.893  33.236  0.00  0.00    -0.252 OA
ATOM      7  N   UNL     1      -7.976  11.715  33.089  0.00  0.00    -0.292 N 
ATOM     11  N   UNL     1      -5.714  12.104  32.979  0.00  0.00    -0.269 N 
ATOM     22  C   UNL     1      -6.974  12.694  33.113  0.00  0.00    +0.304 C 
ATOM     38  H   UNL     1      -7.695  10.740  33.053  0.00  0.00    +0.151 HD
ATOM     39  H   UNL     1      -5.692  11.091  32.885  0.00  0.00    +0.156 HD
BRANCH  11  23
ATOM     23  C   UNL     1      -4.453  12.744  32.956  0.00  0.00    +0.035 A 
ATOM     27  C   UNL     1      -4.032  13.413  31.806  0.00  0.00    +0.027 A 
ATOM     28  C   UNL     1      -3.630  12.705  34.081  0.00  0.00    +0.027 A 
ATOM     31  C   UNL     1      -2.788  14.043  31.782  0.00  0.00    +0.047 A 
ATOM     32  C   UNL     1      -2.386  13.336  34.058  0.00  0.00    +0.047 A 
ATOM     34  C   UNL     1      -1.965  14.005  32.909  0.00  0.00    +0.120 A 
BRANCH  34   5
ATOM      5  O   UNL     1      -0.751  14.618  32.884  0.00  0.00    -0.495 OA
ATOM     36  C   UNL     1       0.179  14.181  31.894  0.00  0.00    +0.277 C 
ENDBRANCH  34   5
ENDBRANCH  11  23
ENDBRANCH  18   7
BRANCH  17   6
ATOM      6  N   UNL     1     -11.855   8.723  35.313  0.00  0.00    -0.187 N 
ATOM      8  N   UNL     1     -10.901   8.754  36.252  0.00  0.00    -0.041 NA
ATOM      9  N   UNL     1     -12.350   7.115  36.680  0.00  0.00    -0.071 NA
ATOM     10  N   UNL     1     -11.209   7.769  37.087  0.00  0.00    -0.020 NA
ATOM     21  C   UNL     1     -12.732   7.722  35.580  0.00  0.00    +0.342 A 
BRANCH  21   3
ATOM      3  O   UNL     1     -13.788   7.427  34.843  0.00  0.00    -0.423 OA
BRANCH   3  24
ATOM     24  C   UNL     1     -13.928   6.211  34.191  0.00  0.00    +0.132 A 
ATOM     25  C   UNL     1     -14.308   5.076  34.907  0.00  0.00    +0.048 A 
ATOM     26  C   UNL     1     -13.689   6.122  32.820  0.00  0.00    +0.048 A 
ATOM     29  C   UNL     1     -14.450   3.852  34.252  0.00  0.00    +0.031 A 
ATOM     30  C   UNL     1     -13.830   4.899  32.165  0.00  0.00    +0.031 A 
ATOM     33  C   UNL     1     -14.211   3.764  32.881  0.00  0.00    +0.067 A 
BRANCH  33  12
ATOM     12  N   UNL     1     -14.351   2.551  32.231  0.00  0.00    -0.220 N 
ATOM     13  N   UNL     1     -14.027   2.401  30.937  0.00  0.00    -0.154 NA
ATOM     14  N   UNL     1     -14.798   0.448  31.843  0.00  0.00    -0.222 NA
ATOM     35  C   UNL     1     -14.809   1.386  32.762  0.00  0.00    +0.225 A 
ATOM     37  C   UNL     1     -14.316   1.111  30.752  0.00  0.00    +0.245 A 
ENDBRANCH  33  12
ENDBRANCH   3  24
ENDBRANCH  21   3
ENDBRANCH  17   6
TORSDOF 7
ENDMDL
MODEL 7
REMARK VINA RESULT:      -7.2      6.313      9.726
REMARK  Name = 11886267
REMARK  8 active torsions:
REMARK  status: ('A' for Active; 'I' for Inactive)
REMARK    1  A    between atoms: O_3  and  C_21
REMARK    2  A    between atoms: O_3  and  C_24
REMARK    3  A    between atoms: O_5  and  C_34
REMARK    4  A    between atoms: O_5  and  C_36
REMARK    5  A    between atoms: N_6  and  C_17
REMARK    6  A    between atoms: N_7  and  C_18
REMARK    7  A    between atoms: N_11  and  C_23
REMARK    8  A    between atoms: N_12  and  C_33
REMARK                            x       y       z     vdW  Elec       q    Type
REMARK                         _______ _______ _______ _____ _____    ______ ____
ROOT
ATOM      1  O   UNL     1      11.810  13.353  10.198  0.00  0.00    -0.370 OA
ATOM      2  O   UNL     1       9.867  12.288  12.430  0.00  0.00    -0.370 OA
ATOM     15  C   UNL     1      11.173  11.893  11.973  0.00  0.00    +0.176 C 
ATOM     16  C   UNL     1      11.197  12.083  10.469  0.00  0.00    +0.172 C 
ATOM     17  C   UNL     1      12.216  12.860  12.499  0.00  0.00    +0.171 C 
ATOM     18  C   UNL     1       9.738  12.109  10.072  0.00  0.00    +0.131 C 
ATOM     19  C   UNL     1      12.251  13.945  11.428  0.00  0.00    +0.190 C 
ATOM     20  C   UNL     1       9.078  12.699  11.304  0.00  0.00    +0.185 C 
ENDROOT
BRANCH  18   7
ATOM      4  O   UNL     1      10.371  10.477   7.804  0.00  0.00    -0.252 OA
ATOM      7  N   UNL     1       9.245  10.781   9.801  0.00  0.00    -0.292 N 
ATOM     11  N   UNL     1       8.976   8.799   8.670  0.00  0.00    -0.269 N 
ATOM     22  C   UNL     1       9.606  10.047   8.663  0.00  0.00    +0.304 C 
ATOM     38  H   UNL     1       8.661  10.330  10.499  0.00  0.00    +0.151 HD
ATOM     39  H   UNL     1       8.369   8.599   9.461  0.00  0.00    +0.156 HD
BRANCH  11  23
ATOM     23  C   UNL     1       9.079   7.770   7.705  0.00  0.00    +0.035 A 
ATOM     27  C   UNL     1       8.289   7.811   6.556  0.00  0.00    +0.027 A 
ATOM     28  C   UNL     1       9.967   6.713   7.904  0.00  0.00    +0.027 A 
ATOM     31  C   UNL     1       8.388   6.796   5.605  0.00  0.00    +0.047 A 
ATOM     32  C   UNL     1      10.067   5.698   6.953  0.00  0.00    +0.047 A 
ATOM     34  C   UNL     1       9.278   5.739   5.803  0.00  0.00    +0.120 A 
BRANCH  34   5
ATOM      5  O   UNL     1       9.373   4.748   4.876  0.00  0.00    -0.495 OA
ATOM     36  C   UNL     1      10.461   4.818   3.956  0.00  0.00    +0.277 C 
ENDBRANCH  34   5
ENDBRANCH  11  23
ENDBRANCH  18   7
BRANCH  17   6
ATOM      6  N   UNL     1      13.503  12.209  12.764  0.00  0.00    -0.187 N 
ATOM      8  N   UNL     1      14.521  12.310  11.900  0.00  0.00    -0.041 NA
ATOM      9  N   UNL     1      15.119  11.070  13.653  0.00  0.00    -0.071 NA
ATOM     10  N   UNL     1      15.508  11.612  12.449  0.00  0.00    -0.020 NA
ATOM     21  C   UNL     1      13.875  11.453  13.828  0.00  0.00    +0.342 A 
BRANCH  21   3
ATOM      3  O   UNL     1      13.098  11.163  14.856  0.00  0.00    -0.423 OA
BRANCH   3  24
ATOM     24  C   UNL     1      13.534  10.404  15.933  0.00  0.00    +0.132 A 
ATOM     25  C   UNL     1      14.006  11.034  17.084  0.00  0.00    +0.048 A 
ATOM     26  C   UNL     1      13.501   9.011  15.863  0.00  0.00    +0.048 A 
ATOM     29  C   UNL     1      14.444  10.271  18.167  0.00  0.00    +0.031 A 
ATOM     30  C   UNL     1      13.940   8.249  16.946  0.00  0.00    +0.031 A 
ATOM     33  C   UNL     1      14.411   8.878  18.098  0.00  0.00    +0.067 A 
BRANCH  33  12
ATOM     12  N   UNL     1      14.845   8.122  19.171  0.00  0.00    -0.220 N 
ATOM     13  N   UNL     1      14.287   6.940  19.475  0.00  0.00    -0.154 NA
ATOM     14  N   UNL     1      15.973   7.470  20.925  0.00  0.00    -0.222 NA
ATOM     35  C   UNL     1      15.847   8.429  20.038  0.00  0.00    +0.225 A 
ATOM     37  C   UNL     1      15.005   6.587  20.543  0.00  0.00    +0.245 A 
ENDBRANCH  33  12
ENDBRANCH   3  24
ENDBRANCH  21   3
ENDBRANCH  17   6
TORSDOF 7
ENDMDL
MODEL 8
REMARK VINA RESULT:      -7.2     12.402     16.932
REMARK  Name = 11886267
REMARK  8 active torsions:
REMARK  status: ('A' for Active; 'I' for Inactive)
REMARK    1  A    between atoms: O_3  and  C_21
REMARK    2  A    between atoms: O_3  and  C_24
REMARK    3  A    between atoms: O_5  and  C_34
REMARK    4  A    between atoms: O_5  and  C_36
REMARK    5  A    between atoms: N_6  and  C_17
REMARK    6  A    between atoms: N_7  and  C_18
REMARK    7  A    between atoms: N_11  and  C_23
REMARK    8  A    between atoms: N_12  and  C_33
REMARK                            x       y       z     vdW  Elec       q    Type
REMARK                         _______ _______ _______ _____ _____    ______ ____
ROOT
ATOM      1  O   UNL     1       8.655   7.381   6.862  0.00  0.00    -0.370 OA
ATOM      2  O   UNL     1      10.899   5.634   8.204  0.00  0.00    -0.370 OA
ATOM     15  C   UNL     1      10.914   6.761   7.310  0.00  0.00    +0.176 C 
ATOM     16  C   UNL     1       9.745   6.593   6.359  0.00  0.00    +0.172 C 
ATOM     17  C   UNL     1      10.605   8.032   8.078  0.00  0.00    +0.171 C 
ATOM     18  C   UNL     1       9.407   5.121   6.438  0.00  0.00    +0.131 C 
ATOM     19  C   UNL     1       9.083   8.104   8.025  0.00  0.00    +0.190 C 
ATOM     20  C   UNL     1       9.804   4.774   7.861  0.00  0.00    +0.185 C 
ENDROOT
BRANCH  18   7
ATOM      4  O   UNL     1       9.794   5.738   3.667  0.00  0.00    -0.252 OA
ATOM      7  N   UNL     1      10.172   4.357   5.482  0.00  0.00    -0.292 N 
ATOM     11  N   UNL     1      11.105   3.803   3.457  0.00  0.00    -0.269 N 
ATOM     22  C   UNL     1      10.311   4.730   4.139  0.00  0.00    +0.304 C 
ATOM     38  H   UNL     1      10.687   3.546   5.812  0.00  0.00    +0.151 HD
ATOM     39  H   UNL     1      11.458   3.018   3.999  0.00  0.00    +0.156 HD
BRANCH  11  23
ATOM     23  C   UNL     1      11.481   3.819   2.094  0.00  0.00    +0.035 A 
ATOM     27  C   UNL     1      12.740   3.352   1.713  0.00  0.00    +0.027 A 
ATOM     28  C   UNL     1      10.596   4.305   1.131  0.00  0.00    +0.027 A 
ATOM     31  C   UNL     1      13.112   3.370   0.368  0.00  0.00    +0.047 A 
ATOM     32  C   UNL     1      10.969   4.322  -0.213  0.00  0.00    +0.047 A 
ATOM     34  C   UNL     1      12.226   3.854  -0.594  0.00  0.00    +0.120 A 
BRANCH  34   5
ATOM      5  O   UNL     1      12.591   3.873  -1.905  0.00  0.00    -0.495 OA
ATOM     36  C   UNL     1      13.986   3.968  -2.191  0.00  0.00    +0.277 C 
ENDBRANCH  34   5
ENDBRANCH  11  23
ENDBRANCH  18   7
BRANCH  17   6
ATOM      6  N   UNL     1      11.300   9.201   7.533  0.00  0.00    -0.187 N 
ATOM      8  N   UNL     1      10.728  10.412   7.538  0.00  0.00    -0.041 NA
ATOM      9  N   UNL     1      12.756  10.523   6.620  0.00  0.00    -0.071 NA
ATOM     10  N   UNL     1      11.623  11.217   6.979  0.00  0.00    -0.020 NA
ATOM     21  C   UNL     1      12.534   9.278   6.972  0.00  0.00    +0.342 A 
BRANCH  21   3
ATOM      3  O   UNL     1      13.357   8.256   6.817  0.00  0.00    -0.423 OA
BRANCH   3  24
ATOM     24  C   UNL     1      13.939   7.942   5.597  0.00  0.00    +0.132 A 
ATOM     25  C   UNL     1      13.137   7.575   4.517  0.00  0.00    +0.048 A 
ATOM     26  C   UNL     1      15.325   7.995   5.451  0.00  0.00    +0.048 A 
ATOM     29  C   UNL     1      13.721   7.259   3.290  0.00  0.00    +0.031 A 
ATOM     30  C   UNL     1      15.909   7.679   4.224  0.00  0.00    +0.031 A 
ATOM     33  C   UNL     1      15.107   7.312   3.143  0.00  0.00    +0.067 A 
BRANCH  33  12
ATOM     12  N   UNL     1      15.687   7.000   1.927  0.00  0.00    -0.220 N 
ATOM     13  N   UNL     1      16.685   7.733   1.411  0.00  0.00    -0.154 NA
ATOM     14  N   UNL     1      16.131   5.987   0.043  0.00  0.00    -0.222 NA
ATOM     35  C   UNL     1      15.363   5.964   1.108  0.00  0.00    +0.225 A 
ATOM     37  C   UNL     1      16.917   7.078   0.271  0.00  0.00    +0.245 A 
ENDBRANCH  33  12
ENDBRANCH   3  24
ENDBRANCH  21   3
ENDBRANCH  17   6
TORSDOF 7
ENDMDL
MODEL 9
REMARK VINA RESULT:      -7.2     28.823     31.058
REMARK  Name = 11886267
REMARK  8 active torsions:
REMARK  status: ('A' for Active; 'I' for Inactive)
REMARK    1  A    between atoms: O_3  and  C_21
REMARK    2  A    between atoms: O_3  and  C_24
REMARK    3  A    between atoms: O_5  and  C_34
REMARK    4  A    between atoms: O_5  and  C_36
REMARK    5  A    between atoms: N_6  and  C_17
REMARK    6  A    between atoms: N_7  and  C_18
REMARK    7  A    between atoms: N_11  and  C_23
REMARK    8  A    between atoms: N_12  and  C_33
REMARK                            x       y       z     vdW  Elec       q    Type
REMARK                         _______ _______ _______ _____ _____    ______ ____
ROOT
ATOM      1  O   UNL     1      -5.942 -11.924  10.714  0.00  0.00    -0.370 OA
ATOM      2  O   UNL     1      -4.091  -9.543  11.604  0.00  0.00    -0.370 OA
ATOM     15  C   UNL     1      -4.262 -10.897  12.059  0.00  0.00    +0.176 C 
ATOM     16  C   UNL     1      -5.739 -11.222  11.950  0.00  0.00    +0.172 C 
ATOM     17  C   UNL     1      -3.586 -11.854  11.096  0.00  0.00    +0.171 C 
ATOM     18  C   UNL     1      -6.417  -9.871  11.904  0.00  0.00    +0.131 C 
ATOM     19  C   UNL     1      -4.678 -12.138  10.071  0.00  0.00    +0.190 C 
ATOM     20  C   UNL     1      -5.367  -9.006  11.230  0.00  0.00    +0.185 C 
ENDROOT
BRANCH  18   7
ATOM      4  O   UNL     1      -8.683 -10.576  13.508  0.00  0.00    -0.252 OA
ATOM      7  N   UNL     1      -6.718  -9.391  13.230  0.00  0.00    -0.292 N 
ATOM     11  N   UNL     1      -7.879  -9.161  15.199  0.00  0.00    -0.269 N 
ATOM     22  C   UNL     1      -7.852  -9.787  13.949  0.00  0.00    +0.304 C 
ATOM     38  H   UNL     1      -6.042  -8.787  13.690  0.00  0.00    +0.151 HD
ATOM     39  H   UNL     1      -7.109  -8.530  15.410  0.00  0.00    +0.156 HD
BRANCH  11  23
ATOM     23  C   UNL     1      -8.852  -9.295  16.216  0.00  0.00    +0.035 A 
ATOM     27  C   UNL     1      -8.946 -10.486  16.938  0.00  0.00    +0.027 A 
ATOM     28  C   UNL     1      -9.719  -8.238  16.497  0.00  0.00    +0.027 A 
ATOM     31  C   UNL     1      -9.907 -10.619  17.941  0.00  0.00    +0.047 A 
ATOM     32  C   UNL     1     -10.679  -8.372  17.499  0.00  0.00    +0.047 A 
ATOM     34  C   UNL     1     -10.773  -9.561  18.221  0.00  0.00    +0.120 A 
BRANCH  34   5
ATOM      5  O   UNL     1     -11.711  -9.693  19.198  0.00  0.00    -0.495 OA
ATOM     36  C   UNL     1     -11.632 -10.853  20.025  0.00  0.00    +0.277 C 
ENDBRANCH  34   5
ENDBRANCH  11  23
ENDBRANCH  18   7
BRANCH  17   6
ATOM      6  N   UNL     1      -3.042 -13.037  11.768  0.00  0.00    -0.187 N 
ATOM      8  N   UNL     1      -3.016 -14.230  11.158  0.00  0.00    -0.041 NA
ATOM      9  N   UNL     1      -2.151 -14.393  13.206  0.00  0.00    -0.071 NA
ATOM     10  N   UNL     1      -2.469 -15.055  12.042  0.00  0.00    -0.020 NA
ATOM     21  C   UNL     1      -2.514 -13.146  13.014  0.00  0.00    +0.342 A 
BRANCH  21   3
ATOM      3  O   UNL     1      -2.395 -12.149  13.872  0.00  0.00    -0.423 OA
BRANCH   3  24
ATOM     24  C   UNL     1      -3.220 -12.013  14.980  0.00  0.00    +0.132 A 
ATOM     25  C   UNL     1      -2.921 -11.067  15.960  0.00  0.00    +0.048 A 
ATOM     26  C   UNL     1      -4.349 -12.822  15.112  0.00  0.00    +0.048 A 
ATOM     29  C   UNL     1      -3.750 -10.930  17.073  0.00  0.00    +0.031 A 
ATOM     30  C   UNL     1      -5.177 -12.685  16.226  0.00  0.00    +0.031 A 
ATOM     33  C   UNL     1      -4.879 -11.738  17.206  0.00  0.00    +0.067 A 
BRANCH  33  12
ATOM     12  N   UNL     1      -5.701 -11.603  18.309  0.00  0.00    -0.220 N 
ATOM     13  N   UNL     1      -6.440 -12.624  18.770  0.00  0.00    -0.154 NA
ATOM     14  N   UNL     1      -6.737 -10.738  20.028  0.00  0.00    -0.222 NA
ATOM     35  C   UNL     1      -5.883 -10.486  19.063  0.00  0.00    +0.225 A 
ATOM     37  C   UNL     1      -7.048 -12.049  19.810  0.00  0.00    +0.245 A 
ENDBRANCH  33  12
ENDBRANCH   3  24
ENDBRANCH  21   3
ENDBRANCH  17   6
TORSDOF 7
ENDMDL
MODEL 10
REMARK VINA RESULT:      -7.1     12.489     16.662
REMARK  Name = 11886267
REMARK  8 active torsions:
REMARK  status: ('A' for Active; 'I' for Inactive)
REMARK    1  A    between atoms: O_3  and  C_21
REMARK    2  A    between atoms: O_3  and  C_24
REMARK    3  A    between atoms: O_5  and  C_34
REMARK    4  A    between atoms: O_5  and  C_36
REMARK    5  A    between atoms: N_6  and  C_17
REMARK    6  A    between atoms: N_7  and  C_18
REMARK    7  A    between atoms: N_11  and  C_23
REMARK    8  A    between atoms: N_12  and  C_33
REMARK                            x       y       z     vdW  Elec       q    Type
REMARK                         _______ _______ _______ _____ _____    ______ ____
ROOT
ATOM      1  O   UNL     1       8.658   7.574   6.494  0.00  0.00    -0.370 OA
ATOM      2  O   UNL     1      10.999   6.040   7.928  0.00  0.00    -0.370 OA
ATOM     15  C   UNL     1      10.948   7.099   6.956  0.00  0.00    +0.176 C 
ATOM     16  C   UNL     1       9.780   6.805   6.034  0.00  0.00    +0.172 C 
ATOM     17  C   UNL     1      10.584   8.405   7.635  0.00  0.00    +0.171 C 
ATOM     18  C   UNL     1       9.518   5.328   6.223  0.00  0.00    +0.131 C 
ATOM     19  C   UNL     1       9.060   8.398   7.597  0.00  0.00    +0.190 C 
ATOM     20  C   UNL     1       9.944   5.105   7.662  0.00  0.00    +0.185 C 
ENDROOT
BRANCH  18   7
ATOM      4  O   UNL     1       9.855   5.769   3.412  0.00  0.00    -0.252 OA
ATOM      7  N   UNL     1      10.310   4.536   5.315  0.00  0.00    -0.292 N 
ATOM     11  N   UNL     1      11.253   3.886   3.323  0.00  0.00    -0.269 N 
ATOM     22  C   UNL     1      10.423   4.821   3.947  0.00  0.00    +0.304 C 
ATOM     38  H   UNL     1      10.865   3.775   5.695  0.00  0.00    +0.151 HD
ATOM     39  H   UNL     1      11.647   3.158   3.914  0.00  0.00    +0.156 HD
BRANCH  11  23
ATOM     23  C   UNL     1      11.619   3.825   1.958  0.00  0.00    +0.035 A 
ATOM     27  C   UNL     1      12.903   3.413   1.598  0.00  0.00    +0.027 A 
ATOM     28  C   UNL     1      10.698   4.178   0.972  0.00  0.00    +0.027 A 
ATOM     31  C   UNL     1      13.265   3.355   0.252  0.00  0.00    +0.047 A 
ATOM     32  C   UNL     1      11.059   4.119  -0.374  0.00  0.00    +0.047 A 
ATOM     34  C   UNL     1      12.342   3.707  -0.734  0.00  0.00    +0.120 A 
BRANCH  34   5
ATOM      5  O   UNL     1      12.696   3.652  -2.046  0.00  0.00    -0.495 OA
ATOM     36  C   UNL     1      12.187   2.560  -2.812  0.00  0.00    +0.277 C 
ENDBRANCH  34   5
ENDBRANCH  11  23
ENDBRANCH  18   7
BRANCH  17   6
ATOM      6  N   UNL     1      11.215   9.565   6.998  0.00  0.00    -0.187 N 
ATOM      8  N   UNL     1      10.484  10.598   6.560  0.00  0.00    -0.041 NA
ATOM      9  N   UNL     1      12.647  10.963   6.163  0.00  0.00    -0.071 NA
ATOM     10  N   UNL     1      11.365  11.450   6.051  0.00  0.00    -0.020 NA
ATOM     21  C   UNL     1      12.531   9.795   6.753  0.00  0.00    +0.342 A 
BRANCH  21   3
ATOM      3  O   UNL     1      13.512   8.967   7.064  0.00  0.00    -0.423 OA
BRANCH   3  24
ATOM     24  C   UNL     1      14.616   8.775   6.245  0.00  0.00    +0.132 A 
ATOM     25  C   UNL     1      15.708   9.638   6.336  0.00  0.00    +0.048 A 
ATOM     26  C   UNL     1      14.633   7.720   5.333  0.00  0.00    +0.048 A 
ATOM     29  C   UNL     1      16.819   9.445   5.513  0.00  0.00    +0.031 A 
ATOM     30  C   UNL     1      15.743   7.529   4.510  0.00  0.00    +0.031 A 
ATOM     33  C   UNL     1      16.837   8.390   4.601  0.00  0.00    +0.067 A 
BRANCH  33  12
ATOM     12  N   UNL     1      17.937   8.199   3.786  0.00  0.00    -0.220 N 
ATOM     13  N   UNL     1      17.852   8.297   2.450  0.00  0.00    -0.154 NA
ATOM     14  N   UNL     1      19.980   7.797   3.123  0.00  0.00    -0.222 NA
ATOM     35  C   UNL     1      19.205   7.901   4.178  0.00  0.00    +0.225 A 
ATOM     37  C   UNL     1      19.115   8.045   2.097  0.00  0.00    +0.245 A 
ENDBRANCH  33  12
ENDBRANCH   3  24
ENDBRANCH  21   3
ENDBRANCH  17   6
TORSDOF 7
ENDMDL
