REMARK  Name = 26763474
REMARK  10 active torsions:
REMARK  status: ('A' for Active; 'I' for Inactive)
REMARK    1  A    between atoms: S_1  and  N_9
REMARK    2  A    between atoms: S_1  and  C_23
REMARK    3  A    between atoms: N_9  and  C_14
REMARK    4  A    between atoms: N_10  and  C_22
REMARK    5  A    between atoms: N_11  and  C_29
REMARK    6  A    between atoms: C_16  and  C_19
REMARK    7  A    between atoms: C_20  and  C_21
REMARK    8  A    between atoms: C_22  and  C_25
REMARK    9  A    between atoms: C_22  and  C_28
REMARK   10  A    between atoms: C_26  and  C_32
REMARK                            x       y       z     vdW  Elec       q    Type
REMARK                         _______ _______ _______ _____ _____    ______ ____
ROOT
ATOM      4  O   UNL     1      -2.854   2.651   1.847  0.00  0.00    -0.268 OA
ATOM      8  N   UNL     1      -0.992   1.597   0.888  0.00  0.00    -0.285 N 
ATOM     14  C   UNL     1       1.877   1.572   0.393  0.00  0.00    +0.080 C 
ATOM     15  C   UNL     1       0.902   1.012  -0.644  0.00  0.00    +0.052 C 
ATOM     16  C   UNL     1      -0.441   0.594  -0.040  0.00  0.00    +0.164 C 
ATOM     17  C   UNL     1       1.215   2.677   1.212  0.00  0.00    +0.039 C 
ATOM     18  C   UNL     1      -0.062   2.168   1.869  0.00  0.00    +0.110 C 
ATOM     20  C   UNL     1      -2.352   1.920   0.994  0.00  0.00    +0.265 C 
ENDROOT
BRANCH  20  21
ATOM     11  N   UNL     1      -3.619   1.928  -1.181  0.00  0.00    -0.262 N 
ATOM     12  N   UNL     1      -4.488   1.203  -1.905  0.00  0.00    -0.176 NA
ATOM     21  C   UNL     1      -3.278   1.352   0.008  0.00  0.00    +0.123 A 
ATOM     24  C   UNL     1      -3.972   0.168   0.064  0.00  0.00    +0.057 A 
ATOM     26  C   UNL     1      -4.700   0.129  -1.140  0.00  0.00    +0.061 A 
ATOM     29  C   UNL     1      -3.147   3.191  -1.700  0.00  0.00    +0.173 C 
ATOM     32  C   UNL     1      -5.618  -0.927  -1.599  0.00  0.00    +0.067 C 
ENDBRANCH  20  21
BRANCH  16  19
ATOM      3  O   UNL     1      -0.112  -0.722   1.927  0.00  0.00    -0.274 OA
ATOM     10  N   UNL     1      -0.513  -1.801  -0.096  0.00  0.00    -0.303 N 
ATOM     19  C   UNL     1      -0.341  -0.696   0.721  0.00  0.00    +0.234 C 
ATOM     34  H   UNL     1      -0.752  -1.660  -1.074  0.00  0.00    +0.149 HD
BRANCH  10  22
ATOM     22  C   UNL     1      -0.441  -3.161   0.387  0.00  0.00    +0.156 C 
ATOM     25  C   UNL     1       0.052  -4.103  -0.699  0.00  0.00    +0.038 C 
BRANCH  22  28
ATOM      7  O   UNL     1      -2.870  -3.176   0.359  0.00  0.00    -0.274 OA
ATOM     13  N   UNL     1      -1.782  -4.455   1.927  0.00  0.00    -0.328 N 
ATOM     28  C   UNL     1      -1.824  -3.566   0.873  0.00  0.00    +0.231 C 
ATOM     35  H   UNL     1      -0.910  -4.785   2.328  0.00  0.00    +0.145 HD
ATOM     36  H   UNL     1      -2.636  -4.815   2.339  0.00  0.00    +0.145 HD
ENDBRANCH  22  28
ENDBRANCH  10  22
ENDBRANCH  16  19
BRANCH  14   9
ATOM      9  N   UNL     1       3.069   2.122  -0.297  0.00  0.00    -0.186 NA
ATOM     33  H   UNL     1       2.897   2.547  -1.217  0.00  0.00    +0.148 HD
BRANCH   9   1
ATOM      1  S   UNL     1       4.606   1.482   0.032  0.00  0.00    +0.065 S 
ATOM      5  O   UNL     1       4.850   1.521   1.462  0.00  0.00    -0.153 OA
ATOM      6  O   UNL     1       5.563   2.067  -0.887  0.00  0.00    -0.153 OA
BRANCH   1  23
ATOM      2  S   UNL     1       4.246  -0.470  -2.125  0.00  0.00    -0.077 S 
ATOM     23  C   UNL     1       4.405  -0.210  -0.440  0.00  0.00    +0.142 A 
ATOM     27  C   UNL     1       4.348  -1.387   0.273  0.00  0.00    +0.036 A 
ATOM     30  C   UNL     1       4.172  -2.518  -0.576  0.00  0.00    +0.010 A 
ATOM     31  C   UNL     1       4.101  -2.162  -1.905  0.00  0.00    +0.047 A 
ENDBRANCH   1  23
ENDBRANCH   9   1
ENDBRANCH  14   9
TORSDOF 7
