REMARK  Name = 11866028
REMARK  7 active torsions:
REMARK  status: ('A' for Active; 'I' for Inactive)
REMARK    1  A    between atoms: O_5  and  C_23
REMARK    2  A    between atoms: O_5  and  C_28
REMARK    3  A    between atoms: O_6  and  C_32
REMARK    4  A    between atoms: N_9  and  C_11
REMARK    5  A    between atoms: C_19  and  C_23
REMARK    6  A    between atoms: C_22  and  C_25
REMARK    7  A    between atoms: C_28  and  C_32
REMARK                            x       y       z     vdW  Elec       q    Type
REMARK                         _______ _______ _______ _____ _____    ______ ____
ROOT
ATOM      2  O   UNL     1      -1.049   3.792  -1.724  0.00  0.00    -0.273 OA
ATOM      3  O   UNL     1       1.677   1.804   2.322  0.00  0.00    -0.270 OA
ATOM      8  N   UNL     1      -0.186   2.219   1.039  0.00  0.00    -0.284 N 
ATOM     10  N   UNL     1       0.810   2.476  -1.717  0.00  0.00    -0.283 N 
ATOM     11  C   UNL     1      -2.425   2.389   0.296  0.00  0.00    +0.104 C 
ATOM     12  C   UNL     1      -1.008   1.981  -0.133  0.00  0.00    +0.183 C 
ATOM     13  C   UNL     1      -2.180   3.424   1.396  0.00  0.00    +0.043 C 
ATOM     14  C   UNL     1      -0.923   2.916   2.083  0.00  0.00    +0.111 C 
ATOM     15  C   UNL     1      -0.422   2.855  -1.226  0.00  0.00    +0.240 C 
ATOM     16  C   UNL     1       1.080   1.715   1.249  0.00  0.00    +0.249 C 
ATOM     17  C   UNL     1       1.767   1.052   0.110  0.00  0.00    +0.059 A 
ATOM     18  C   UNL     1       1.686   1.485  -1.224  0.00  0.00    +0.046 A 
ATOM     20  C   UNL     1       2.676   0.035   0.453  0.00  0.00    +0.023 A 
ATOM     21  C   UNL     1       2.568   0.933  -2.170  0.00  0.00    +0.024 A 
ATOM     22  C   UNL     1       3.509  -0.534  -0.509  0.00  0.00    -0.014 A 
ATOM     24  C   UNL     1       3.464  -0.076  -1.819  0.00  0.00    +0.010 A 
ATOM     34  H   UNL     1       1.082   2.912  -2.595  0.00  0.00    +0.155 HD
ENDROOT
BRANCH  22  25
ATOM      1  F   UNL     1       6.115   0.017   0.387  0.00  0.00    -0.205 F 
ATOM     25  C   UNL     1       4.435  -1.583  -0.139  0.00  0.00    +0.017 A 
ATOM     26  C   UNL     1       5.720  -1.262   0.298  0.00  0.00    +0.131 A 
ATOM     27  C   UNL     1       4.040  -2.918  -0.225  0.00  0.00    +0.011 A 
ATOM     29  C   UNL     1       6.611  -2.276   0.650  0.00  0.00    +0.039 A 
ATOM     30  C   UNL     1       4.931  -3.932   0.127  0.00  0.00    +0.001 A 
ATOM     31  C   UNL     1       6.216  -3.612   0.565  0.00  0.00    +0.003 A 
ENDBRANCH  22  25
BRANCH  11   9
ATOM      4  O   UNL     1      -4.207   0.649  -1.185  0.00  0.00    -0.273 OA
ATOM      9  N   UNL     1      -3.158   1.252   0.802  0.00  0.00    -0.308 N 
ATOM     19  C   UNL     1      -3.991   0.475   0.012  0.00  0.00    +0.239 C 
ATOM     33  H   UNL     1      -3.015   0.983   1.772  0.00  0.00    +0.149 HD
BRANCH  19  23
ATOM     23  C   UNL     1      -4.628  -0.646   0.804  0.00  0.00    +0.256 C 
BRANCH  23   5
ATOM      5  O   UNL     1      -5.461  -1.431  -0.024  0.00  0.00    -0.359 OA
BRANCH   5  28
ATOM     28  C   UNL     1      -6.074  -2.496   0.697  0.00  0.00    +0.280 C 
BRANCH  28  32
ATOM      7  O   UNL     1      -7.135  -3.070  -1.413  0.00  0.00    -0.248 OA
ATOM     32  C   UNL     1      -6.947  -3.299  -0.227  0.00  0.00    +0.331 C 
BRANCH  32   6
ATOM      6  O   UNL     1      -7.512  -4.334   0.444  0.00  0.00    -0.479 OA
ATOM     35  H   UNL     1      -8.088  -4.876  -0.136  0.00  0.00    +0.295 HD
ENDBRANCH  32   6
ENDBRANCH  28  32
ENDBRANCH   5  28
ENDBRANCH  23   5
ENDBRANCH  19  23
ENDBRANCH  11   9
TORSDOF 7
