REMARK  Name = 75368545
REMARK  4 active torsions:
REMARK  status: ('A' for Active; 'I' for Inactive)
REMARK    1  A    between atoms: N_3  and  C_10
REMARK    2  A    between atoms: C_10  and  C_12
REMARK    3  A    between atoms: C_12  and  C_13
REMARK    4  A    between atoms: C_13  and  C_14
REMARK                            x       y       z     vdW  Elec       q    Type
REMARK                         _______ _______ _______ _____ _____    ______ ____
ROOT
ATOM      1  O   UNL     1      -5.571  -1.838  -0.051  0.00  0.00    -0.253 OA
ATOM      2  N   UNL     1      -3.641  -0.516  -0.306  0.00  0.00    -0.279 N 
ATOM      3  N   UNL     1      -1.017   0.412   0.093  0.00  0.00    -0.299 NA
ATOM      4  N   UNL     1      -5.635   0.506  -0.144  0.00  0.00    -0.297 N 
ATOM      5  C   UNL     1      -3.352   0.886  -0.525  0.00  0.00    +0.109 C 
ATOM      6  C   UNL     1      -2.159   1.320   0.326  0.00  0.00    +0.108 C 
ATOM      7  C   UNL     1      -2.563  -1.481  -0.364  0.00  0.00    +0.125 C 
ATOM      8  C   UNL     1      -1.368  -0.978   0.450  0.00  0.00    +0.103 C 
ATOM      9  C   UNL     1      -4.669   1.580  -0.188  0.00  0.00    +0.129 C 
ATOM     11  C   UNL     1      -5.011  -0.756  -0.158  0.00  0.00    +0.303 C 
ATOM     20  H   UNL     1      -6.635   0.640  -0.030  0.00  0.00    +0.150 HD
ENDROOT
BRANCH   3  10
ATOM     10  C   UNL     1       0.149   0.855   0.857  0.00  0.00    +0.085 C 
BRANCH  10  12
ATOM     12  C   UNL     1       1.434   0.347   0.205  0.00  0.00    +0.020 C 
BRANCH  12  13
ATOM     13  C   UNL     1       2.668   0.818   0.979  0.00  0.00    +0.036 C 
BRANCH  13  14
ATOM     14  C   UNL     1       3.943   0.293   0.369  0.00  0.00    -0.047 A 
ATOM     15  C   UNL     1       4.466  -0.930   0.790  0.00  0.00    +0.003 A 
ATOM     16  C   UNL     1       4.599   1.030  -0.617  0.00  0.00    +0.003 A 
ATOM     17  C   UNL     1       5.646  -1.415   0.226  0.00  0.00    +0.000 A 
ATOM     18  C   UNL     1       5.779   0.544  -1.181  0.00  0.00    +0.000 A 
ATOM     19  C   UNL     1       6.302  -0.678  -0.760  0.00  0.00    +0.000 A 
ENDBRANCH  13  14
ENDBRANCH  12  13
ENDBRANCH  10  12
ENDBRANCH   3  10
TORSDOF 4
