REMARK  Name = 75366989
REMARK  13 active torsions:
REMARK  status: ('A' for Active; 'I' for Inactive)
REMARK    1  A    between atoms: O_2  and  C_10
REMARK    2  A    between atoms: O_4  and  C_22
REMARK    3  A    between atoms: N_5  and  C_14
REMARK    4  A    between atoms: N_5  and  C_16
REMARK    5  A    between atoms: N_7  and  C_20
REMARK    6  A    between atoms: N_7  and  C_21
REMARK    7  A    between atoms: N_7  and  C_24
REMARK    8  A    between atoms: C_8  and  C_14
REMARK    9  A    between atoms: C_9  and  C_13
REMARK   10  A    between atoms: C_13  and  C_15
REMARK   11  A    between atoms: C_16  and  C_19
REMARK   12  A    between atoms: C_18  and  C_20
REMARK   13  A    between atoms: C_21  and  C_25
REMARK                            x       y       z     vdW  Elec       q    Type
REMARK                         _______ _______ _______ _____ _____    ______ ____
ROOT
ATOM      1  O   UNL     1       2.887   0.235   0.856  0.00  0.00    -0.369 OA
ATOM      8  C   UNL     1       2.954   1.656   0.672  0.00  0.00    +0.161 C 
ATOM      9  C   UNL     1       3.745  -0.529   0.005  0.00  0.00    +0.125 C 
ATOM     10  C   UNL     1       4.391   2.171   0.825  0.00  0.00    +0.145 C 
ATOM     11  C   UNL     1       5.205  -0.128   0.212  0.00  0.00    +0.034 C 
ATOM     12  C   UNL     1       5.387   1.371  -0.010  0.00  0.00    +0.036 C 
ENDROOT
BRANCH  10   2
ATOM      2  O   UNL     1       4.778   2.056   2.196  0.00  0.00    -0.389 OA
ATOM     35  H   UNL     1       5.671   2.431   2.282  0.00  0.00    +0.210 HD
ENDBRANCH  10   2
BRANCH   9  13
ATOM     13  C   UNL     1       3.534  -2.000   0.344  0.00  0.00    +0.090 C 
BRANCH  13  15
ATOM      3  O   UNL     1       0.984  -3.463  -1.740  0.00  0.00    -0.358 OA
ATOM      6  N   UNL     1       2.295  -3.076  -1.489  0.00  0.00    -0.083 NA
ATOM     15  C   UNL     1       2.267  -2.536  -0.267  0.00  0.00    +0.086 A 
ATOM     17  C   UNL     1       0.979  -2.554   0.295  0.00  0.00    +0.072 A 
ATOM     18  C   UNL     1       0.210  -3.147  -0.671  0.00  0.00    +0.151 A 
BRANCH  18  20
ATOM     20  C   UNL     1      -1.214  -3.489  -0.768  0.00  0.00    +0.161 C 
BRANCH  20   7
ATOM      7  N   UNL     1      -2.038  -2.843   0.268  0.00  0.00    -0.294 NA
ATOM     24  C   UNL     1      -3.300  -3.559   0.421  0.00  0.00    +0.105 C 
BRANCH   7  21
ATOM     21  C   UNL     1      -2.273  -1.446  -0.079  0.00  0.00    +0.119 C 
BRANCH  21  25
ATOM     25  C   UNL     1      -2.626  -0.620   1.129  0.00  0.00    -0.033 A 
ATOM     29  C   UNL     1      -3.959  -0.478   1.512  0.00  0.00    +0.005 A 
ATOM     30  C   UNL     1      -1.618   0.003   1.866  0.00  0.00    +0.005 A 
ATOM     31  C   UNL     1      -4.285   0.288   2.632  0.00  0.00    +0.000 A 
ATOM     32  C   UNL     1      -1.944   0.768   2.986  0.00  0.00    +0.000 A 
ATOM     33  C   UNL     1      -3.278   0.911   3.369  0.00  0.00    +0.000 A 
ENDBRANCH  21  25
ENDBRANCH   7  21
ENDBRANCH  20   7
ENDBRANCH  18  20
ENDBRANCH  13  15
ENDBRANCH   9  13
BRANCH   8  14
ATOM     14  C   UNL     1       2.308   2.071  -0.649  0.00  0.00    +0.115 C 
BRANCH  14   5
ATOM      5  N   UNL     1       0.942   1.579  -0.735  0.00  0.00    -0.309 NA
ATOM     34  H   UNL     1       0.921   0.564  -0.644  0.00  0.00    +0.122 HD
BRANCH   5  16
ATOM     16  C   UNL     1       0.320   1.982  -1.990  0.00  0.00    +0.120 C 
BRANCH  16  19
ATOM     19  C   UNL     1      -1.183   1.936  -1.911  0.00  0.00    +0.008 A 
ATOM     22  C   UNL     1      -1.870   2.693  -0.962  0.00  0.00    +0.121 A 
ATOM     23  C   UNL     1      -1.888   1.124  -2.799  0.00  0.00    +0.008 A 
ATOM     26  C   UNL     1      -3.263   2.638  -0.902  0.00  0.00    +0.046 A 
ATOM     27  C   UNL     1      -3.281   1.069  -2.739  0.00  0.00    +0.001 A 
ATOM     28  C   UNL     1      -3.968   1.826  -1.791  0.00  0.00    +0.004 A 
BRANCH  22   4
ATOM      4  O   UNL     1      -1.197   3.491  -0.087  0.00  0.00    -0.506 OA
ATOM     36  H   UNL     1      -1.838   3.930   0.499  0.00  0.00    +0.292 HD
ENDBRANCH  22   4
ENDBRANCH  16  19
ENDBRANCH   5  16
ENDBRANCH  14   5
ENDBRANCH   8  14
TORSDOF 12
