REMARK  Name = 40778218
REMARK  10 active torsions:
REMARK  status: ('A' for Active; 'I' for Inactive)
REMARK    1  A    between atoms: O_3  and  C_13
REMARK    2  A    between atoms: O_4  and  C_14
REMARK    3  A    between atoms: O_6  and  C_25
REMARK    4  A    between atoms: O_6  and  C_31
REMARK    5  A    between atoms: N_9  and  C_23
REMARK    6  A    between atoms: N_10  and  C_17
REMARK    7  A    between atoms: N_11  and  C_30
REMARK    8  A    between atoms: C_12  and  C_16
REMARK    9  A    between atoms: C_15  and  C_17
REMARK   10  A    between atoms: C_16  and  C_18
REMARK                            x       y       z     vdW  Elec       q    Type
REMARK                         _______ _______ _______ _____ _____    ______ ____
ROOT
ATOM      2  O   UNL     1      -3.773  -0.511  -0.514  0.00  0.00    -0.366 OA
ATOM     12  C   UNL     1      -3.708  -1.915  -0.207  0.00  0.00    +0.159 C 
ATOM     13  C   UNL     1      -4.735  -2.143   0.889  0.00  0.00    +0.175 C 
ATOM     14  C   UNL     1      -5.826  -1.171   0.490  0.00  0.00    +0.176 C 
ATOM     15  C   UNL     1      -5.019   0.022  -0.011  0.00  0.00    +0.167 C 
ENDROOT
BRANCH  13   3
ATOM      3  O   UNL     1      -5.171  -3.485   0.934  0.00  0.00    -0.387 OA
ATOM     37  H   UNL     1      -5.905  -3.531   1.572  0.00  0.00    +0.210 HD
ENDBRANCH  13   3
BRANCH  14   4
ATOM      4  O   UNL     1      -6.577  -1.690  -0.606  0.00  0.00    -0.387 OA
ATOM     38  H   UNL     1      -7.237  -1.020  -0.850  0.00  0.00    +0.210 HD
ENDBRANCH  14   4
BRANCH  12  16
ATOM     16  C   UNL     1      -2.294  -2.283   0.206  0.00  0.00    +0.130 C 
BRANCH  16  18
ATOM      5  O   UNL     1      -1.761  -1.448  -1.947  0.00  0.00    -0.276 OA
ATOM      8  N   UNL     1       0.018  -2.185  -0.651  0.00  0.00    -0.298 N 
ATOM      9  N   UNL     1       2.638  -1.498   0.139  0.00  0.00    -0.324 N 
ATOM     18  C   UNL     1      -1.329  -1.933  -0.898  0.00  0.00    +0.218 C 
ATOM     19  C   UNL     1       0.569  -2.759   0.578  0.00  0.00    +0.126 C 
ATOM     20  C   UNL     1       1.021  -1.899  -1.673  0.00  0.00    +0.126 C 
ATOM     21  C   UNL     1       1.646  -1.846   1.165  0.00  0.00    +0.124 C 
ATOM     22  C   UNL     1       2.101  -0.969  -1.125  0.00  0.00    +0.124 C 
BRANCH   9  23
ATOM     23  C   UNL     1       3.917  -1.080   0.527  0.00  0.00    +0.072 A 
ATOM     25  C   UNL     1       5.022  -1.329  -0.286  0.00  0.00    +0.141 A 
ATOM     26  C   UNL     1       4.078  -0.407   1.738  0.00  0.00    +0.027 A 
ATOM     27  C   UNL     1       6.290  -0.906   0.113  0.00  0.00    +0.047 A 
ATOM     28  C   UNL     1       5.346   0.016   2.136  0.00  0.00    +0.002 A 
ATOM     29  C   UNL     1       6.452  -0.233   1.324  0.00  0.00    +0.004 A 
BRANCH  25   6
ATOM      6  O   UNL     1       4.885  -1.985  -1.472  0.00  0.00    -0.493 OA
ATOM     31  C   UNL     1       5.005  -3.406  -1.444  0.00  0.00    +0.277 C 
ENDBRANCH  25   6
ENDBRANCH   9  23
ENDBRANCH  16  18
ENDBRANCH  12  16
BRANCH  15  17
ATOM     17  C   UNL     1      -4.688   1.022   1.089  0.00  0.00    +0.140 C 
BRANCH  17  10
ATOM      7  O   UNL     1      -1.834   1.202   0.922  0.00  0.00    -0.253 OA
ATOM     10  N   UNL     1      -3.928   2.123   0.575  0.00  0.00    -0.297 N 
ATOM     11  N   UNL     1      -2.063   3.339  -0.023  0.00  0.00    -0.269 N 
ATOM     24  C   UNL     1      -2.524   2.139   0.525  0.00  0.00    +0.304 C 
ATOM     39  H   UNL     1      -4.433   2.929   0.219  0.00  0.00    +0.150 HD
ATOM     40  H   UNL     1      -2.770   4.015  -0.302  0.00  0.00    +0.156 HD
BRANCH  11  30
ATOM      1  F   UNL     1       2.648   2.451   0.230  0.00  0.00    -0.205 F 
ATOM     30  C   UNL     1      -0.723   3.736  -0.240  0.00  0.00    +0.037 A 
ATOM     32  C   UNL     1       0.322   2.881   0.109  0.00  0.00    +0.061 A 
ATOM     33  C   UNL     1      -0.447   4.983  -0.802  0.00  0.00    +0.023 A 
ATOM     34  C   UNL     1       1.644   3.272  -0.104  0.00  0.00    +0.125 A 
ATOM     35  C   UNL     1       0.875   5.374  -1.016  0.00  0.00    +0.005 A 
ATOM     36  C   UNL     1       1.921   4.519  -0.666  0.00  0.00    +0.038 A 
ENDBRANCH  11  30
ENDBRANCH  17  10
ENDBRANCH  15  17
TORSDOF 9
