REMARK  Name = 7050120
REMARK  13 active torsions:
REMARK  status: ('A' for Active; 'I' for Inactive)
REMARK    1  A    between atoms: O_2  and  C_19
REMARK    2  A    between atoms: O_4  and  C_21
REMARK    3  A    between atoms: O_5  and  C_22
REMARK    4  A    between atoms: N_8  and  C_20
REMARK    5  A    between atoms: N_9  and  C_27
REMARK    6  A    between atoms: C_11  and  C_16
REMARK    7  A    between atoms: C_11  and  C_17
REMARK    8  A    between atoms: C_16  and  C_18
REMARK    9  A    between atoms: C_17  and  C_19
REMARK   10  A    between atoms: C_25  and  C_26
REMARK   11  A    between atoms: C_27  and  C_28
REMARK   12  A    between atoms: C_27  and  C_29
REMARK   13  A    between atoms: C_28  and  C_30
REMARK                            x       y       z     vdW  Elec       q    Type
REMARK                         _______ _______ _______ _____ _____    ______ ____
ROOT
ATOM     20  C   UNL     1      -0.800  -2.269   0.384  0.00  0.00    +0.127 C 
ATOM     21  C   UNL     1      -0.698  -3.682  -0.221  0.00  0.00    +0.167 C 
ATOM     22  C   UNL     1       0.456  -4.478   0.400  0.00  0.00    +0.149 C 
ATOM     23  C   UNL     1       0.534  -1.586   0.528  0.00  0.00    +0.006 C 
ATOM     24  C   UNL     1       1.802  -3.744   0.269  0.00  0.00    +0.074 C 
ATOM     25  C   UNL     1       1.693  -2.259   0.466  0.00  0.00    +0.015 C 
ENDROOT
BRANCH  20   8
ATOM      1  O   UNL     1      -3.658  -1.948   0.707  0.00  0.00    -0.276 OA
ATOM      8  N   UNL     1      -1.676  -1.421  -0.388  0.00  0.00    -0.306 N 
ATOM     18  C   UNL     1      -3.043  -1.332  -0.159  0.00  0.00    +0.214 C 
ATOM     36  H   UNL     1      -1.271  -0.912  -1.169  0.00  0.00    +0.149 HD
BRANCH  18  16
ATOM     16  C   UNL     1      -3.708  -0.362  -1.119  0.00  0.00    +0.103 C 
BRANCH  16  11
ATOM     11  C   UNL     1      -3.775   1.062  -0.564  0.00  0.00    -0.011 C 
ATOM     12  C   UNL     1      -2.376   1.621  -0.271  0.00  0.00    +0.008 C 
ATOM     13  C   UNL     1      -4.292   2.054  -1.615  0.00  0.00    +0.008 C 
ATOM     14  C   UNL     1      -2.541   3.139  -0.302  0.00  0.00    +0.001 C 
ATOM     15  C   UNL     1      -3.772   3.417  -1.164  0.00  0.00    +0.001 C 
BRANCH  11  17
ATOM     17  C   UNL     1      -4.656   1.074   0.696  0.00  0.00    +0.127 C 
BRANCH  17  19
ATOM      3  O   UNL     1      -6.837   0.967  -0.388  0.00  0.00    -0.251 OA
ATOM     19  C   UNL     1      -6.024   0.527   0.411  0.00  0.00    +0.305 C 
BRANCH  19   2
ATOM      2  O   UNL     1      -6.245  -0.563   1.189  0.00  0.00    -0.481 OA
ATOM     37  H   UNL     1      -7.131  -0.952   1.030  0.00  0.00    +0.295 HD
ENDBRANCH  19   2
ENDBRANCH  17  19
ENDBRANCH  11  17
ENDBRANCH  16  11
ENDBRANCH  18  16
ENDBRANCH  20   8
BRANCH  25  26
ATOM      6  O   UNL     1       3.717  -1.734   1.538  0.00  0.00    -0.271 OA
ATOM      9  N   UNL     1       3.084  -0.510  -0.342  0.00  0.00    -0.300 N 
ATOM     26  C   UNL     1       2.931  -1.490   0.623  0.00  0.00    +0.241 C 
ATOM     40  H   UNL     1       2.401  -0.442  -1.093  0.00  0.00    +0.150 HD
BRANCH   9  27
ATOM     27  C   UNL     1       4.223   0.377  -0.393  0.00  0.00    +0.163 C 
BRANCH  27  29
ATOM      7  O   UNL     1       5.080  -1.070  -2.147  0.00  0.00    -0.274 OA
ATOM     10  N   UNL     1       6.580  -0.018  -0.761  0.00  0.00    -0.328 N 
ATOM     29  C   UNL     1       5.308  -0.332  -1.192  0.00  0.00    +0.231 C 
ATOM     41  H   UNL     1       6.753   0.613   0.015  0.00  0.00    +0.145 HD
ATOM     42  H   UNL     1       7.396  -0.413  -1.217  0.00  0.00    +0.145 HD
ENDBRANCH  27  29
BRANCH  27  28
ATOM     28  C   UNL     1       3.881   1.725  -1.038  0.00  0.00    +0.067 C 
BRANCH  28  30
ATOM     30  C   UNL     1       3.173   2.663  -0.090  0.00  0.00    -0.045 A 
ATOM     31  C   UNL     1       1.781   2.653  -0.011  0.00  0.00    +0.004 A 
ATOM     32  C   UNL     1       3.912   3.538   0.706  0.00  0.00    +0.004 A 
ATOM     33  C   UNL     1       1.126   3.520   0.865  0.00  0.00    +0.000 A 
ATOM     34  C   UNL     1       3.257   4.405   1.582  0.00  0.00    +0.000 A 
ATOM     35  C   UNL     1       1.865   4.395   1.661  0.00  0.00    +0.000 A 
ENDBRANCH  28  30
ENDBRANCH  27  28
ENDBRANCH   9  27
ENDBRANCH  25  26
BRANCH  21   4
ATOM      4  O   UNL     1      -0.483  -3.586  -1.631  0.00  0.00    -0.387 OA
ATOM     38  H   UNL     1      -0.453  -4.491  -1.984  0.00  0.00    +0.210 HD
ENDBRANCH  21   4
BRANCH  22   5
ATOM      5  O   UNL     1       0.180  -4.753   1.772  0.00  0.00    -0.389 OA
ATOM     39  H   UNL     1       0.911  -5.294   2.117  0.00  0.00    +0.210 HD
ENDBRANCH  22   5
TORSDOF 13
