REMARK  Name = 45784427
REMARK  11 active torsions:
REMARK  status: ('A' for Active; 'I' for Inactive)
REMARK    1  A    between atoms: O_3  and  C_12
REMARK    2  A    between atoms: N_6  and  C_16
REMARK    3  A    between atoms: N_7  and  C_25
REMARK    4  A    between atoms: N_8  and  C_26
REMARK    5  A    between atoms: C_9  and  C_19
REMARK    6  A    between atoms: C_11  and  C_21
REMARK    7  A    between atoms: C_15  and  C_20
REMARK    8  A    between atoms: C_20  and  C_22
REMARK    9  A    between atoms: C_20  and  C_23
REMARK   10  A    between atoms: C_25  and  C_27
REMARK   11  A    between atoms: C_26  and  C_28
REMARK                            x       y       z     vdW  Elec       q    Type
REMARK                         _______ _______ _______ _____ _____    ______ ____
ROOT
ATOM      9  C   UNL     1       1.100  -0.161   1.319  0.00  0.00    -0.027 C 
ATOM     10  C   UNL     1       1.527   0.654   0.054  0.00  0.00    +0.028 C 
ATOM     11  C   UNL     1       3.067   0.962   0.080  0.00  0.00    +0.012 C 
ATOM     12  C   UNL     1       0.602   1.887  -0.161  0.00  0.00    +0.122 C 
ATOM     13  C   UNL     1      -0.395  -0.544   1.206  0.00  0.00    +0.007 C 
ATOM     14  C   UNL     1       1.919  -1.472   1.375  0.00  0.00    +0.009 C 
ATOM     15  C   UNL     1      -0.898   1.511  -0.169  0.00  0.00    +0.029 C 
ATOM     16  C   UNL     1       3.878  -0.358   0.212  0.00  0.00    +0.078 C 
ATOM     17  C   UNL     1      -1.306   0.663   1.036  0.00  0.00    +0.007 C 
ATOM     18  C   UNL     1       3.423  -1.237   1.376  0.00  0.00    +0.023 C 
ATOM     19  C   UNL     1       1.313   0.630   2.635  0.00  0.00    +0.011 C 
ATOM     21  C   UNL     1       3.561   1.738  -1.152  0.00  0.00    +0.010 C 
ENDROOT
BRANCH  16   6
ATOM      5  O   UNL     1       6.046  -2.015  -0.727  0.00  0.00    -0.253 OA
ATOM      6  N   UNL     1       5.296  -0.104   0.356  0.00  0.00    -0.296 N 
ATOM      8  N   UNL     1       7.551  -0.479   0.144  0.00  0.00    -0.300 N 
ATOM     24  C   UNL     1       6.274  -0.964  -0.131  0.00  0.00    +0.300 C 
ATOM     34  H   UNL     1       5.589   0.699   0.906  0.00  0.00    +0.151 HD
ATOM     37  H   UNL     1       7.643   0.407   0.631  0.00  0.00    +0.150 HD
BRANCH   8  26
ATOM     26  C   UNL     1       8.753  -1.175  -0.249  0.00  0.00    +0.102 C 
ATOM     28  C   UNL     1       9.080  -0.935  -1.709  0.00  0.00    +0.024 C 
ENDBRANCH   8  26
ENDBRANCH  16   6
BRANCH  12   3
ATOM      3  O   UNL     1       0.882   2.477  -1.431  0.00  0.00    -0.391 OA
ATOM     35  H   UNL     1       0.719   1.808  -2.118  0.00  0.00    +0.210 HD
ENDBRANCH  12   3
BRANCH  15  20
ATOM     20  C   UNL     1      -1.795   2.752  -0.250  0.00  0.00    +0.077 C 
ATOM     22  C   UNL     1      -1.533   3.668   0.940  0.00  0.00    +0.017 C 
BRANCH  20  23
ATOM      4  O   UNL     1      -4.093   2.691   0.513  0.00  0.00    -0.276 OA
ATOM      7  N   UNL     1      -3.529   1.511  -1.403  0.00  0.00    -0.311 N 
ATOM     23  C   UNL     1      -3.260   2.331  -0.317  0.00  0.00    +0.216 C 
ATOM     36  H   UNL     1      -2.796   1.302  -2.073  0.00  0.00    +0.149 HD
BRANCH   7  25
ATOM     25  C   UNL     1      -4.845   0.982  -1.676  0.00  0.00    +0.139 C 
BRANCH  25  27
ATOM      1  F   UNL     1      -6.845  -1.732   1.848  0.00  0.00    -0.205 F 
ATOM      2  F   UNL     1      -4.117  -3.832  -1.403  0.00  0.00    -0.205 F 
ATOM     27  C   UNL     1      -5.068  -0.343  -1.007  0.00  0.00    -0.025 A 
ATOM     29  C   UNL     1      -4.476  -1.495  -1.526  0.00  0.00    +0.043 A 
ATOM     30  C   UNL     1      -5.869  -0.423   0.133  0.00  0.00    +0.043 A 
ATOM     31  C   UNL     1      -6.077  -1.655   0.753  0.00  0.00    +0.126 A 
ATOM     32  C   UNL     1      -4.684  -2.726  -0.905  0.00  0.00    +0.126 A 
ATOM     33  C   UNL     1      -5.484  -2.807   0.235  0.00  0.00    +0.076 A 
ENDBRANCH  25  27
ENDBRANCH   7  25
ENDBRANCH  20  23
ENDBRANCH  15  20
TORSDOF 7
