MODEL 1
REMARK VINA RESULT:      -6.8      0.000      0.000
REMARK  Name = 51137796
REMARK  7 active torsions:
REMARK  status: ('A' for Active; 'I' for Inactive)
REMARK    1  A    between atoms: S_1  and  N_6
REMARK    2  A    between atoms: S_1  and  C_14
REMARK    3  A    between atoms: O_5  and  C_27
REMARK    4  A    between atoms: O_5  and  C_28
REMARK    5  A    between atoms: C_9  and  C_13
REMARK    6  A    between atoms: C_14  and  C_15
REMARK    7  A    between atoms: C_16  and  C_19
REMARK                            x       y       z     vdW  Elec       q    Type
REMARK                         _______ _______ _______ _____ _____    ______ ____
ROOT
ATOM      6  N   UNL     1     -17.025   5.272  22.527  0.00  0.00    -0.180 NA
ATOM      9  C   UNL     1     -18.298   3.908  24.065  0.00  0.00    +0.094 C 
ATOM     10  C   UNL     1     -17.902   4.067  22.588  0.00  0.00    +0.122 C 
ATOM     11  C   UNL     1     -18.118   5.323  24.622  0.00  0.00    +0.031 C 
ATOM     12  C   UNL     1     -16.893   5.847  23.888  0.00  0.00    +0.110 C 
ENDROOT
BRANCH   9  13
ATOM      2  O   UNL     1     -17.251   3.203  26.169  0.00  0.00    -0.420 OA
ATOM      7  N   UNL     1     -17.074   1.703  24.519  0.00  0.00    -0.112 NA
ATOM      8  N   UNL     1     -16.447   1.184  25.637  0.00  0.00    -0.107 NA
ATOM     13  C   UNL     1     -17.527   2.882  24.876  0.00  0.00    +0.222 A 
ATOM     16  C   UNL     1     -16.575   2.093  26.575  0.00  0.00    +0.248 A 
BRANCH  16  19
ATOM     19  C   UNL     1     -16.121   2.096  27.936  0.00  0.00    +0.039 A 
ATOM     23  C   UNL     1     -16.124   0.914  28.675  0.00  0.00    +0.017 A 
ATOM     24  C   UNL     1     -15.677   3.282  28.519  0.00  0.00    +0.017 A 
ATOM     25  C   UNL     1     -15.682   0.917  29.997  0.00  0.00    +0.046 A 
ATOM     26  C   UNL     1     -15.236   3.286  29.843  0.00  0.00    +0.046 A 
ATOM     27  C   UNL     1     -15.239   2.103  30.582  0.00  0.00    +0.120 A 
BRANCH  27   5
ATOM      5  O   UNL     1     -14.804   2.107  31.872  0.00  0.00    -0.495 OA
ATOM     28  C   UNL     1     -13.458   2.519  32.103  0.00  0.00    +0.277 C 
ENDBRANCH  27   5
ENDBRANCH  16  19
ENDBRANCH   9  13
BRANCH   6   1
ATOM      1  S   UNL     1     -15.660   5.245  21.524  0.00  0.00    +0.036 S 
ATOM      3  O   UNL     1     -16.082   5.106  20.143  0.00  0.00    -0.158 OA
ATOM      4  O   UNL     1     -14.663   4.358  22.096  0.00  0.00    -0.158 OA
BRANCH   1  14
ATOM     14  C   UNL     1     -15.091   6.912  21.750  0.00  0.00    +0.220 C 
BRANCH  14  15
ATOM     15  C   UNL     1     -13.933   7.130  20.825  0.00  0.00    -0.025 A 
ATOM     17  C   UNL     1     -12.649   6.751  21.214  0.00  0.00    +0.005 A 
ATOM     18  C   UNL     1     -14.141   7.713  19.575  0.00  0.00    +0.005 A 
ATOM     20  C   UNL     1     -11.571   6.953  20.351  0.00  0.00    +0.000 A 
ATOM     21  C   UNL     1     -13.063   7.916  18.713  0.00  0.00    +0.000 A 
ATOM     22  C   UNL     1     -11.778   7.537  19.102  0.00  0.00    +0.000 A 
ENDBRANCH  14  15
ENDBRANCH   1  14
ENDBRANCH   6   1
TORSDOF 6
ENDMDL
MODEL 2
REMARK VINA RESULT:      -6.8     20.289     21.651
REMARK  Name = 51137796
REMARK  7 active torsions:
REMARK  status: ('A' for Active; 'I' for Inactive)
REMARK    1  A    between atoms: S_1  and  N_6
REMARK    2  A    between atoms: S_1  and  C_14
REMARK    3  A    between atoms: O_5  and  C_27
REMARK    4  A    between atoms: O_5  and  C_28
REMARK    5  A    between atoms: C_9  and  C_13
REMARK    6  A    between atoms: C_14  and  C_15
REMARK    7  A    between atoms: C_16  and  C_19
REMARK                            x       y       z     vdW  Elec       q    Type
REMARK                         _______ _______ _______ _____ _____    ______ ____
ROOT
ATOM      6  N   UNL     1      -4.233 -10.801  11.586  0.00  0.00    -0.180 NA
ATOM      9  C   UNL     1      -2.143 -11.079  12.769  0.00  0.00    +0.094 C 
ATOM     10  C   UNL     1      -2.993 -10.071  11.979  0.00  0.00    +0.122 C 
ATOM     11  C   UNL     1      -2.665 -12.430  12.275  0.00  0.00    +0.031 C 
ATOM     12  C   UNL     1      -4.157 -12.195  12.088  0.00  0.00    +0.110 C 
ENDROOT
BRANCH   9  13
ATOM      2  O   UNL     1      -3.421 -10.984  14.863  0.00  0.00    -0.420 OA
ATOM      7  N   UNL     1      -1.205 -10.883  15.147  0.00  0.00    -0.112 NA
ATOM      8  N   UNL     1      -1.798 -10.820  16.394  0.00  0.00    -0.107 NA
ATOM     13  C   UNL     1      -2.190 -10.978  14.284  0.00  0.00    +0.222 A 
ATOM     16  C   UNL     1      -3.092 -10.883  16.180  0.00  0.00    +0.248 A 
BRANCH  16  19
ATOM     19  C   UNL     1      -4.190 -10.861  17.102  0.00  0.00    +0.039 A 
ATOM     23  C   UNL     1      -5.354 -10.161  16.784  0.00  0.00    +0.017 A 
ATOM     24  C   UNL     1      -4.094 -11.540  18.316  0.00  0.00    +0.017 A 
ATOM     25  C   UNL     1      -6.422 -10.141  17.680  0.00  0.00    +0.046 A 
ATOM     26  C   UNL     1      -5.162 -11.519  19.213  0.00  0.00    +0.046 A 
ATOM     27  C   UNL     1      -6.326 -10.820  18.895  0.00  0.00    +0.120 A 
BRANCH  27   5
ATOM      5  O   UNL     1      -7.370 -10.803  19.769  0.00  0.00    -0.495 OA
ATOM     28  C   UNL     1      -8.672 -11.026  19.230  0.00  0.00    +0.277 C 
ENDBRANCH  27   5
ENDBRANCH  16  19
ENDBRANCH   9  13
BRANCH   6   1
ATOM      1  S   UNL     1      -5.721  -9.994  11.662  0.00  0.00    +0.036 S 
ATOM      3  O   UNL     1      -5.934  -9.508  13.012  0.00  0.00    -0.158 OA
ATOM      4  O   UNL     1      -6.730 -10.785  10.982  0.00  0.00    -0.158 OA
BRANCH   1  14
ATOM     14  C   UNL     1      -5.351  -8.593  10.636  0.00  0.00    +0.220 C 
BRANCH  14  15
ATOM     15  C   UNL     1      -5.792  -8.918   9.241  0.00  0.00    -0.025 A 
ATOM     17  C   UNL     1      -4.987  -9.711   8.423  0.00  0.00    +0.005 A 
ATOM     18  C   UNL     1      -7.006  -8.428   8.763  0.00  0.00    +0.005 A 
ATOM     20  C   UNL     1      -5.399 -10.014   7.124  0.00  0.00    +0.000 A 
ATOM     21  C   UNL     1      -7.418  -8.731   7.465  0.00  0.00    +0.000 A 
ATOM     22  C   UNL     1      -6.613  -9.523   6.646  0.00  0.00    +0.000 A 
ENDBRANCH  14  15
ENDBRANCH   1  14
ENDBRANCH   6   1
TORSDOF 6
ENDMDL
MODEL 3
REMARK VINA RESULT:      -6.7     18.647     19.989
REMARK  Name = 51137796
REMARK  7 active torsions:
REMARK  status: ('A' for Active; 'I' for Inactive)
REMARK    1  A    between atoms: S_1  and  N_6
REMARK    2  A    between atoms: S_1  and  C_14
REMARK    3  A    between atoms: O_5  and  C_27
REMARK    4  A    between atoms: O_5  and  C_28
REMARK    5  A    between atoms: C_9  and  C_13
REMARK    6  A    between atoms: C_14  and  C_15
REMARK    7  A    between atoms: C_16  and  C_19
REMARK                            x       y       z     vdW  Elec       q    Type
REMARK                         _______ _______ _______ _____ _____    ______ ____
ROOT
ATOM      6  N   UNL     1      -4.205 -12.033  16.329  0.00  0.00    -0.180 NA
ATOM      9  C   UNL     1      -5.085 -12.570  18.516  0.00  0.00    +0.094 C 
ATOM     10  C   UNL     1      -4.056 -11.700  17.776  0.00  0.00    +0.122 C 
ATOM     11  C   UNL     1      -5.319 -13.728  17.542  0.00  0.00    +0.031 C 
ATOM     12  C   UNL     1      -5.256 -13.068  16.173  0.00  0.00    +0.110 C 
ENDROOT
BRANCH   9  13
ATOM      2  O   UNL     1      -7.003 -11.138  17.974  0.00  0.00    -0.420 OA
ATOM      7  N   UNL     1      -7.033 -11.944  20.060  0.00  0.00    -0.112 NA
ATOM      8  N   UNL     1      -8.159 -11.161  19.889  0.00  0.00    -0.107 NA
ATOM     13  C   UNL     1      -6.388 -11.901  18.917  0.00  0.00    +0.222 A 
ATOM     16  C   UNL     1      -8.100 -10.711  18.657  0.00  0.00    +0.248 A 
BRANCH  16  19
ATOM     19  C   UNL     1      -8.997  -9.856  17.935  0.00  0.00    +0.039 A 
ATOM     23  C   UNL     1      -8.551  -9.176  16.802  0.00  0.00    +0.017 A 
ATOM     24  C   UNL     1     -10.315  -9.705  18.365  0.00  0.00    +0.017 A 
ATOM     25  C   UNL     1      -9.423  -8.345  16.099  0.00  0.00    +0.046 A 
ATOM     26  C   UNL     1     -11.187  -8.874  17.662  0.00  0.00    +0.046 A 
ATOM     27  C   UNL     1     -10.741  -8.194  16.530  0.00  0.00    +0.120 A 
BRANCH  27   5
ATOM      5  O   UNL     1     -11.594  -7.385  15.842  0.00  0.00    -0.495 OA
ATOM     28  C   UNL     1     -11.530  -5.988  16.120  0.00  0.00    +0.277 C 
ENDBRANCH  27   5
ENDBRANCH  16  19
ENDBRANCH   9  13
BRANCH   6   1
ATOM      1  S   UNL     1      -4.120 -10.785  15.186  0.00  0.00    +0.036 S 
ATOM      3  O   UNL     1      -2.771 -10.254  15.155  0.00  0.00    -0.158 OA
ATOM      4  O   UNL     1      -5.267  -9.911  15.347  0.00  0.00    -0.158 OA
BRANCH   1  14
ATOM     14  C   UNL     1      -4.365 -11.726  13.700  0.00  0.00    +0.220 C 
BRANCH  14  15
ATOM     15  C   UNL     1      -4.086 -10.825  12.536  0.00  0.00    -0.025 A 
ATOM     17  C   UNL     1      -2.794 -10.730  12.021  0.00  0.00    +0.005 A 
ATOM     18  C   UNL     1      -5.120 -10.079  11.970  0.00  0.00    +0.005 A 
ATOM     20  C   UNL     1      -2.535  -9.890  10.938  0.00  0.00    +0.000 A 
ATOM     21  C   UNL     1      -4.861  -9.239  10.886  0.00  0.00    +0.000 A 
ATOM     22  C   UNL     1      -3.568  -9.145  10.371  0.00  0.00    +0.000 A 
ENDBRANCH  14  15
ENDBRANCH   1  14
ENDBRANCH   6   1
TORSDOF 6
ENDMDL
MODEL 4
REMARK VINA RESULT:      -6.6     18.482     19.840
REMARK  Name = 51137796
REMARK  7 active torsions:
REMARK  status: ('A' for Active; 'I' for Inactive)
REMARK    1  A    between atoms: S_1  and  N_6
REMARK    2  A    between atoms: S_1  and  C_14
REMARK    3  A    between atoms: O_5  and  C_27
REMARK    4  A    between atoms: O_5  and  C_28
REMARK    5  A    between atoms: C_9  and  C_13
REMARK    6  A    between atoms: C_14  and  C_15
REMARK    7  A    between atoms: C_16  and  C_19
REMARK                            x       y       z     vdW  Elec       q    Type
REMARK                         _______ _______ _______ _____ _____    ______ ____
ROOT
ATOM      6  N   UNL     1      -4.502 -11.594  16.346  0.00  0.00    -0.180 NA
ATOM      9  C   UNL     1      -5.087 -11.065  18.632  0.00  0.00    +0.094 C 
ATOM     10  C   UNL     1      -4.610 -10.455  17.304  0.00  0.00    +0.122 C 
ATOM     11  C   UNL     1      -4.653 -12.528  18.512  0.00  0.00    +0.031 C 
ATOM     12  C   UNL     1      -4.872 -12.851  17.042  0.00  0.00    +0.110 C 
ENDROOT
BRANCH   9  13
ATOM      2  O   UNL     1      -7.310 -10.155  18.130  0.00  0.00    -0.420 OA
ATOM      7  N   UNL     1      -7.259 -11.487  19.926  0.00  0.00    -0.112 NA
ATOM      8  N   UNL     1      -8.559 -11.046  19.758  0.00  0.00    -0.107 NA
ATOM     13  C   UNL     1      -6.566 -10.941  18.954  0.00  0.00    +0.222 A 
ATOM     16  C   UNL     1      -8.541 -10.272  18.698  0.00  0.00    +0.248 A 
BRANCH  16  19
ATOM     19  C   UNL     1      -9.600  -9.545  18.059  0.00  0.00    +0.039 A 
ATOM     23  C   UNL     1      -9.300  -8.516  17.168  0.00  0.00    +0.017 A 
ATOM     24  C   UNL     1     -10.930  -9.869  18.329  0.00  0.00    +0.017 A 
ATOM     25  C   UNL     1     -10.329  -7.810  16.546  0.00  0.00    +0.046 A 
ATOM     26  C   UNL     1     -11.959  -9.162  17.708  0.00  0.00    +0.046 A 
ATOM     27  C   UNL     1     -11.659  -8.133  16.816  0.00  0.00    +0.120 A 
BRANCH  27   5
ATOM      5  O   UNL     1     -12.665  -7.446  16.206  0.00  0.00    -0.495 OA
ATOM     28  C   UNL     1     -12.336  -6.176  15.645  0.00  0.00    +0.277 C 
ENDBRANCH  27   5
ENDBRANCH  16  19
ENDBRANCH   9  13
BRANCH   6   1
ATOM      1  S   UNL     1      -5.011 -11.373  14.746  0.00  0.00    +0.036 S 
ATOM      3  O   UNL     1      -5.093  -9.953  14.460  0.00  0.00    -0.158 OA
ATOM      4  O   UNL     1      -6.129 -12.258  14.473  0.00  0.00    -0.158 OA
BRANCH   1  14
ATOM     14  C   UNL     1      -3.594 -12.016  13.891  0.00  0.00    +0.220 C 
BRANCH  14  15
ATOM     15  C   UNL     1      -3.389 -11.190  12.658  0.00  0.00    -0.025 A 
ATOM     17  C   UNL     1      -4.375 -11.154  11.671  0.00  0.00    +0.005 A 
ATOM     18  C   UNL     1      -2.214 -10.459  12.497  0.00  0.00    +0.005 A 
ATOM     20  C   UNL     1      -4.184 -10.384  10.524  0.00  0.00    +0.000 A 
ATOM     21  C   UNL     1      -2.023  -9.689  11.349  0.00  0.00    +0.000 A 
ATOM     22  C   UNL     1      -3.009  -9.653  10.362  0.00  0.00    +0.000 A 
ENDBRANCH  14  15
ENDBRANCH   1  14
ENDBRANCH   6   1
TORSDOF 6
ENDMDL
MODEL 5
REMARK VINA RESULT:      -6.6     20.478     21.818
REMARK  Name = 51137796
REMARK  7 active torsions:
REMARK  status: ('A' for Active; 'I' for Inactive)
REMARK    1  A    between atoms: S_1  and  N_6
REMARK    2  A    between atoms: S_1  and  C_14
REMARK    3  A    between atoms: O_5  and  C_27
REMARK    4  A    between atoms: O_5  and  C_28
REMARK    5  A    between atoms: C_9  and  C_13
REMARK    6  A    between atoms: C_14  and  C_15
REMARK    7  A    between atoms: C_16  and  C_19
REMARK                            x       y       z     vdW  Elec       q    Type
REMARK                         _______ _______ _______ _____ _____    ______ ____
ROOT
ATOM      6  N   UNL     1      -4.450 -11.431  11.710  0.00  0.00    -0.180 NA
ATOM      9  C   UNL     1      -2.466 -10.619  12.827  0.00  0.00    +0.094 C 
ATOM     10  C   UNL     1      -3.772 -10.176  12.149  0.00  0.00    +0.122 C 
ATOM     11  C   UNL     1      -2.213 -11.999  12.217  0.00  0.00    +0.031 C 
ATOM     12  C   UNL     1      -3.606 -12.594  12.077  0.00  0.00    +0.110 C 
ENDROOT
BRANCH   9  13
ATOM      2  O   UNL     1      -3.673 -10.720  14.962  0.00  0.00    -0.420 OA
ATOM      7  N   UNL     1      -1.448 -10.663  15.180  0.00  0.00    -0.112 NA
ATOM      8  N   UNL     1      -2.000 -10.718  16.446  0.00  0.00    -0.107 NA
ATOM     13  C   UNL     1      -2.462 -10.666  14.346  0.00  0.00    +0.222 A 
ATOM     16  C   UNL     1      -3.300 -10.750  16.271  0.00  0.00    +0.248 A 
BRANCH  16  19
ATOM     19  C   UNL     1      -4.367 -10.811  17.227  0.00  0.00    +0.039 A 
ATOM     23  C   UNL     1      -4.216 -11.559  18.394  0.00  0.00    +0.017 A 
ATOM     24  C   UNL     1      -5.556 -10.122  16.989  0.00  0.00    +0.017 A 
ATOM     25  C   UNL     1      -5.253 -11.617  19.324  0.00  0.00    +0.046 A 
ATOM     26  C   UNL     1      -6.594 -10.181  17.919  0.00  0.00    +0.046 A 
ATOM     27  C   UNL     1      -6.443 -10.928  19.087  0.00  0.00    +0.120 A 
BRANCH  27   5
ATOM      5  O   UNL     1      -7.455 -10.982  19.996  0.00  0.00    -0.495 OA
ATOM     28  C   UNL     1      -8.765 -11.240  19.495  0.00  0.00    +0.277 C 
ENDBRANCH  27   5
ENDBRANCH  16  19
ENDBRANCH   9  13
BRANCH   6   1
ATOM      1  S   UNL     1      -6.130 -11.562  11.886  0.00  0.00    +0.036 S 
ATOM      3  O   UNL     1      -6.760 -11.427  10.586  0.00  0.00    -0.158 OA
ATOM      4  O   UNL     1      -6.557 -10.754  13.013  0.00  0.00    -0.158 OA
BRANCH   1  14
ATOM     14  C   UNL     1      -6.246 -13.267  12.369  0.00  0.00    +0.220 C 
BRANCH  14  15
ATOM     15  C   UNL     1      -6.771 -13.309  13.771  0.00  0.00    -0.025 A 
ATOM     17  C   UNL     1      -5.898 -13.530  14.837  0.00  0.00    +0.005 A 
ATOM     18  C   UNL     1      -8.133 -13.130  14.011  0.00  0.00    +0.005 A 
ATOM     20  C   UNL     1      -6.388 -13.570  16.143  0.00  0.00    +0.000 A 
ATOM     21  C   UNL     1      -8.623 -13.169  15.317  0.00  0.00    +0.000 A 
ATOM     22  C   UNL     1      -7.750 -13.390  16.382  0.00  0.00    +0.000 A 
ENDBRANCH  14  15
ENDBRANCH   1  14
ENDBRANCH   6   1
TORSDOF 6
ENDMDL
MODEL 6
REMARK VINA RESULT:      -6.5     18.669     20.767
REMARK  Name = 51137796
REMARK  7 active torsions:
REMARK  status: ('A' for Active; 'I' for Inactive)
REMARK    1  A    between atoms: S_1  and  N_6
REMARK    2  A    between atoms: S_1  and  C_14
REMARK    3  A    between atoms: O_5  and  C_27
REMARK    4  A    between atoms: O_5  and  C_28
REMARK    5  A    between atoms: C_9  and  C_13
REMARK    6  A    between atoms: C_14  and  C_15
REMARK    7  A    between atoms: C_16  and  C_19
REMARK                            x       y       z     vdW  Elec       q    Type
REMARK                         _______ _______ _______ _____ _____    ______ ____
ROOT
ATOM      6  N   UNL     1      -6.941 -11.809  18.815  0.00  0.00    -0.180 NA
ATOM      9  C   UNL     1      -4.794 -12.530  17.971  0.00  0.00    +0.094 C 
ATOM     10  C   UNL     1      -6.304 -12.809  17.910  0.00  0.00    +0.122 C 
ATOM     11  C   UNL     1      -4.631 -11.814  19.314  0.00  0.00    +0.031 C 
ATOM     12  C   UNL     1      -5.887 -10.962  19.423  0.00  0.00    +0.110 C 
ENDROOT
BRANCH   9  13
ATOM      2  O   UNL     1      -5.007 -11.475  15.765  0.00  0.00    -0.420 OA
ATOM      7  N   UNL     1      -2.992 -11.221  16.702  0.00  0.00    -0.112 NA
ATOM      8  N   UNL     1      -2.975 -10.585  15.474  0.00  0.00    -0.107 NA
ATOM     13  C   UNL     1      -4.197 -11.726  16.829  0.00  0.00    +0.222 A 
ATOM     16  C   UNL     1      -4.172 -10.759  14.963  0.00  0.00    +0.248 A 
BRANCH  16  19
ATOM     19  C   UNL     1      -4.724 -10.319  13.714  0.00  0.00    +0.039 A 
ATOM     23  C   UNL     1      -3.954 -10.376  12.553  0.00  0.00    +0.017 A 
ATOM     24  C   UNL     1      -6.031  -9.835  13.662  0.00  0.00    +0.017 A 
ATOM     25  C   UNL     1      -4.491  -9.949  11.339  0.00  0.00    +0.046 A 
ATOM     26  C   UNL     1      -6.568  -9.407  12.448  0.00  0.00    +0.046 A 
ATOM     27  C   UNL     1      -5.798  -9.464  11.286  0.00  0.00    +0.120 A 
BRANCH  27   5
ATOM      5  O   UNL     1      -6.324  -9.050  10.100  0.00  0.00    -0.495 OA
ATOM     28  C   UNL     1      -5.485  -9.141   8.951  0.00  0.00    +0.277 C 
ENDBRANCH  27   5
ENDBRANCH  16  19
ENDBRANCH   9  13
BRANCH   6   1
ATOM      1  S   UNL     1      -8.393 -11.077  18.339  0.00  0.00    +0.036 S 
ATOM      3  O   UNL     1      -9.128 -10.658  19.517  0.00  0.00    -0.158 OA
ATOM      4  O   UNL     1      -9.022 -11.887  17.312  0.00  0.00    -0.158 OA
BRANCH   1  14
ATOM     14  C   UNL     1      -7.749  -9.619  17.557  0.00  0.00    +0.220 C 
BRANCH  14  15
ATOM     15  C   UNL     1      -8.870  -8.971  16.803  0.00  0.00    -0.025 A 
ATOM     17  C   UNL     1      -9.082  -9.286  15.461  0.00  0.00    +0.005 A 
ATOM     18  C   UNL     1      -9.700  -8.052  17.444  0.00  0.00    +0.005 A 
ATOM     20  C   UNL     1     -10.126  -8.682  14.760  0.00  0.00    +0.000 A 
ATOM     21  C   UNL     1     -10.744  -7.448  16.743  0.00  0.00    +0.000 A 
ATOM     22  C   UNL     1     -10.956  -7.763  15.400  0.00  0.00    +0.000 A 
ENDBRANCH  14  15
ENDBRANCH   1  14
ENDBRANCH   6   1
TORSDOF 6
ENDMDL
MODEL 7
REMARK VINA RESULT:      -6.5     18.539     20.698
REMARK  Name = 51137796
REMARK  7 active torsions:
REMARK  status: ('A' for Active; 'I' for Inactive)
REMARK    1  A    between atoms: S_1  and  N_6
REMARK    2  A    between atoms: S_1  and  C_14
REMARK    3  A    between atoms: O_5  and  C_27
REMARK    4  A    between atoms: O_5  and  C_28
REMARK    5  A    between atoms: C_9  and  C_13
REMARK    6  A    between atoms: C_14  and  C_15
REMARK    7  A    between atoms: C_16  and  C_19
REMARK                            x       y       z     vdW  Elec       q    Type
REMARK                         _______ _______ _______ _____ _____    ______ ____
ROOT
ATOM      6  N   UNL     1      -7.736 -11.095  17.961  0.00  0.00    -0.180 NA
ATOM      9  C   UNL     1      -5.568 -12.163  18.052  0.00  0.00    +0.094 C 
ATOM     10  C   UNL     1      -6.975 -12.269  17.440  0.00  0.00    +0.122 C 
ATOM     11  C   UNL     1      -5.800 -11.308  19.300  0.00  0.00    +0.031 C 
ATOM     12  C   UNL     1      -6.859 -10.308  18.862  0.00  0.00    +0.110 C 
ENDROOT
BRANCH   9  13
ATOM      2  O   UNL     1      -4.751 -11.484  15.839  0.00  0.00    -0.420 OA
ATOM      7  N   UNL     1      -3.280 -11.152  17.491  0.00  0.00    -0.112 NA
ATOM      8  N   UNL     1      -2.697 -10.731  16.310  0.00  0.00    -0.107 NA
ATOM     13  C   UNL     1      -4.477 -11.584  17.168  0.00  0.00    +0.222 A 
ATOM     16  C   UNL     1      -3.592 -10.944  15.373  0.00  0.00    +0.248 A 
BRANCH  16  19
ATOM     19  C   UNL     1      -3.537 -10.698  13.961  0.00  0.00    +0.039 A 
ATOM     23  C   UNL     1      -4.717 -10.571  13.228  0.00  0.00    +0.017 A 
ATOM     24  C   UNL     1      -2.303 -10.586  13.321  0.00  0.00    +0.017 A 
ATOM     25  C   UNL     1      -4.663 -10.331  11.856  0.00  0.00    +0.046 A 
ATOM     26  C   UNL     1      -2.249 -10.347  11.947  0.00  0.00    +0.046 A 
ATOM     27  C   UNL     1      -3.429 -10.220  11.215  0.00  0.00    +0.120 A 
BRANCH  27   5
ATOM      5  O   UNL     1      -3.376  -9.982   9.875  0.00  0.00    -0.495 OA
ATOM     28  C   UNL     1      -4.031  -8.809   9.397  0.00  0.00    +0.277 C 
ENDBRANCH  27   5
ENDBRANCH  16  19
ENDBRANCH   9  13
BRANCH   6   1
ATOM      1  S   UNL     1      -8.779 -10.264  16.916  0.00  0.00    +0.036 S 
ATOM      3  O   UNL     1      -9.558 -11.223  16.155  0.00  0.00    -0.158 OA
ATOM      4  O   UNL     1      -8.046  -9.200  16.254  0.00  0.00    -0.158 OA
BRANCH   1  14
ATOM     14  C   UNL     1      -9.860  -9.515  18.109  0.00  0.00    +0.220 C 
BRANCH  14  15
ATOM     15  C   UNL     1     -10.792  -8.602  17.372  0.00  0.00    -0.025 A 
ATOM     17  C   UNL     1     -12.082  -9.030  17.056  0.00  0.00    +0.005 A 
ATOM     18  C   UNL     1     -10.369  -7.327  17.001  0.00  0.00    +0.005 A 
ATOM     20  C   UNL     1     -12.949  -8.180  16.370  0.00  0.00    +0.000 A 
ATOM     21  C   UNL     1     -11.237  -6.476  16.315  0.00  0.00    +0.000 A 
ATOM     22  C   UNL     1     -12.527  -6.904  15.999  0.00  0.00    +0.000 A 
ENDBRANCH  14  15
ENDBRANCH   1  14
ENDBRANCH   6   1
TORSDOF 6
ENDMDL
MODEL 8
REMARK VINA RESULT:      -6.5     17.884     19.224
REMARK  Name = 51137796
REMARK  7 active torsions:
REMARK  status: ('A' for Active; 'I' for Inactive)
REMARK    1  A    between atoms: S_1  and  N_6
REMARK    2  A    between atoms: S_1  and  C_14
REMARK    3  A    between atoms: O_5  and  C_27
REMARK    4  A    between atoms: O_5  and  C_28
REMARK    5  A    between atoms: C_9  and  C_13
REMARK    6  A    between atoms: C_14  and  C_15
REMARK    7  A    between atoms: C_16  and  C_19
REMARK                            x       y       z     vdW  Elec       q    Type
REMARK                         _______ _______ _______ _____ _____    ______ ____
ROOT
ATOM      6  N   UNL     1      -4.361 -11.644  16.523  0.00  0.00    -0.180 NA
ATOM      9  C   UNL     1      -5.104 -11.263  18.793  0.00  0.00    +0.094 C 
ATOM     10  C   UNL     1      -4.505 -10.576  17.555  0.00  0.00    +0.122 C 
ATOM     11  C   UNL     1      -4.712 -12.730  18.593  0.00  0.00    +0.031 C 
ATOM     12  C   UNL     1      -4.826 -12.934  17.090  0.00  0.00    +0.110 C 
ENDROOT
BRANCH   9  13
ATOM      2  O   UNL     1      -7.245 -10.213  18.213  0.00  0.00    -0.420 OA
ATOM      7  N   UNL     1      -7.387 -11.709  19.869  0.00  0.00    -0.112 NA
ATOM      8  N   UNL     1      -8.652 -11.198  19.646  0.00  0.00    -0.107 NA
ATOM     13  C   UNL     1      -6.599 -11.105  19.010  0.00  0.00    +0.222 A 
ATOM     16  C   UNL     1      -8.522 -10.329  18.671  0.00  0.00    +0.248 A 
BRANCH  16  19
ATOM     19  C   UNL     1      -9.498  -9.499  18.027  0.00  0.00    +0.039 A 
ATOM     23  C   UNL     1      -9.088  -8.458  17.193  0.00  0.00    +0.017 A 
ATOM     24  C   UNL     1     -10.857  -9.733  18.234  0.00  0.00    +0.017 A 
ATOM     25  C   UNL     1     -10.038  -7.652  16.567  0.00  0.00    +0.046 A 
ATOM     26  C   UNL     1     -11.807  -8.926  17.607  0.00  0.00    +0.046 A 
ATOM     27  C   UNL     1     -11.397  -7.885  16.774  0.00  0.00    +0.120 A 
BRANCH  27   5
ATOM      5  O   UNL     1     -12.325  -7.100  16.159  0.00  0.00    -0.495 OA
ATOM     28  C   UNL     1     -11.838  -6.077  15.293  0.00  0.00    +0.277 C 
ENDBRANCH  27   5
ENDBRANCH  16  19
ENDBRANCH   9  13
BRANCH   6   1
ATOM      1  S   UNL     1      -4.736 -11.286  14.911  0.00  0.00    +0.036 S 
ATOM      3  O   UNL     1      -5.520 -12.369  14.349  0.00  0.00    -0.158 OA
ATOM      4  O   UNL     1      -3.546 -10.796  14.240  0.00  0.00    -0.158 OA
BRANCH   1  14
ATOM     14  C   UNL     1      -5.823  -9.904  15.159  0.00  0.00    +0.220 C 
BRANCH  14  15
ATOM     15  C   UNL     1      -6.805  -9.885  14.027  0.00  0.00    -0.025 A 
ATOM     17  C   UNL     1      -6.398  -9.479  12.757  0.00  0.00    +0.005 A 
ATOM     18  C   UNL     1      -8.126 -10.273  14.246  0.00  0.00    +0.005 A 
ATOM     20  C   UNL     1      -7.312  -9.462  11.704  0.00  0.00    +0.000 A 
ATOM     21  C   UNL     1      -9.041 -10.257  13.192  0.00  0.00    +0.000 A 
ATOM     22  C   UNL     1      -8.634  -9.850  11.922  0.00  0.00    +0.000 A 
ENDBRANCH  14  15
ENDBRANCH   1  14
ENDBRANCH   6   1
TORSDOF 6
ENDMDL
MODEL 9
REMARK VINA RESULT:      -6.3     22.576     26.107
REMARK  Name = 51137796
REMARK  7 active torsions:
REMARK  status: ('A' for Active; 'I' for Inactive)
REMARK    1  A    between atoms: S_1  and  N_6
REMARK    2  A    between atoms: S_1  and  C_14
REMARK    3  A    between atoms: O_5  and  C_27
REMARK    4  A    between atoms: O_5  and  C_28
REMARK    5  A    between atoms: C_9  and  C_13
REMARK    6  A    between atoms: C_14  and  C_15
REMARK    7  A    between atoms: C_16  and  C_19
REMARK                            x       y       z     vdW  Elec       q    Type
REMARK                         _______ _______ _______ _____ _____    ______ ____
ROOT
ATOM      6  N   UNL     1       0.525  12.502   3.101  0.00  0.00    -0.180 NA
ATOM      9  C   UNL     1      -0.585  12.570   5.248  0.00  0.00    +0.094 C 
ATOM     10  C   UNL     1      -0.775  12.847   3.747  0.00  0.00    +0.122 C 
ATOM     11  C   UNL     1       0.933  12.658   5.423  0.00  0.00    +0.031 C 
ATOM     12  C   UNL     1       1.481  12.051   4.141  0.00  0.00    +0.110 C 
ENDROOT
BRANCH   9  13
ATOM      2  O   UNL     1      -2.203  10.729   5.119  0.00  0.00    -0.420 OA
ATOM      7  N   UNL     1      -0.742  10.538   6.802  0.00  0.00    -0.112 NA
ATOM      8  N   UNL     1      -1.587   9.445   6.845  0.00  0.00    -0.107 NA
ATOM     13  C   UNL     1      -1.138  11.259   5.779  0.00  0.00    +0.222 A 
ATOM     16  C   UNL     1      -2.423   9.598   5.845  0.00  0.00    +0.248 A 
BRANCH  16  19
ATOM     19  C   UNL     1      -3.512   8.773   5.407  0.00  0.00    +0.039 A 
ATOM     23  C   UNL     1      -3.410   7.385   5.483  0.00  0.00    +0.017 A 
ATOM     24  C   UNL     1      -4.674   9.361   4.907  0.00  0.00    +0.017 A 
ATOM     25  C   UNL     1      -4.469   6.583   5.059  0.00  0.00    +0.046 A 
ATOM     26  C   UNL     1      -5.733   8.559   4.481  0.00  0.00    +0.046 A 
ATOM     27  C   UNL     1      -5.630   7.170   4.557  0.00  0.00    +0.120 A 
BRANCH  27   5
ATOM      5  O   UNL     1      -6.666   6.388   4.145  0.00  0.00    -0.495 OA
ATOM     28  C   UNL     1      -7.880   6.474   4.889  0.00  0.00    +0.277 C 
ENDBRANCH  27   5
ENDBRANCH  16  19
ENDBRANCH   9  13
BRANCH   6   1
ATOM      1  S   UNL     1       0.513  11.699   1.609  0.00  0.00    +0.036 S 
ATOM      3  O   UNL     1       1.876  11.397   1.216  0.00  0.00    -0.158 OA
ATOM      4  O   UNL     1      -0.395  12.382   0.706  0.00  0.00    -0.158 OA
BRANCH   1  14
ATOM     14  C   UNL     1      -0.258  10.175   2.098  0.00  0.00    +0.220 C 
BRANCH  14  15
ATOM     15  C   UNL     1      -1.441   9.955   1.206  0.00  0.00    -0.025 A 
ATOM     17  C   UNL     1      -2.719  10.308   1.642  0.00  0.00    +0.005 A 
ATOM     18  C   UNL     1      -1.265   9.395  -0.059  0.00  0.00    +0.005 A 
ATOM     20  C   UNL     1      -3.820  10.103   0.810  0.00  0.00    +0.000 A 
ATOM     21  C   UNL     1      -2.367   9.190  -0.890  0.00  0.00    +0.000 A 
ATOM     22  C   UNL     1      -3.644   9.543  -0.455  0.00  0.00    +0.000 A 
ENDBRANCH  14  15
ENDBRANCH   1  14
ENDBRANCH   6   1
TORSDOF 6
ENDMDL
MODEL 10
REMARK VINA RESULT:      -6.3     31.169     34.895
REMARK  Name = 51137796
REMARK  7 active torsions:
REMARK  status: ('A' for Active; 'I' for Inactive)
REMARK    1  A    between atoms: S_1  and  N_6
REMARK    2  A    between atoms: S_1  and  C_14
REMARK    3  A    between atoms: O_5  and  C_27
REMARK    4  A    between atoms: O_5  and  C_28
REMARK    5  A    between atoms: C_9  and  C_13
REMARK    6  A    between atoms: C_14  and  C_15
REMARK    7  A    between atoms: C_16  and  C_19
REMARK                            x       y       z     vdW  Elec       q    Type
REMARK                         _______ _______ _______ _____ _____    ______ ____
ROOT
ATOM      6  N   UNL     1      10.179   8.915   6.462  0.00  0.00    -0.180 NA
ATOM      9  C   UNL     1       8.858   7.400   5.118  0.00  0.00    +0.094 C 
ATOM     10  C   UNL     1       9.710   8.679   5.065  0.00  0.00    +0.122 C 
ATOM     11  C   UNL     1       8.422   7.339   6.584  0.00  0.00    +0.031 C 
ATOM     12  C   UNL     1       9.635   7.854   7.344  0.00  0.00    +0.110 C 
ENDROOT
BRANCH   9  13
ATOM      2  O   UNL     1       9.974   6.059   3.392  0.00  0.00    -0.420 OA
ATOM      7  N   UNL     1       9.748   5.008   5.353  0.00  0.00    -0.112 NA
ATOM      8  N   UNL     1      10.386   4.147   4.479  0.00  0.00    -0.107 NA
ATOM     13  C   UNL     1       9.527   6.110   4.675  0.00  0.00    +0.222 A 
ATOM     16  C   UNL     1      10.497   4.803   3.347  0.00  0.00    +0.248 A 
BRANCH  16  19
ATOM     19  C   UNL     1      11.073   4.407   2.095  0.00  0.00    +0.039 A 
ATOM     23  C   UNL     1      10.397   4.664   0.903  0.00  0.00    +0.017 A 
ATOM     24  C   UNL     1      12.311   3.765   2.069  0.00  0.00    +0.017 A 
ATOM     25  C   UNL     1      10.957   4.280  -0.314  0.00  0.00    +0.046 A 
ATOM     26  C   UNL     1      12.872   3.379   0.852  0.00  0.00    +0.046 A 
ATOM     27  C   UNL     1      12.195   3.637  -0.340  0.00  0.00    +0.120 A 
BRANCH  27   5
ATOM      5  O   UNL     1      12.745   3.264  -1.529  0.00  0.00    -0.495 OA
ATOM     28  C   UNL     1      12.020   2.316  -2.310  0.00  0.00    +0.277 C 
ENDBRANCH  27   5
ENDBRANCH  16  19
ENDBRANCH   9  13
BRANCH   6   1
ATOM      1  S   UNL     1      11.767   9.445   6.717  0.00  0.00    +0.036 S 
ATOM      3  O   UNL     1      11.838  10.158   7.978  0.00  0.00    -0.158 OA
ATOM      4  O   UNL     1      12.277  10.034   5.493  0.00  0.00    -0.158 OA
BRANCH   1  14
ATOM     14  C   UNL     1      12.572   7.877   6.937  0.00  0.00    +0.220 C 
BRANCH  14  15
ATOM     15  C   UNL     1      13.531   7.692   5.801  0.00  0.00    -0.025 A 
ATOM     17  C   UNL     1      14.885   7.976   5.979  0.00  0.00    +0.005 A 
ATOM     18  C   UNL     1      13.069   7.238   4.567  0.00  0.00    +0.005 A 
ATOM     20  C   UNL     1      15.778   7.803   4.920  0.00  0.00    +0.000 A 
ATOM     21  C   UNL     1      13.962   7.065   3.508  0.00  0.00    +0.000 A 
ATOM     22  C   UNL     1      15.316   7.349   3.686  0.00  0.00    +0.000 A 
ENDBRANCH  14  15
ENDBRANCH   1  14
ENDBRANCH   6   1
TORSDOF 6
ENDMDL
