REMARK  Name = 11886249
REMARK  6 active torsions:
REMARK  status: ('A' for Active; 'I' for Inactive)
REMARK    1  A    between atoms: O_3  and  C_19
REMARK    2  A    between atoms: O_3  and  C_24
REMARK    3  A    between atoms: N_5  and  C_15
REMARK    4  A    between atoms: N_6  and  C_16
REMARK    5  A    between atoms: N_10  and  C_32
REMARK    6  A    between atoms: C_20  and  C_21
REMARK                            x       y       z     vdW  Elec       q    Type
REMARK                         _______ _______ _______ _____ _____    ______ ____
ROOT
ATOM      1  O   UNL     1       2.370   3.054   0.377  0.00  0.00    -0.370 OA
ATOM      2  O   UNL     1       2.204   0.788  -1.764  0.00  0.00    -0.370 OA
ATOM     13  C   UNL     1       1.789   0.874  -0.388  0.00  0.00    +0.176 C 
ATOM     14  C   UNL     1       2.836   1.694   0.340  0.00  0.00    +0.171 C 
ATOM     15  C   UNL     1       0.519   1.697  -0.286  0.00  0.00    +0.171 C 
ATOM     16  C   UNL     1       4.069   1.587  -0.531  0.00  0.00    +0.130 C 
ATOM     17  C   UNL     1       1.046   3.123  -0.171  0.00  0.00    +0.190 C 
ATOM     18  C   UNL     1       3.461   1.464  -1.918  0.00  0.00    +0.185 C 
ENDROOT
BRANCH  15   5
ATOM      5  N   UNL     1      -0.346   1.260   0.813  0.00  0.00    -0.187 N 
ATOM      7  N   UNL     1       0.100   1.242   2.072  0.00  0.00    -0.041 NA
ATOM      8  N   UNL     1      -2.015   0.543   1.984  0.00  0.00    -0.071 NA
ATOM      9  N   UNL     1      -0.927   0.802   2.788  0.00  0.00    -0.020 NA
ATOM     19  C   UNL     1      -1.631   0.836   0.763  0.00  0.00    +0.342 A 
BRANCH  19   3
ATOM      3  O   UNL     1      -2.355   0.738  -0.336  0.00  0.00    -0.423 OA
BRANCH   3  24
ATOM     24  C   UNL     1      -3.670   0.293  -0.328  0.00  0.00    +0.132 A 
ATOM     27  C   UNL     1      -4.688   1.214  -0.173  0.00  0.00    +0.048 A 
ATOM     28  C   UNL     1      -3.922  -1.057  -0.476  0.00  0.00    +0.048 A 
ATOM     30  C   UNL     1      -6.010   0.767  -0.165  0.00  0.00    +0.031 A 
ATOM     31  C   UNL     1      -5.244  -1.504  -0.468  0.00  0.00    +0.031 A 
ATOM     32  C   UNL     1      -6.287  -0.592  -0.313  0.00  0.00    +0.067 A 
BRANCH  32  10
ATOM     10  N   UNL     1      -7.597  -1.035  -0.306  0.00  0.00    -0.220 N 
ATOM     11  N   UNL     1      -7.912  -2.335  -0.444  0.00  0.00    -0.154 NA
ATOM     12  N   UNL     1      -9.787  -1.047  -0.206  0.00  0.00    -0.222 NA
ATOM     33  C   UNL     1      -8.724  -0.278  -0.165  0.00  0.00    +0.225 A 
ATOM     34  C   UNL     1      -9.244  -2.288  -0.377  0.00  0.00    +0.245 A 
ENDBRANCH  32  10
ENDBRANCH   3  24
ENDBRANCH  19   3
ENDBRANCH  15   5
BRANCH  16   6
ATOM      4  O   UNL     1       6.878   1.117  -0.976  0.00  0.00    -0.270 OA
ATOM      6  N   UNL     1       4.818   0.374  -0.211  0.00  0.00    -0.304 N 
ATOM     20  C   UNL     1       6.176   0.247  -0.467  0.00  0.00    +0.244 C 
ATOM     35  H   UNL     1       4.280  -0.425   0.106  0.00  0.00    +0.149 HD
BRANCH  20  21
ATOM     21  C   UNL     1       6.786  -1.060  -0.108  0.00  0.00    +0.037 A 
ATOM     22  C   UNL     1       7.904  -1.484  -0.797  0.00  0.00    +0.013 A 
ATOM     23  C   UNL     1       6.216  -1.806   0.901  0.00  0.00    +0.013 A 
ATOM     25  C   UNL     1       8.477  -2.710  -0.460  0.00  0.00    +0.001 A 
ATOM     26  C   UNL     1       6.789  -3.033   1.238  0.00  0.00    +0.001 A 
ATOM     29  C   UNL     1       7.920  -3.485   0.558  0.00  0.00    +0.000 A 
ENDBRANCH  20  21
ENDBRANCH  16   6
TORSDOF 6
