MODEL 1
REMARK VINA RESULT:      -5.7      0.000      0.000
REMARK  Name = 75368477
REMARK  3 active torsions:
REMARK  status: ('A' for Active; 'I' for Inactive)
REMARK    1  A    between atoms: S_1  and  N_6
REMARK    2  A    between atoms: S_1  and  C_15
REMARK    3  A    between atoms: N_7  and  C_14
REMARK                            x       y       z     vdW  Elec       q    Type
REMARK                         _______ _______ _______ _____ _____    ______ ____
ROOT
ATOM      2  O   UNL     1      17.863   8.135  21.865  0.00  0.00    -0.252 OA
ATOM      5  N   UNL     1      15.737   8.055  20.869  0.00  0.00    -0.278 N 
ATOM      6  N   UNL     1      12.947   7.979  20.715  0.00  0.00    -0.178 NA
ATOM      7  N   UNL     1      17.332   6.675  20.091  0.00  0.00    -0.287 N 
ATOM      8  C   UNL     1      15.124   7.396  19.731  0.00  0.00    +0.111 C 
ATOM      9  C   UNL     1      13.744   6.865  20.102  0.00  0.00    +0.133 C 
ATOM     10  C   UNL     1      16.137   6.319  19.346  0.00  0.00    +0.132 C 
ATOM     11  C   UNL     1      14.990   9.055  21.605  0.00  0.00    +0.127 C 
ATOM     12  C   UNL     1      13.604   8.522  21.952  0.00  0.00    +0.128 C 
ATOM     13  C   UNL     1      17.077   7.682  21.044  0.00  0.00    +0.305 C 
ATOM     14  C   UNL     1      18.577   5.958  19.931  0.00  0.00    +0.133 C 
ENDROOT
BRANCH   6   1
ATOM      1  S   UNL     1      11.265   7.680  20.855  0.00  0.00    +0.029 S 
ATOM      3  O   UNL     1      11.063   6.267  21.087  0.00  0.00    -0.158 OA
ATOM      4  O   UNL     1      10.579   8.384  19.794  0.00  0.00    -0.158 OA
ATOM     15  C   UNL     1      10.951   8.537  22.376  0.00  0.00    +0.215 C 
ENDBRANCH   6   1
TORSDOF 1
ENDMDL
MODEL 2
REMARK VINA RESULT:      -5.5     17.542     19.426
REMARK  Name = 75368477
REMARK  3 active torsions:
REMARK  status: ('A' for Active; 'I' for Inactive)
REMARK    1  A    between atoms: S_1  and  N_6
REMARK    2  A    between atoms: S_1  and  C_15
REMARK    3  A    between atoms: N_7  and  C_14
REMARK                            x       y       z     vdW  Elec       q    Type
REMARK                         _______ _______ _______ _____ _____    ______ ____
ROOT
ATOM      2  O   UNL     1      -3.858   4.429  25.649  0.00  0.00    -0.252 OA
ATOM      5  N   UNL     1      -3.435   2.329  24.685  0.00  0.00    -0.278 N 
ATOM      6  N   UNL     1      -3.453  -0.455  24.421  0.00  0.00    -0.178 NA
ATOM      7  N   UNL     1      -1.764   3.830  24.745  0.00  0.00    -0.287 N 
ATOM      8  C   UNL     1      -2.351   1.695  23.958  0.00  0.00    +0.111 C 
ATOM      9  C   UNL     1      -2.139   0.269  24.454  0.00  0.00    +0.133 C 
ATOM     10  C   UNL     1      -1.165   2.631  24.187  0.00  0.00    +0.132 C 
ATOM     11  C   UNL     1      -4.705   1.643  24.817  0.00  0.00    +0.127 C 
ATOM     12  C   UNL     1      -4.480   0.212  25.292  0.00  0.00    +0.128 C 
ATOM     13  C   UNL     1      -3.115   3.631  25.093  0.00  0.00    +0.305 C 
ATOM     14  C   UNL     1      -0.988   5.020  25.015  0.00  0.00    +0.133 C 
ENDROOT
BRANCH   6   1
ATOM      1  S   UNL     1      -3.352  -2.157  24.586  0.00  0.00    +0.029 S 
ATOM      3  O   UNL     1      -4.168  -2.771  23.563  0.00  0.00    -0.158 OA
ATOM      4  O   UNL     1      -3.498  -2.497  25.984  0.00  0.00    -0.158 OA
ATOM     15  C   UNL     1      -1.650  -2.383  24.141  0.00  0.00    +0.215 C 
ENDBRANCH   6   1
TORSDOF 1
ENDMDL
MODEL 3
REMARK VINA RESULT:      -5.1     31.202     32.059
REMARK  Name = 75368477
REMARK  3 active torsions:
REMARK  status: ('A' for Active; 'I' for Inactive)
REMARK    1  A    between atoms: S_1  and  N_6
REMARK    2  A    between atoms: S_1  and  C_15
REMARK    3  A    between atoms: N_7  and  C_14
REMARK                            x       y       z     vdW  Elec       q    Type
REMARK                         _______ _______ _______ _____ _____    ______ ____
ROOT
ATOM      2  O   UNL     1     -14.017   4.850  34.545  0.00  0.00    -0.252 OA
ATOM      5  N   UNL     1     -15.040   3.543  32.882  0.00  0.00    -0.278 N 
ATOM      6  N   UNL     1     -15.447   1.359  31.185  0.00  0.00    -0.178 NA
ATOM      7  N   UNL     1     -14.735   5.733  32.480  0.00  0.00    -0.287 N 
ATOM      8  C   UNL     1     -15.685   3.771  31.603  0.00  0.00    +0.111 C 
ATOM      9  C   UNL     1     -15.244   2.721  30.589  0.00  0.00    +0.133 C 
ATOM     10  C   UNL     1     -15.290   5.204  31.248  0.00  0.00    +0.132 C 
ATOM     11  C   UNL     1     -15.072   2.221  33.475  0.00  0.00    +0.127 C 
ATOM     12  C   UNL     1     -14.650   1.177  32.446  0.00  0.00    +0.128 C 
ATOM     13  C   UNL     1     -14.535   4.724  33.444  0.00  0.00    +0.305 C 
ATOM     14  C   UNL     1     -14.326   7.115  32.605  0.00  0.00    +0.133 C 
ENDROOT
BRANCH   6   1
ATOM      1  S   UNL     1     -15.360   0.057  30.074  0.00  0.00    +0.029 S 
ATOM      3  O   UNL     1     -15.850   0.509  28.792  0.00  0.00    -0.158 OA
ATOM      4  O   UNL     1     -15.878  -1.132  30.712  0.00  0.00    -0.158 OA
ATOM     15  C   UNL     1     -13.597  -0.103  29.964  0.00  0.00    +0.215 C 
ENDBRANCH   6   1
TORSDOF 1
ENDMDL
MODEL 4
REMARK VINA RESULT:      -5.1      3.581      5.920
REMARK  Name = 75368477
REMARK  3 active torsions:
REMARK  status: ('A' for Active; 'I' for Inactive)
REMARK    1  A    between atoms: S_1  and  N_6
REMARK    2  A    between atoms: S_1  and  C_15
REMARK    3  A    between atoms: N_7  and  C_14
REMARK                            x       y       z     vdW  Elec       q    Type
REMARK                         _______ _______ _______ _____ _____    ______ ____
ROOT
ATOM      2  O   UNL     1      11.129  10.933  25.338  0.00  0.00    -0.252 OA
ATOM      5  N   UNL     1      11.069  10.423  23.046  0.00  0.00    -0.278 N 
ATOM      6  N   UNL     1      11.420   8.922  20.713  0.00  0.00    -0.178 NA
ATOM      7  N   UNL     1      11.820  12.447  23.667  0.00  0.00    -0.287 N 
ATOM      8  C   UNL     1      11.293  11.126  21.797  0.00  0.00    +0.111 C 
ATOM      9  C   UNL     1      12.093  10.258  20.832  0.00  0.00    +0.133 C 
ATOM     10  C   UNL     1      11.996  12.413  22.227  0.00  0.00    +0.132 C 
ATOM     11  C   UNL     1      10.542   9.072  23.022  0.00  0.00    +0.127 C 
ATOM     12  C   UNL     1      11.335   8.219  22.038  0.00  0.00    +0.128 C 
ATOM     13  C   UNL     1      11.312  11.230  24.165  0.00  0.00    +0.305 C 
ATOM     14  C   UNL     1      12.256  13.571  24.466  0.00  0.00    +0.133 C 
ENDROOT
BRANCH   6   1
ATOM      1  S   UNL     1      11.954   7.951  19.406  0.00  0.00    +0.029 S 
ATOM      3  O   UNL     1      11.210   8.318  18.222  0.00  0.00    -0.158 OA
ATOM      4  O   UNL     1      12.044   6.579  19.854  0.00  0.00    -0.158 OA
ATOM     15  C   UNL     1      13.602   8.584  19.240  0.00  0.00    +0.215 C 
ENDBRANCH   6   1
TORSDOF 1
ENDMDL
MODEL 5
REMARK VINA RESULT:      -5.1      1.473      2.684
REMARK  Name = 75368477
REMARK  3 active torsions:
REMARK  status: ('A' for Active; 'I' for Inactive)
REMARK    1  A    between atoms: S_1  and  N_6
REMARK    2  A    between atoms: S_1  and  C_15
REMARK    3  A    between atoms: N_7  and  C_14
REMARK                            x       y       z     vdW  Elec       q    Type
REMARK                         _______ _______ _______ _____ _____    ______ ____
ROOT
ATOM      2  O   UNL     1      17.909   8.514  20.823  0.00  0.00    -0.252 OA
ATOM      5  N   UNL     1      15.691   8.235  21.547  0.00  0.00    -0.278 N 
ATOM      6  N   UNL     1      12.996   7.502  21.424  0.00  0.00    -0.178 NA
ATOM      7  N   UNL     1      16.707  10.197  21.956  0.00  0.00    -0.287 N 
ATOM      8  C   UNL     1      14.735   8.980  22.343  0.00  0.00    +0.111 C 
ATOM      9  C   UNL     1      13.353   8.934  21.698  0.00  0.00    +0.133 C 
ATOM     10  C   UNL     1      15.347  10.377  22.433  0.00  0.00    +0.132 C 
ATOM     11  C   UNL     1      15.374   6.885  21.124  0.00  0.00    +0.127 C 
ATOM     12  C   UNL     1      13.983   6.846  20.501  0.00  0.00    +0.128 C 
ATOM     13  C   UNL     1      16.898   8.927  21.375  0.00  0.00    +0.305 C 
ATOM     14  C   UNL     1      17.674  11.272  21.976  0.00  0.00    +0.133 C 
ENDROOT
BRANCH   6   1
ATOM      1  S   UNL     1      11.348   7.222  21.047  0.00  0.00    +0.029 S 
ATOM      3  O   UNL     1      11.076   5.808  21.179  0.00  0.00    -0.158 OA
ATOM      4  O   UNL     1      11.017   7.953  19.844  0.00  0.00    -0.158 OA
ATOM     15  C   UNL     1      10.599   8.057  22.421  0.00  0.00    +0.215 C 
ENDBRANCH   6   1
TORSDOF 1
ENDMDL
MODEL 6
REMARK VINA RESULT:      -5.1      3.832      4.783
REMARK  Name = 75368477
REMARK  3 active torsions:
REMARK  status: ('A' for Active; 'I' for Inactive)
REMARK    1  A    between atoms: S_1  and  N_6
REMARK    2  A    between atoms: S_1  and  C_15
REMARK    3  A    between atoms: N_7  and  C_14
REMARK                            x       y       z     vdW  Elec       q    Type
REMARK                         _______ _______ _______ _____ _____    ______ ____
ROOT
ATOM      2  O   UNL     1      14.674   9.345  14.726  0.00  0.00    -0.252 OA
ATOM      5  N   UNL     1      14.133   9.143  17.003  0.00  0.00    -0.278 N 
ATOM      6  N   UNL     1      12.799   8.219  19.280  0.00  0.00    -0.178 NA
ATOM      7  N   UNL     1      14.429  11.203  16.157  0.00  0.00    -0.287 N 
ATOM      8  C   UNL     1      14.029  10.025  18.150  0.00  0.00    +0.111 C 
ATOM      9  C   UNL     1      12.789   9.688  18.971  0.00  0.00    +0.133 C 
ATOM     10  C   UNL     1      14.021  11.423  17.533  0.00  0.00    +0.132 C 
ATOM     11  C   UNL     1      14.023   7.709  17.190  0.00  0.00    +0.127 C 
ATOM     12  C   UNL     1      12.792   7.385  18.030  0.00  0.00    +0.128 C 
ATOM     13  C   UNL     1      14.444   9.834  15.824  0.00  0.00    +0.305 C 
ATOM     14  C   UNL     1      14.651  12.299  15.240  0.00  0.00    +0.133 C 
ENDROOT
BRANCH   6   1
ATOM      1  S   UNL     1      11.695   7.722  20.493  0.00  0.00    +0.029 S 
ATOM      3  O   UNL     1      11.567   6.283  20.442  0.00  0.00    -0.158 OA
ATOM      4  O   UNL     1      10.541   8.592  20.453  0.00  0.00    -0.158 OA
ATOM     15  C   UNL     1      12.649   8.139  21.929  0.00  0.00    +0.215 C 
ENDBRANCH   6   1
TORSDOF 1
ENDMDL
MODEL 7
REMARK VINA RESULT:      -5.0      2.961      4.358
REMARK  Name = 75368477
REMARK  3 active torsions:
REMARK  status: ('A' for Active; 'I' for Inactive)
REMARK    1  A    between atoms: S_1  and  N_6
REMARK    2  A    between atoms: S_1  and  C_15
REMARK    3  A    between atoms: N_7  and  C_14
REMARK                            x       y       z     vdW  Elec       q    Type
REMARK                         _______ _______ _______ _____ _____    ______ ____
ROOT
ATOM      2  O   UNL     1      12.038   6.583  19.439  0.00  0.00    -0.252 OA
ATOM      5  N   UNL     1      12.372   7.978  21.299  0.00  0.00    -0.278 N 
ATOM      6  N   UNL     1      11.841  10.009  23.146  0.00  0.00    -0.178 NA
ATOM      7  N   UNL     1      14.109   7.602  19.924  0.00  0.00    -0.287 N 
ATOM      8  C   UNL     1      13.492   8.642  21.939  0.00  0.00    +0.111 C 
ATOM      9  C   UNL     1      13.109  10.062  22.345  0.00  0.00    +0.133 C 
ATOM     10  C   UNL     1      14.606   8.558  20.897  0.00  0.00    +0.132 C 
ATOM     11  C   UNL     1      11.072   7.989  21.941  0.00  0.00    +0.127 C 
ATOM     12  C   UNL     1      10.709   9.409  22.362  0.00  0.00    +0.128 C 
ATOM     13  C   UNL     1      12.749   7.295  20.135  0.00  0.00    +0.305 C 
ATOM     14  C   UNL     1      14.914   7.152  18.810  0.00  0.00    +0.133 C 
ENDROOT
BRANCH   6   1
ATOM      1  S   UNL     1      11.457  11.447  23.996  0.00  0.00    +0.029 S 
ATOM      3  O   UNL     1      10.942  11.091  25.299  0.00  0.00    -0.158 OA
ATOM      4  O   UNL     1      10.738  12.333  23.108  0.00  0.00    -0.158 OA
ATOM     15  C   UNL     1      13.095  12.094  24.210  0.00  0.00    +0.215 C 
ENDBRANCH   6   1
TORSDOF 1
ENDMDL
MODEL 8
REMARK VINA RESULT:      -5.0     31.348     32.158
REMARK  Name = 75368477
REMARK  3 active torsions:
REMARK  status: ('A' for Active; 'I' for Inactive)
REMARK    1  A    between atoms: S_1  and  N_6
REMARK    2  A    between atoms: S_1  and  C_15
REMARK    3  A    between atoms: N_7  and  C_14
REMARK                            x       y       z     vdW  Elec       q    Type
REMARK                         _______ _______ _______ _____ _____    ______ ____
ROOT
ATOM      2  O   UNL     1     -16.041  -0.404  30.284  0.00  0.00    -0.252 OA
ATOM      5  N   UNL     1     -15.047   1.573  31.072  0.00  0.00    -0.278 N 
ATOM      6  N   UNL     1     -14.502   3.681  32.825  0.00  0.00    -0.178 NA
ATOM      7  N   UNL     1     -15.785   1.523  28.950  0.00  0.00    -0.287 N 
ATOM      8  C   UNL     1     -14.636   2.847  30.514  0.00  0.00    +0.111 C 
ATOM      9  C   UNL     1     -15.022   3.988  31.450  0.00  0.00    +0.133 C 
ATOM     10  C   UNL     1     -15.322   2.885  29.150  0.00  0.00    +0.132 C 
ATOM     11  C   UNL     1     -14.701   1.245  32.441  0.00  0.00    +0.127 C 
ATOM     12  C   UNL     1     -15.071   2.400  33.364  0.00  0.00    +0.128 C 
ATOM     13  C   UNL     1     -15.668   0.750  30.122  0.00  0.00    +0.305 C 
ATOM     14  C   UNL     1     -16.408   1.099  27.716  0.00  0.00    +0.133 C 
ENDROOT
BRANCH   6   1
ATOM      1  S   UNL     1     -14.513   5.001  33.918  0.00  0.00    +0.029 S 
ATOM      3  O   UNL     1     -13.792   6.103  33.321  0.00  0.00    -0.158 OA
ATOM      4  O   UNL     1     -14.195   4.510  35.240  0.00  0.00    -0.158 OA
ATOM     15  C   UNL     1     -16.243   5.388  33.876  0.00  0.00    +0.215 C 
ENDBRANCH   6   1
TORSDOF 1
ENDMDL
MODEL 9
REMARK VINA RESULT:      -4.9      3.984      5.328
REMARK  Name = 75368477
REMARK  3 active torsions:
REMARK  status: ('A' for Active; 'I' for Inactive)
REMARK    1  A    between atoms: S_1  and  N_6
REMARK    2  A    between atoms: S_1  and  C_15
REMARK    3  A    between atoms: N_7  and  C_14
REMARK                            x       y       z     vdW  Elec       q    Type
REMARK                         _______ _______ _______ _____ _____    ______ ____
ROOT
ATOM      2  O   UNL     1      13.323  12.262  22.878  0.00  0.00    -0.252 OA
ATOM      5  N   UNL     1      12.857  10.406  21.516  0.00  0.00    -0.278 N 
ATOM      6  N   UNL     1      12.409   8.963  19.163  0.00  0.00    -0.178 NA
ATOM      7  N   UNL     1      11.612  10.714  23.361  0.00  0.00    -0.287 N 
ATOM      8  C   UNL     1      11.998   9.238  21.573  0.00  0.00    +0.111 C 
ATOM      9  C   UNL     1      11.342   8.992  20.219  0.00  0.00    +0.133 C 
ATOM     10  C   UNL     1      11.022   9.561  22.703  0.00  0.00    +0.132 C 
ATOM     11  C   UNL     1      13.833  10.525  20.450  0.00  0.00    +0.127 C 
ATOM     12  C   UNL     1      13.170  10.256  19.103  0.00  0.00    +0.128 C 
ATOM     13  C   UNL     1      12.682  11.253  22.618  0.00  0.00    +0.305 C 
ATOM     14  C   UNL     1      11.046  11.282  24.564  0.00  0.00    +0.133 C 
ENDROOT
BRANCH   6   1
ATOM      1  S   UNL     1      11.915   8.335  17.647  0.00  0.00    +0.029 S 
ATOM      3  O   UNL     1      10.475   8.421  17.556  0.00  0.00    -0.158 OA
ATOM      4  O   UNL     1      12.622   7.097  17.406  0.00  0.00    -0.158 OA
ATOM     15  C   UNL     1      12.608   9.579  16.588  0.00  0.00    +0.215 C 
ENDBRANCH   6   1
TORSDOF 1
ENDMDL
MODEL 10
REMARK VINA RESULT:      -4.8      3.908      5.484
REMARK  Name = 75368477
REMARK  3 active torsions:
REMARK  status: ('A' for Active; 'I' for Inactive)
REMARK    1  A    between atoms: S_1  and  N_6
REMARK    2  A    between atoms: S_1  and  C_15
REMARK    3  A    between atoms: N_7  and  C_14
REMARK                            x       y       z     vdW  Elec       q    Type
REMARK                         _______ _______ _______ _____ _____    ______ ____
ROOT
ATOM      2  O   UNL     1      13.856   7.338  21.406  0.00  0.00    -0.252 OA
ATOM      5  N   UNL     1      12.583   9.227  21.980  0.00  0.00    -0.278 N 
ATOM      6  N   UNL     1      11.900  11.586  23.317  0.00  0.00    -0.178 NA
ATOM      7  N   UNL     1      11.525   7.257  21.754  0.00  0.00    -0.287 N 
ATOM      8  C   UNL     1      11.178   9.548  22.143  0.00  0.00    +0.111 C 
ATOM      9  C   UNL     1      10.968  10.411  23.382  0.00  0.00    +0.133 C 
ATOM     10  C   UNL     1      10.497   8.182  22.197  0.00  0.00    +0.132 C 
ATOM     11  C   UNL     1      13.571  10.287  22.034  0.00  0.00    +0.127 C 
ATOM     12  C   UNL     1      13.339  11.156  23.265  0.00  0.00    +0.128 C 
ATOM     13  C   UNL     1      12.790   7.874  21.676  0.00  0.00    +0.305 C 
ATOM     14  C   UNL     1      11.258   5.849  21.562  0.00  0.00    +0.133 C 
ENDROOT
BRANCH   6   1
ATOM      1  S   UNL     1      11.557  12.851  24.421  0.00  0.00    +0.029 S 
ATOM      3  O   UNL     1      10.307  12.558  25.087  0.00  0.00    -0.158 OA
ATOM      4  O   UNL     1      11.792  14.117  23.763  0.00  0.00    -0.158 OA
ATOM     15  C   UNL     1      12.873  12.580  25.579  0.00  0.00    +0.215 C 
ENDBRANCH   6   1
TORSDOF 1
ENDMDL
