MODEL 1
REMARK VINA RESULT:      -5.4      0.000      0.000
REMARK  Name = 56775453
REMARK  11 active torsions:
REMARK  status: ('A' for Active; 'I' for Inactive)
REMARK    1  A    between atoms: O_3  and  C_23
REMARK    2  A    between atoms: O_3  and  C_24
REMARK    3  A    between atoms: N_4  and  C_6
REMARK    4  A    between atoms: N_4  and  C_11
REMARK    5  A    between atoms: C_6  and  C_9
REMARK    6  A    between atoms: C_9  and  C_10
REMARK    7  A    between atoms: C_11  and  C_15
REMARK    8  A    between atoms: C_12  and  C_14
REMARK    9  A    between atoms: C_12  and  C_16
REMARK   10  A    between atoms: C_12  and  C_17
REMARK   11  A    between atoms: C_12  and  C_18
REMARK                            x       y       z     vdW  Elec       q    Type
REMARK                         _______ _______ _______ _____ _____    ______ ____
ROOT
ATOM      1  O   UNL     1      11.418  12.600  25.346  0.00  0.00    -0.376 OA
ATOM      6  C   UNL     1      12.055  11.673  23.531  0.00  0.00    +0.072 C 
ATOM      7  C   UNL     1      11.008  11.424  24.611  0.00  0.00    +0.184 C 
ATOM      8  C   UNL     1      12.493  12.840  24.410  0.00  0.00    +0.184 C 
ENDROOT
BRANCH   6   4
ATOM      4  N   UNL     1      13.064  10.626  23.606  0.00  0.00    -0.302 NA
ATOM     25  H   UNL     1      13.191  10.213  24.529  0.00  0.00    +0.123 HD
BRANCH   4  11
ATOM     11  C   UNL     1      14.341  11.134  23.110  0.00  0.00    +0.117 C 
BRANCH  11  15
ATOM     15  C   UNL     1      15.089  10.093  22.320  0.00  0.00    -0.033 A 
ATOM     19  C   UNL     1      14.663   8.765  22.338  0.00  0.00    +0.008 A 
ATOM     20  C   UNL     1      16.207  10.456  21.569  0.00  0.00    +0.008 A 
ATOM     21  C   UNL     1      15.355   7.801  21.606  0.00  0.00    +0.046 A 
ATOM     22  C   UNL     1      16.900   9.492  20.837  0.00  0.00    +0.046 A 
ATOM     23  C   UNL     1      16.473   8.163  20.855  0.00  0.00    +0.120 A 
BRANCH  23   3
ATOM      3  O   UNL     1      17.149   7.223  20.141  0.00  0.00    -0.495 OA
ATOM     24  C   UNL     1      16.368   6.295  19.389  0.00  0.00    +0.277 C 
ENDBRANCH  23   3
ENDBRANCH  11  15
ENDBRANCH   4  11
ENDBRANCH   6   4
BRANCH   6   9
ATOM      9  C   UNL     1      11.590  11.955  22.097  0.00  0.00    +0.085 C 
BRANCH   9  10
ATOM      2  O   UNL     1      11.372   8.714  20.612  0.00  0.00    -0.359 OA
ATOM      5  N   UNL     1      11.057   9.635  21.604  0.00  0.00    -0.083 NA
ATOM     10  C   UNL     1      11.702  10.752  21.256  0.00  0.00    +0.086 A 
ATOM     13  C   UNL     1      12.432  10.598  20.064  0.00  0.00    +0.071 A 
ATOM     14  C   UNL     1      12.191   9.299  19.701  0.00  0.00    +0.143 A 
BRANCH  14  12
ATOM     12  C   UNL     1      12.644   8.422  18.521  0.00  0.00    +0.023 C 
ATOM     16  C   UNL     1      12.768   6.954  18.984  0.00  0.00    +0.019 C 
ATOM     17  C   UNL     1      14.015   8.910  18.007  0.00  0.00    +0.019 C 
ATOM     18  C   UNL     1      11.673   8.442  17.319  0.00  0.00    +0.019 C 
ENDBRANCH  14  12
ENDBRANCH   9  10
ENDBRANCH   6   9
TORSDOF 7
ENDMDL
MODEL 2
REMARK VINA RESULT:      -5.0     27.009     28.744
REMARK  Name = 56775453
REMARK  11 active torsions:
REMARK  status: ('A' for Active; 'I' for Inactive)
REMARK    1  A    between atoms: O_3  and  C_23
REMARK    2  A    between atoms: O_3  and  C_24
REMARK    3  A    between atoms: N_4  and  C_6
REMARK    4  A    between atoms: N_4  and  C_11
REMARK    5  A    between atoms: C_6  and  C_9
REMARK    6  A    between atoms: C_9  and  C_10
REMARK    7  A    between atoms: C_11  and  C_15
REMARK    8  A    between atoms: C_12  and  C_14
REMARK    9  A    between atoms: C_12  and  C_16
REMARK   10  A    between atoms: C_12  and  C_17
REMARK   11  A    between atoms: C_12  and  C_18
REMARK                            x       y       z     vdW  Elec       q    Type
REMARK                         _______ _______ _______ _____ _____    ______ ____
ROOT
ATOM      1  O   UNL     1      -2.069 -14.074  14.214  0.00  0.00    -0.376 OA
ATOM      6  C   UNL     1      -2.277 -12.059  13.538  0.00  0.00    +0.072 C 
ATOM      7  C   UNL     1      -3.193 -13.194  13.984  0.00  0.00    +0.184 C 
ATOM      8  C   UNL     1      -1.152 -13.075  13.712  0.00  0.00    +0.184 C 
ENDROOT
BRANCH   6   4
ATOM      4  N   UNL     1      -2.481 -11.823  12.116  0.00  0.00    -0.302 NA
ATOM     25  H   UNL     1      -1.900 -12.388  11.497  0.00  0.00    +0.123 HD
BRANCH   4  11
ATOM     11  C   UNL     1      -2.291 -10.406  11.817  0.00  0.00    +0.117 C 
BRANCH  11  15
ATOM     15  C   UNL     1      -3.491  -9.812  11.129  0.00  0.00    -0.033 A 
ATOM     19  C   UNL     1      -4.730  -9.810  11.768  0.00  0.00    +0.008 A 
ATOM     20  C   UNL     1      -3.364  -9.265   9.852  0.00  0.00    +0.008 A 
ATOM     21  C   UNL     1      -5.843  -9.260  11.131  0.00  0.00    +0.046 A 
ATOM     22  C   UNL     1      -4.475  -8.716   9.214  0.00  0.00    +0.046 A 
ATOM     23  C   UNL     1      -5.716  -8.713   9.854  0.00  0.00    +0.120 A 
BRANCH  23   3
ATOM      3  O   UNL     1      -6.800  -8.177   9.232  0.00  0.00    -0.495 OA
ATOM     24  C   UNL     1      -8.085  -8.589   9.698  0.00  0.00    +0.277 C 
ENDBRANCH  23   3
ENDBRANCH  11  15
ENDBRANCH   4  11
ENDBRANCH   6   4
BRANCH   6   9
ATOM      9  C   UNL     1      -2.244 -10.764  14.361  0.00  0.00    +0.085 C 
BRANCH   9  10
ATOM      2  O   UNL     1      -3.931 -11.106  17.489  0.00  0.00    -0.359 OA
ATOM      5  N   UNL     1      -2.791 -11.158  16.696  0.00  0.00    -0.083 NA
ATOM     10  C   UNL     1      -3.206 -10.816  15.473  0.00  0.00    +0.086 A 
ATOM     13  C   UNL     1      -4.584 -10.539  15.434  0.00  0.00    +0.071 A 
ATOM     14  C   UNL     1      -4.991 -10.737  16.728  0.00  0.00    +0.143 A 
BRANCH  14  12
ATOM     12  C   UNL     1      -6.347 -10.625  17.445  0.00  0.00    +0.023 C 
ATOM     16  C   UNL     1      -7.163 -11.916  17.217  0.00  0.00    +0.019 C 
ATOM     17  C   UNL     1      -7.134  -9.421  16.886  0.00  0.00    +0.019 C 
ATOM     18  C   UNL     1      -6.231 -10.423  18.973  0.00  0.00    +0.019 C 
ENDBRANCH  14  12
ENDBRANCH   9  10
ENDBRANCH   6   9
TORSDOF 7
ENDMDL
MODEL 3
REMARK VINA RESULT:      -5.0     27.290     28.781
REMARK  Name = 56775453
REMARK  11 active torsions:
REMARK  status: ('A' for Active; 'I' for Inactive)
REMARK    1  A    between atoms: O_3  and  C_23
REMARK    2  A    between atoms: O_3  and  C_24
REMARK    3  A    between atoms: N_4  and  C_6
REMARK    4  A    between atoms: N_4  and  C_11
REMARK    5  A    between atoms: C_6  and  C_9
REMARK    6  A    between atoms: C_9  and  C_10
REMARK    7  A    between atoms: C_11  and  C_15
REMARK    8  A    between atoms: C_12  and  C_14
REMARK    9  A    between atoms: C_12  and  C_16
REMARK   10  A    between atoms: C_12  and  C_17
REMARK   11  A    between atoms: C_12  and  C_18
REMARK                            x       y       z     vdW  Elec       q    Type
REMARK                         _______ _______ _______ _____ _____    ______ ____
ROOT
ATOM      1  O   UNL     1      -2.589 -13.782  12.933  0.00  0.00    -0.376 OA
ATOM      6  C   UNL     1      -2.721 -12.093  14.232  0.00  0.00    +0.072 C 
ATOM      7  C   UNL     1      -1.640 -13.051  13.742  0.00  0.00    +0.184 C 
ATOM      8  C   UNL     1      -3.678 -12.971  13.432  0.00  0.00    +0.184 C 
ENDROOT
BRANCH   6   4
ATOM      4  N   UNL     1      -2.946 -12.328  15.652  0.00  0.00    -0.302 NA
ATOM     25  H   UNL     1      -3.764 -12.894  15.871  0.00  0.00    +0.123 HD
BRANCH   4  11
ATOM     11  C   UNL     1      -3.025 -11.050  16.357  0.00  0.00    +0.117 C 
BRANCH  11  15
ATOM     15  C   UNL     1      -4.199 -11.001  17.298  0.00  0.00    -0.033 A 
ATOM     19  C   UNL     1      -4.136 -11.658  18.526  0.00  0.00    +0.008 A 
ATOM     20  C   UNL     1      -5.350 -10.299  16.941  0.00  0.00    +0.008 A 
ATOM     21  C   UNL     1      -5.223 -11.612  19.399  0.00  0.00    +0.046 A 
ATOM     22  C   UNL     1      -6.438 -10.253  17.813  0.00  0.00    +0.046 A 
ATOM     23  C   UNL     1      -6.374 -10.910  19.042  0.00  0.00    +0.120 A 
BRANCH  23   3
ATOM      3  O   UNL     1      -7.435 -10.866  19.893  0.00  0.00    -0.495 OA
ATOM     24  C   UNL     1      -8.614 -11.566  19.496  0.00  0.00    +0.277 C 
ENDBRANCH  23   3
ENDBRANCH  11  15
ENDBRANCH   4  11
ENDBRANCH   6   4
BRANCH   6   9
ATOM      9  C   UNL     1      -2.608 -10.604  13.882  0.00  0.00    +0.085 C 
BRANCH   9  10
ATOM      2  O   UNL     1      -3.013 -10.051  10.378  0.00  0.00    -0.359 OA
ATOM      5  N   UNL     1      -2.236 -10.321  11.497  0.00  0.00    -0.083 NA
ATOM     10  C   UNL     1      -3.096 -10.340  12.519  0.00  0.00    +0.086 A 
ATOM     13  C   UNL     1      -4.417 -10.092  12.109  0.00  0.00    +0.071 A 
ATOM     14  C   UNL     1      -4.310  -9.917  10.754  0.00  0.00    +0.143 A 
BRANCH  14  12
ATOM     12  C   UNL     1      -5.323  -9.615   9.637  0.00  0.00    +0.023 C 
ATOM     16  C   UNL     1      -5.633  -8.102   9.613  0.00  0.00    +0.019 C 
ATOM     17  C   UNL     1      -6.628 -10.397   9.893  0.00  0.00    +0.019 C 
ATOM     18  C   UNL     1      -4.829 -10.002   8.225  0.00  0.00    +0.019 C 
ENDBRANCH  14  12
ENDBRANCH   9  10
ENDBRANCH   6   9
TORSDOF 7
ENDMDL
MODEL 4
REMARK VINA RESULT:      -4.8     29.329     31.772
REMARK  Name = 56775453
REMARK  11 active torsions:
REMARK  status: ('A' for Active; 'I' for Inactive)
REMARK    1  A    between atoms: O_3  and  C_23
REMARK    2  A    between atoms: O_3  and  C_24
REMARK    3  A    between atoms: N_4  and  C_6
REMARK    4  A    between atoms: N_4  and  C_11
REMARK    5  A    between atoms: C_6  and  C_9
REMARK    6  A    between atoms: C_9  and  C_10
REMARK    7  A    between atoms: C_11  and  C_15
REMARK    8  A    between atoms: C_12  and  C_14
REMARK    9  A    between atoms: C_12  and  C_16
REMARK   10  A    between atoms: C_12  and  C_17
REMARK   11  A    between atoms: C_12  and  C_18
REMARK                            x       y       z     vdW  Elec       q    Type
REMARK                         _______ _______ _______ _____ _____    ______ ____
ROOT
ATOM      1  O   UNL     1      -7.733  -9.680  41.744  0.00  0.00    -0.376 OA
ATOM      6  C   UNL     1      -6.911  -8.104  40.563  0.00  0.00    +0.072 C 
ATOM      7  C   UNL     1      -6.716  -9.608  40.720  0.00  0.00    +0.184 C 
ATOM      8  C   UNL     1      -7.901  -8.244  41.714  0.00  0.00    +0.184 C 
ENDROOT
BRANCH   6   4
ATOM      4  N   UNL     1      -5.719  -7.423  41.050  0.00  0.00    -0.302 NA
ATOM     25  H   UNL     1      -5.896  -6.573  41.583  0.00  0.00    +0.123 HD
BRANCH   4  11
ATOM     11  C   UNL     1      -4.825  -7.130  39.932  0.00  0.00    +0.117 C 
BRANCH  11  15
ATOM     15  C   UNL     1      -3.742  -6.159  40.320  0.00  0.00    -0.033 A 
ATOM     19  C   UNL     1      -3.734  -5.599  41.597  0.00  0.00    +0.008 A 
ATOM     20  C   UNL     1      -2.748  -5.819  39.403  0.00  0.00    +0.008 A 
ATOM     21  C   UNL     1      -2.731  -4.699  41.957  0.00  0.00    +0.046 A 
ATOM     22  C   UNL     1      -1.745  -4.919  39.762  0.00  0.00    +0.046 A 
ATOM     23  C   UNL     1      -1.737  -4.359  41.041  0.00  0.00    +0.120 A 
BRANCH  23   3
ATOM      3  O   UNL     1      -0.758  -3.481  41.391  0.00  0.00    -0.495 OA
ATOM     24  C   UNL     1      -0.819  -2.934  42.708  0.00  0.00    +0.277 C 
ENDBRANCH  23   3
ENDBRANCH  11  15
ENDBRANCH   4  11
ENDBRANCH   6   4
BRANCH   6   9
ATOM      9  C   UNL     1      -7.405  -7.556  39.218  0.00  0.00    +0.085 C 
BRANCH   9  10
ATOM      2  O   UNL     1     -10.104  -5.227  39.431  0.00  0.00    -0.359 OA
ATOM      5  N   UNL     1      -9.586  -6.485  39.147  0.00  0.00    -0.083 NA
ATOM     10  C   UNL     1      -8.280  -6.387  39.409  0.00  0.00    +0.086 A 
ATOM     13  C   UNL     1      -7.919  -5.105  39.859  0.00  0.00    +0.071 A 
ATOM     14  C   UNL     1      -9.102  -4.414  39.853  0.00  0.00    +0.143 A 
BRANCH  14  12
ATOM     12  C   UNL     1      -9.494  -2.972  40.217  0.00  0.00    +0.023 C 
ATOM     16  C   UNL     1      -8.788  -1.986  39.260  0.00  0.00    +0.019 C 
ATOM     17  C   UNL     1      -9.067  -2.667  41.668  0.00  0.00    +0.019 C 
ATOM     18  C   UNL     1     -11.011  -2.694  40.120  0.00  0.00    +0.019 C 
ENDBRANCH  14  12
ENDBRANCH   9  10
ENDBRANCH   6   9
TORSDOF 7
ENDMDL
MODEL 5
REMARK VINA RESULT:      -4.7      6.679     10.544
REMARK  Name = 56775453
REMARK  11 active torsions:
REMARK  status: ('A' for Active; 'I' for Inactive)
REMARK    1  A    between atoms: O_3  and  C_23
REMARK    2  A    between atoms: O_3  and  C_24
REMARK    3  A    between atoms: N_4  and  C_6
REMARK    4  A    between atoms: N_4  and  C_11
REMARK    5  A    between atoms: C_6  and  C_9
REMARK    6  A    between atoms: C_9  and  C_10
REMARK    7  A    between atoms: C_11  and  C_15
REMARK    8  A    between atoms: C_12  and  C_14
REMARK    9  A    between atoms: C_12  and  C_16
REMARK   10  A    between atoms: C_12  and  C_17
REMARK   11  A    between atoms: C_12  and  C_18
REMARK                            x       y       z     vdW  Elec       q    Type
REMARK                         _______ _______ _______ _____ _____    ______ ____
ROOT
ATOM      1  O   UNL     1      22.887   8.169  21.400  0.00  0.00    -0.376 OA
ATOM      6  C   UNL     1      21.627   6.499  20.976  0.00  0.00    +0.072 C 
ATOM      7  C   UNL     1      22.014   7.812  20.304  0.00  0.00    +0.184 C 
ATOM      8  C   UNL     1      22.490   6.988  22.134  0.00  0.00    +0.184 C 
ENDROOT
BRANCH   6   4
ATOM      4  N   UNL     1      20.227   6.569  21.371  0.00  0.00    -0.302 NA
ATOM     25  H   UNL     1      20.032   6.266  22.325  0.00  0.00    +0.123 HD
BRANCH   4  11
ATOM     11  C   UNL     1      19.409   5.805  20.432  0.00  0.00    +0.117 C 
BRANCH  11  15
ATOM     15  C   UNL     1      18.038   6.406  20.266  0.00  0.00    -0.033 A 
ATOM     19  C   UNL     1      17.200   5.957  19.246  0.00  0.00    +0.008 A 
ATOM     20  C   UNL     1      17.607   7.411  21.131  0.00  0.00    +0.008 A 
ATOM     21  C   UNL     1      15.930   6.512  19.092  0.00  0.00    +0.046 A 
ATOM     22  C   UNL     1      16.337   7.967  20.977  0.00  0.00    +0.046 A 
ATOM     23  C   UNL     1      15.498   7.517  19.957  0.00  0.00    +0.120 A 
BRANCH  23   3
ATOM      3  O   UNL     1      14.260   8.060  19.807  0.00  0.00    -0.495 OA
ATOM     24  C   UNL     1      13.207   7.177  19.422  0.00  0.00    +0.277 C 
ENDBRANCH  23   3
ENDBRANCH  11  15
ENDBRANCH   4  11
ENDBRANCH   6   4
BRANCH   6   9
ATOM      9  C   UNL     1      21.987   5.177  20.285  0.00  0.00    +0.085 C 
BRANCH   9  10
ATOM      2  O   UNL     1      22.385   2.904  23.010  0.00  0.00    -0.359 OA
ATOM      5  N   UNL     1      21.670   3.864  22.305  0.00  0.00    -0.083 NA
ATOM     10  C   UNL     1      22.443   4.174  21.261  0.00  0.00    +0.086 A 
ATOM     13  C   UNL     1      23.646   3.448  21.253  0.00  0.00    +0.071 A 
ATOM     14  C   UNL     1      23.560   2.664  22.374  0.00  0.00    +0.143 A 
BRANCH  14  12
ATOM     12  C   UNL     1      24.488   1.619  23.016  0.00  0.00    +0.023 C 
ATOM     16  C   UNL     1      25.679   2.331  23.696  0.00  0.00    +0.019 C 
ATOM     17  C   UNL     1      25.022   0.661  21.930  0.00  0.00    +0.019 C 
ATOM     18  C   UNL     1      23.801   0.750  24.093  0.00  0.00    +0.019 C 
ENDBRANCH  14  12
ENDBRANCH   9  10
ENDBRANCH   6   9
TORSDOF 7
ENDMDL
MODEL 6
REMARK VINA RESULT:      -4.6     26.968     28.946
REMARK  Name = 56775453
REMARK  11 active torsions:
REMARK  status: ('A' for Active; 'I' for Inactive)
REMARK    1  A    between atoms: O_3  and  C_23
REMARK    2  A    between atoms: O_3  and  C_24
REMARK    3  A    between atoms: N_4  and  C_6
REMARK    4  A    between atoms: N_4  and  C_11
REMARK    5  A    between atoms: C_6  and  C_9
REMARK    6  A    between atoms: C_9  and  C_10
REMARK    7  A    between atoms: C_11  and  C_15
REMARK    8  A    between atoms: C_12  and  C_14
REMARK    9  A    between atoms: C_12  and  C_16
REMARK   10  A    between atoms: C_12  and  C_17
REMARK   11  A    between atoms: C_12  and  C_18
REMARK                            x       y       z     vdW  Elec       q    Type
REMARK                         _______ _______ _______ _____ _____    ______ ____
ROOT
ATOM      1  O   UNL     1      -6.059 -13.953  16.999  0.00  0.00    -0.376 OA
ATOM      6  C   UNL     1      -4.795 -12.238  16.871  0.00  0.00    +0.072 C 
ATOM      7  C   UNL     1      -5.968 -12.828  16.096  0.00  0.00    +0.184 C 
ATOM      8  C   UNL     1      -4.891 -13.500  17.722  0.00  0.00    +0.184 C 
ENDROOT
BRANCH   6   4
ATOM      4  N   UNL     1      -3.598 -12.319  16.044  0.00  0.00    -0.302 NA
ATOM     25  H   UNL     1      -2.853 -12.902  16.421  0.00  0.00    +0.123 HD
BRANCH   4  11
ATOM     11  C   UNL     1      -3.090 -10.975  15.777  0.00  0.00    +0.117 C 
BRANCH  11  15
ATOM     15  C   UNL     1      -3.055 -10.673  14.303  0.00  0.00    -0.033 A 
ATOM     19  C   UNL     1      -1.832 -10.484  13.660  0.00  0.00    +0.008 A 
ATOM     20  C   UNL     1      -4.244 -10.582  13.580  0.00  0.00    +0.008 A 
ATOM     21  C   UNL     1      -1.798 -10.204  12.293  0.00  0.00    +0.046 A 
ATOM     22  C   UNL     1      -4.211 -10.301  12.214  0.00  0.00    +0.046 A 
ATOM     23  C   UNL     1      -2.987 -10.113  11.571  0.00  0.00    +0.120 A 
BRANCH  23   3
ATOM      3  O   UNL     1      -2.955  -9.839  10.238  0.00  0.00    -0.495 OA
ATOM     24  C   UNL     1      -4.126  -9.258   9.667  0.00  0.00    +0.277 C 
ENDBRANCH  23   3
ENDBRANCH  11  15
ENDBRANCH   4  11
ENDBRANCH   6   4
BRANCH   6   9
ATOM      9  C   UNL     1      -4.963 -10.870  17.547  0.00  0.00    +0.085 C 
BRANCH   9  10
ATOM      2  O   UNL     1      -7.787  -9.171  16.171  0.00  0.00    -0.359 OA
ATOM      5  N   UNL     1      -6.451  -9.553  16.147  0.00  0.00    -0.083 NA
ATOM     10  C   UNL     1      -6.283 -10.289  17.248  0.00  0.00    +0.086 A 
ATOM     13  C   UNL     1      -7.465 -10.406  17.999  0.00  0.00    +0.071 A 
ATOM     14  C   UNL     1      -8.380  -9.684  17.279  0.00  0.00    +0.143 A 
BRANCH  14  12
ATOM     12  C   UNL     1      -9.871  -9.362  17.472  0.00  0.00    +0.023 C 
ATOM     16  C   UNL     1     -10.352  -9.922  18.828  0.00  0.00    +0.019 C 
ATOM     17  C   UNL     1     -10.694 -10.006  16.336  0.00  0.00    +0.019 C 
ATOM     18  C   UNL     1     -10.190  -7.849  17.464  0.00  0.00    +0.019 C 
ENDBRANCH  14  12
ENDBRANCH   9  10
ENDBRANCH   6   9
TORSDOF 7
ENDMDL
MODEL 7
REMARK VINA RESULT:      -4.5     27.321     29.388
REMARK  Name = 56775453
REMARK  11 active torsions:
REMARK  status: ('A' for Active; 'I' for Inactive)
REMARK    1  A    between atoms: O_3  and  C_23
REMARK    2  A    between atoms: O_3  and  C_24
REMARK    3  A    between atoms: N_4  and  C_6
REMARK    4  A    between atoms: N_4  and  C_11
REMARK    5  A    between atoms: C_6  and  C_9
REMARK    6  A    between atoms: C_9  and  C_10
REMARK    7  A    between atoms: C_11  and  C_15
REMARK    8  A    between atoms: C_12  and  C_14
REMARK    9  A    between atoms: C_12  and  C_16
REMARK   10  A    between atoms: C_12  and  C_17
REMARK   11  A    between atoms: C_12  and  C_18
REMARK                            x       y       z     vdW  Elec       q    Type
REMARK                         _______ _______ _______ _____ _____    ______ ____
ROOT
ATOM      1  O   UNL     1      -5.694 -12.609  18.886  0.00  0.00    -0.376 OA
ATOM      6  C   UNL     1      -5.961 -10.951  17.568  0.00  0.00    +0.072 C 
ATOM      7  C   UNL     1      -5.995 -11.208  19.071  0.00  0.00    +0.184 C 
ATOM      8  C   UNL     1      -5.741 -12.456  17.449  0.00  0.00    +0.184 C 
ENDROOT
BRANCH   6   4
ATOM      4  N   UNL     1      -7.309 -10.637  17.115  0.00  0.00    -0.302 NA
ATOM     25  H   UNL     1      -7.527 -10.938  16.166  0.00  0.00    +0.123 HD
BRANCH   4  11
ATOM     11  C   UNL     1      -7.553  -9.203  17.248  0.00  0.00    +0.117 C 
BRANCH  11  15
ATOM     15  C   UNL     1      -8.848  -8.792  16.599  0.00  0.00    -0.033 A 
ATOM     19  C   UNL     1      -9.764  -8.012  17.305  0.00  0.00    +0.008 A 
ATOM     20  C   UNL     1      -9.132  -9.191  15.294  0.00  0.00    +0.008 A 
ATOM     21  C   UNL     1     -10.964  -7.631  16.704  0.00  0.00    +0.046 A 
ATOM     22  C   UNL     1     -10.332  -8.811  14.693  0.00  0.00    +0.046 A 
ATOM     23  C   UNL     1     -11.248  -8.030  15.398  0.00  0.00    +0.120 A 
BRANCH  23   3
ATOM      3  O   UNL     1     -12.418  -7.659  14.812  0.00  0.00    -0.495 OA
ATOM     24  C   UNL     1     -12.358  -6.605  13.852  0.00  0.00    +0.277 C 
ENDBRANCH  23   3
ENDBRANCH  11  15
ENDBRANCH   4  11
ENDBRANCH   6   4
BRANCH   6   9
ATOM      9  C   UNL     1      -4.902  -9.997  17.001  0.00  0.00    +0.085 C 
BRANCH   9  10
ATOM      2  O   UNL     1      -4.765 -10.657  13.494  0.00  0.00    -0.359 OA
ATOM      5  N   UNL     1      -5.425 -10.225  14.638  0.00  0.00    -0.083 NA
ATOM     10  C   UNL     1      -4.535 -10.368  15.624  0.00  0.00    +0.086 A 
ATOM     13  C   UNL     1      -3.308 -10.879  15.167  0.00  0.00    +0.071 A 
ATOM     14  C   UNL     1      -3.506 -11.044  13.821  0.00  0.00    +0.143 A 
BRANCH  14  12
ATOM     12  C   UNL     1      -2.623 -11.554  12.670  0.00  0.00    +0.023 C 
ATOM     16  C   UNL     1      -1.665 -12.646  13.196  0.00  0.00    +0.019 C 
ATOM     17  C   UNL     1      -1.795 -10.387  12.093  0.00  0.00    +0.019 C 
ATOM     18  C   UNL     1      -3.418 -12.172  11.499  0.00  0.00    +0.019 C 
ENDBRANCH  14  12
ENDBRANCH   9  10
ENDBRANCH   6   9
TORSDOF 7
ENDMDL
MODEL 8
REMARK VINA RESULT:      -4.5     26.864     29.785
REMARK  Name = 56775453
REMARK  11 active torsions:
REMARK  status: ('A' for Active; 'I' for Inactive)
REMARK    1  A    between atoms: O_3  and  C_23
REMARK    2  A    between atoms: O_3  and  C_24
REMARK    3  A    between atoms: N_4  and  C_6
REMARK    4  A    between atoms: N_4  and  C_11
REMARK    5  A    between atoms: C_6  and  C_9
REMARK    6  A    between atoms: C_9  and  C_10
REMARK    7  A    between atoms: C_11  and  C_15
REMARK    8  A    between atoms: C_12  and  C_14
REMARK    9  A    between atoms: C_12  and  C_16
REMARK   10  A    between atoms: C_12  and  C_17
REMARK   11  A    between atoms: C_12  and  C_18
REMARK                            x       y       z     vdW  Elec       q    Type
REMARK                         _______ _______ _______ _____ _____    ______ ____
ROOT
ATOM      1  O   UNL     1      -7.614 -13.089  18.824  0.00  0.00    -0.376 OA
ATOM      6  C   UNL     1      -7.386 -11.143  17.977  0.00  0.00    +0.072 C 
ATOM      7  C   UNL     1      -7.952 -11.752  19.255  0.00  0.00    +0.184 C 
ATOM      8  C   UNL     1      -7.147 -12.588  17.550  0.00  0.00    +0.184 C 
ENDROOT
BRANCH   6   4
ATOM      4  N   UNL     1      -8.483 -10.597  17.191  0.00  0.00    -0.302 NA
ATOM     25  H   UNL     1      -8.431 -10.781  16.190  0.00  0.00    +0.123 HD
BRANCH   4  11
ATOM     11  C   UNL     1      -8.591  -9.159  17.426  0.00  0.00    +0.117 C 
BRANCH  11  15
ATOM     15  C   UNL     1      -9.945  -8.628  17.036  0.00  0.00    -0.033 A 
ATOM     19  C   UNL     1     -10.082  -7.300  16.629  0.00  0.00    +0.008 A 
ATOM     20  C   UNL     1     -11.062  -9.461  17.081  0.00  0.00    +0.008 A 
ATOM     21  C   UNL     1     -11.336  -6.808  16.267  0.00  0.00    +0.046 A 
ATOM     22  C   UNL     1     -12.316  -8.969  16.720  0.00  0.00    +0.046 A 
ATOM     23  C   UNL     1     -12.453  -7.642  16.312  0.00  0.00    +0.120 A 
BRANCH  23   3
ATOM      3  O   UNL     1     -13.676  -7.161  15.960  0.00  0.00    -0.495 OA
ATOM     24  C   UNL     1     -13.713  -6.171  14.933  0.00  0.00    +0.277 C 
ENDBRANCH  23   3
ENDBRANCH  11  15
ENDBRANCH   4  11
ENDBRANCH   6   4
BRANCH   6   9
ATOM      9  C   UNL     1      -6.188 -10.189  18.076  0.00  0.00    +0.085 C 
BRANCH   9  10
ATOM      2  O   UNL     1      -4.648 -10.297  14.856  0.00  0.00    -0.359 OA
ATOM      5  N   UNL     1      -5.728 -10.047  15.693  0.00  0.00    -0.083 NA
ATOM     10  C   UNL     1      -5.290 -10.342  16.920  0.00  0.00    +0.086 A 
ATOM     13  C   UNL     1      -3.953 -10.778  16.919  0.00  0.00    +0.071 A 
ATOM     14  C   UNL     1      -3.597 -10.732  15.597  0.00  0.00    +0.143 A 
BRANCH  14  12
ATOM     12  C   UNL     1      -2.305 -11.060  14.831  0.00  0.00    +0.023 C 
ATOM     16  C   UNL     1      -2.290 -10.297  13.488  0.00  0.00    +0.019 C 
ATOM     17  C   UNL     1      -2.233 -12.576  14.555  0.00  0.00    +0.019 C 
ATOM     18  C   UNL     1      -1.015 -10.673  15.588  0.00  0.00    +0.019 C 
ENDBRANCH  14  12
ENDBRANCH   9  10
ENDBRANCH   6   9
TORSDOF 7
ENDMDL
MODEL 9
REMARK VINA RESULT:      -4.5     27.339     29.752
REMARK  Name = 56775453
REMARK  11 active torsions:
REMARK  status: ('A' for Active; 'I' for Inactive)
REMARK    1  A    between atoms: O_3  and  C_23
REMARK    2  A    between atoms: O_3  and  C_24
REMARK    3  A    between atoms: N_4  and  C_6
REMARK    4  A    between atoms: N_4  and  C_11
REMARK    5  A    between atoms: C_6  and  C_9
REMARK    6  A    between atoms: C_9  and  C_10
REMARK    7  A    between atoms: C_11  and  C_15
REMARK    8  A    between atoms: C_12  and  C_14
REMARK    9  A    between atoms: C_12  and  C_16
REMARK   10  A    between atoms: C_12  and  C_17
REMARK   11  A    between atoms: C_12  and  C_18
REMARK                            x       y       z     vdW  Elec       q    Type
REMARK                         _______ _______ _______ _____ _____    ______ ____
ROOT
ATOM      1  O   UNL     1      -5.116 -12.936  18.578  0.00  0.00    -0.376 OA
ATOM      6  C   UNL     1      -5.700 -11.270  17.377  0.00  0.00    +0.072 C 
ATOM      7  C   UNL     1      -5.584 -11.598  18.862  0.00  0.00    +0.184 C 
ATOM      8  C   UNL     1      -5.293 -12.723  17.158  0.00  0.00    +0.184 C 
ENDROOT
BRANCH   6   4
ATOM      4  N   UNL     1      -7.108 -11.120  17.038  0.00  0.00    -0.302 NA
ATOM     25  H   UNL     1      -7.348 -11.357  16.077  0.00  0.00    +0.123 HD
BRANCH   4  11
ATOM     11  C   UNL     1      -7.547  -9.759  17.337  0.00  0.00    +0.117 C 
BRANCH  11  15
ATOM     15  C   UNL     1      -8.962  -9.726  17.849  0.00  0.00    -0.033 A 
ATOM     19  C   UNL     1      -9.887  -8.848  17.284  0.00  0.00    +0.008 A 
ATOM     20  C   UNL     1      -9.349 -10.572  18.887  0.00  0.00    +0.008 A 
ATOM     21  C   UNL     1     -11.199  -8.817  17.757  0.00  0.00    +0.046 A 
ATOM     22  C   UNL     1     -10.660 -10.542  19.361  0.00  0.00    +0.046 A 
ATOM     23  C   UNL     1     -11.586  -9.664  18.795  0.00  0.00    +0.120 A 
BRANCH  23   3
ATOM      3  O   UNL     1     -12.865  -9.633  19.257  0.00  0.00    -0.495 OA
ATOM     24  C   UNL     1     -13.057  -9.864  20.652  0.00  0.00    +0.277 C 
ENDBRANCH  23   3
ENDBRANCH  11  15
ENDBRANCH   4  11
ENDBRANCH   6   4
BRANCH   6   9
ATOM      9  C   UNL     1      -4.822 -10.155  16.792  0.00  0.00    +0.085 C 
BRANCH   9  10
ATOM      2  O   UNL     1      -5.154 -10.332  13.241  0.00  0.00    -0.359 OA
ATOM      5  N   UNL     1      -5.656 -10.075  14.511  0.00  0.00    -0.083 NA
ATOM     10  C   UNL     1      -4.641 -10.327  15.341  0.00  0.00    +0.086 A 
ATOM     13  C   UNL     1      -3.484 -10.741  14.661  0.00  0.00    +0.071 A 
ATOM     14  C   UNL     1      -3.859 -10.728  13.343  0.00  0.00    +0.143 A 
BRANCH  14  12
ATOM     12  C   UNL     1      -3.135 -11.056  12.026  0.00  0.00    +0.023 C 
ATOM     16  C   UNL     1      -1.788 -10.302  11.974  0.00  0.00    +0.019 C 
ATOM     17  C   UNL     1      -4.008 -10.621  10.830  0.00  0.00    +0.019 C 
ATOM     18  C   UNL     1      -2.825 -12.558  11.841  0.00  0.00    +0.019 C 
ENDBRANCH  14  12
ENDBRANCH   9  10
ENDBRANCH   6   9
TORSDOF 7
ENDMDL
MODEL 10
REMARK VINA RESULT:      -4.5      6.500     10.320
REMARK  Name = 56775453
REMARK  11 active torsions:
REMARK  status: ('A' for Active; 'I' for Inactive)
REMARK    1  A    between atoms: O_3  and  C_23
REMARK    2  A    between atoms: O_3  and  C_24
REMARK    3  A    between atoms: N_4  and  C_6
REMARK    4  A    between atoms: N_4  and  C_11
REMARK    5  A    between atoms: C_6  and  C_9
REMARK    6  A    between atoms: C_9  and  C_10
REMARK    7  A    between atoms: C_11  and  C_15
REMARK    8  A    between atoms: C_12  and  C_14
REMARK    9  A    between atoms: C_12  and  C_16
REMARK   10  A    between atoms: C_12  and  C_17
REMARK   11  A    between atoms: C_12  and  C_18
REMARK                            x       y       z     vdW  Elec       q    Type
REMARK                         _______ _______ _______ _____ _____    ______ ____
ROOT
ATOM      1  O   UNL     1      22.097   9.053  20.786  0.00  0.00    -0.376 OA
ATOM      6  C   UNL     1      21.307   7.102  21.146  0.00  0.00    +0.072 C 
ATOM      7  C   UNL     1      22.529   7.711  20.467  0.00  0.00    +0.184 C 
ATOM      8  C   UNL     1      20.870   8.547  21.362  0.00  0.00    +0.184 C 
ENDROOT
BRANCH   6   4
ATOM      4  N   UNL     1      20.456   6.501  20.130  0.00  0.00    -0.302 NA
ATOM     25  H   UNL     1      20.065   7.154  19.453  0.00  0.00    +0.123 HD
BRANCH   4  11
ATOM     11  C   UNL     1      19.380   5.746  20.770  0.00  0.00    +0.117 C 
BRANCH  11  15
ATOM     15  C   UNL     1      18.022   6.258  20.370  0.00  0.00    -0.033 A 
ATOM     19  C   UNL     1      17.335   7.137  21.207  0.00  0.00    +0.008 A 
ATOM     20  C   UNL     1      17.451   5.855  19.163  0.00  0.00    +0.008 A 
ATOM     21  C   UNL     1      16.076   7.612  20.836  0.00  0.00    +0.046 A 
ATOM     22  C   UNL     1      16.193   6.330  18.793  0.00  0.00    +0.046 A 
ATOM     23  C   UNL     1      15.506   7.209  19.630  0.00  0.00    +0.120 A 
BRANCH  23   3
ATOM      3  O   UNL     1      14.278   7.672  19.269  0.00  0.00    -0.495 OA
ATOM     24  C   UNL     1      14.241   8.815  18.416  0.00  0.00    +0.277 C 
ENDBRANCH  23   3
ENDBRANCH  11  15
ENDBRANCH   4  11
ENDBRANCH   6   4
BRANCH   6   9
ATOM      9  C   UNL     1      21.512   6.196  22.368  0.00  0.00    +0.085 C 
BRANCH   9  10
ATOM      2  O   UNL     1      24.650   4.499  22.521  0.00  0.00    -0.359 OA
ATOM      5  N   UNL     1      23.762   5.480  22.945  0.00  0.00    -0.083 NA
ATOM     10  C   UNL     1      22.675   5.313  22.186  0.00  0.00    +0.086 A 
ATOM     13  C   UNL     1      22.817   4.252  21.276  0.00  0.00    +0.071 A 
ATOM     14  C   UNL     1      24.076   3.774  21.527  0.00  0.00    +0.143 A 
BRANCH  14  12
ATOM     12  C   UNL     1      24.921   2.634  20.933  0.00  0.00    +0.023 C 
ATOM     16  C   UNL     1      25.103   2.859  19.416  0.00  0.00    +0.019 C 
ATOM     17  C   UNL     1      24.208   1.284  21.164  0.00  0.00    +0.019 C 
ATOM     18  C   UNL     1      26.332   2.515  21.550  0.00  0.00    +0.019 C 
ENDBRANCH  14  12
ENDBRANCH   9  10
ENDBRANCH   6   9
TORSDOF 7
ENDMDL
