MODEL 1
REMARK VINA RESULT:      -7.1      0.000      0.000
REMARK  Name = 45783782
REMARK  5 active torsions:
REMARK  status: ('A' for Active; 'I' for Inactive)
REMARK    1  A    between atoms: N_3  and  C_8
REMARK    2  A    between atoms: N_7  and  C_23
REMARK    3  A    between atoms: N_7  and  C_24
REMARK    4  A    between atoms: C_9  and  C_17
REMARK    5  A    between atoms: C_18  and  C_19
REMARK                            x       y       z     vdW  Elec       q    Type
REMARK                         _______ _______ _______ _____ _____    ______ ____
ROOT
ATOM      2  O   UNL     1      15.746   6.068  18.354  0.00  0.00    -0.336 OA
ATOM      4  N   UNL     1      16.230   7.512  19.995  0.00  0.00    -0.190 NA
ATOM      5  N   UNL     1      16.996   5.683  18.856  0.00  0.00    -0.056 NA
ATOM     17  C   UNL     1      15.367   7.151  19.079  0.00  0.00    +0.245 A 
ATOM     18  C   UNL     1      17.212   6.582  19.819  0.00  0.00    +0.204 A 
ENDROOT
BRANCH  18  19
ATOM      6  N   UNL     1      19.647   7.522  22.470  0.00  0.00    -0.240 NA
ATOM     19  C   UNL     1      18.400   6.580  20.625  0.00  0.00    +0.041 A 
ATOM     20  C   UNL     1      19.432   5.681  20.377  0.00  0.00    +0.016 A 
ATOM     21  C   UNL     1      18.555   7.472  21.673  0.00  0.00    +0.124 A 
ATOM     22  C   UNL     1      20.570   5.702  21.175  0.00  0.00    +0.044 A 
ATOM     23  C   UNL     1      20.628   6.633  22.199  0.00  0.00    +0.118 A 
BRANCH  23   7
ATOM      7  N   UNL     1      21.794   6.642  23.003  0.00  0.00    -0.332 N 
ATOM     24  C   UNL     1      22.478   5.449  23.382  0.00  0.00    +0.127 C 
ATOM     25  H   UNL     1      22.009   7.502  23.497  0.00  0.00    +0.147 HD
ENDBRANCH  23   7
ENDBRANCH  18  19
BRANCH  17   9
ATOM      3  N   UNL     1      13.554   8.721  19.748  0.00  0.00    -0.288 NA
ATOM      9  C   UNL     1      14.028   7.765  18.726  0.00  0.00    +0.146 C 
ATOM     10  C   UNL     1      12.733   9.705  19.045  0.00  0.00    +0.085 C 
ATOM     11  C   UNL     1      14.073   8.580  17.421  0.00  0.00    +0.030 C 
ATOM     12  C   UNL     1      13.551   9.960  17.795  0.00  0.00    +0.017 C 
BRANCH   3   8
ATOM      1  O   UNL     1      10.333   7.148  21.934  0.00  0.00    -0.380 OA
ATOM      8  C   UNL     1      12.829   8.080  20.843  0.00  0.00    +0.062 C 
ATOM     13  C   UNL     1      12.162   6.782  20.376  0.00  0.00    +0.047 C 
ATOM     14  C   UNL     1      11.777   9.034  21.415  0.00  0.00    +0.047 C 
ATOM     15  C   UNL     1      11.301   6.198  21.491  0.00  0.00    +0.161 C 
ATOM     16  C   UNL     1      10.937   8.324  22.472  0.00  0.00    +0.161 C 
ENDBRANCH   3   8
ENDBRANCH  17   9
TORSDOF 4
ENDMDL
MODEL 2
REMARK VINA RESULT:      -6.6      5.004      6.677
REMARK  Name = 45783782
REMARK  5 active torsions:
REMARK  status: ('A' for Active; 'I' for Inactive)
REMARK    1  A    between atoms: N_3  and  C_8
REMARK    2  A    between atoms: N_7  and  C_23
REMARK    3  A    between atoms: N_7  and  C_24
REMARK    4  A    between atoms: C_9  and  C_17
REMARK    5  A    between atoms: C_18  and  C_19
REMARK                            x       y       z     vdW  Elec       q    Type
REMARK                         _______ _______ _______ _____ _____    ______ ____
ROOT
ATOM      2  O   UNL     1      12.259   7.151  18.694  0.00  0.00    -0.336 OA
ATOM      4  N   UNL     1      13.514   8.981  18.986  0.00  0.00    -0.190 NA
ATOM      5  N   UNL     1      12.738   7.501  17.425  0.00  0.00    -0.056 NA
ATOM     17  C   UNL     1      12.762   8.073  19.554  0.00  0.00    +0.245 A 
ATOM     18  C   UNL     1      13.470   8.589  17.680  0.00  0.00    +0.204 A 
ENDROOT
BRANCH  18  19
ATOM      6  N   UNL     1      15.120   9.330  14.431  0.00  0.00    -0.240 NA
ATOM     19  C   UNL     1      14.168   9.308  16.653  0.00  0.00    +0.041 A 
ATOM     20  C   UNL     1      14.567  10.626  16.845  0.00  0.00    +0.016 A 
ATOM     21  C   UNL     1      14.467   8.710  15.439  0.00  0.00    +0.124 A 
ATOM     22  C   UNL     1      15.242  11.297  15.831  0.00  0.00    +0.044 A 
ATOM     23  C   UNL     1      15.492  10.611  14.654  0.00  0.00    +0.118 A 
BRANCH  23   7
ATOM      7  N   UNL     1      16.180  11.308  13.631  0.00  0.00    -0.332 N 
ATOM     24  C   UNL     1      15.510  11.919  12.529  0.00  0.00    +0.127 C 
ATOM     25  H   UNL     1      17.184  11.171  13.573  0.00  0.00    +0.147 HD
ENDBRANCH  23   7
ENDBRANCH  18  19
BRANCH  17   9
ATOM      3  N   UNL     1      11.386   8.907  21.452  0.00  0.00    -0.288 NA
ATOM      9  C   UNL     1      12.385   7.913  21.012  0.00  0.00    +0.146 C 
ATOM     10  C   UNL     1      10.617   8.274  22.523  0.00  0.00    +0.085 C 
ATOM     11  C   UNL     1      11.738   6.549  21.312  0.00  0.00    +0.030 C 
ATOM     12  C   UNL     1      10.407   6.877  21.974  0.00  0.00    +0.017 C 
BRANCH   3   8
ATOM      1  O   UNL     1      13.033  11.814  23.995  0.00  0.00    -0.380 OA
ATOM      8  C   UNL     1      11.981  10.172  21.877  0.00  0.00    +0.062 C 
ATOM     13  C   UNL     1      13.376   9.953  22.470  0.00  0.00    +0.047 C 
ATOM     14  C   UNL     1      11.080  10.869  22.900  0.00  0.00    +0.047 C 
ATOM     15  C   UNL     1      13.926  11.261  23.028  0.00  0.00    +0.161 C 
ATOM     16  C   UNL     1      11.757  12.126  23.435  0.00  0.00    +0.161 C 
ENDBRANCH   3   8
ENDBRANCH  17   9
TORSDOF 4
ENDMDL
MODEL 3
REMARK VINA RESULT:      -6.5     29.871     32.359
REMARK  Name = 45783782
REMARK  5 active torsions:
REMARK  status: ('A' for Active; 'I' for Inactive)
REMARK    1  A    between atoms: N_3  and  C_8
REMARK    2  A    between atoms: N_7  and  C_23
REMARK    3  A    between atoms: N_7  and  C_24
REMARK    4  A    between atoms: C_9  and  C_17
REMARK    5  A    between atoms: C_18  and  C_19
REMARK                            x       y       z     vdW  Elec       q    Type
REMARK                         _______ _______ _______ _____ _____    ______ ____
ROOT
ATOM      2  O   UNL     1     -14.324   5.354  34.173  0.00  0.00    -0.336 OA
ATOM      4  N   UNL     1     -14.544   5.054  31.966  0.00  0.00    -0.190 NA
ATOM      5  N   UNL     1     -14.227   3.974  33.956  0.00  0.00    -0.056 NA
ATOM     17  C   UNL     1     -14.510   5.915  32.951  0.00  0.00    +0.245 A 
ATOM     18  C   UNL     1     -14.366   3.877  32.631  0.00  0.00    +0.204 A 
ENDROOT
BRANCH  18  19
ATOM      6  N   UNL     1     -13.668   1.346  29.997  0.00  0.00    -0.240 NA
ATOM     19  C   UNL     1     -14.333   2.619  31.942  0.00  0.00    +0.041 A 
ATOM     20  C   UNL     1     -14.901   1.480  32.501  0.00  0.00    +0.016 A 
ATOM     21  C   UNL     1     -13.734   2.500  30.699  0.00  0.00    +0.124 A 
ATOM     22  C   UNL     1     -14.852   0.274  31.811  0.00  0.00    +0.044 A 
ATOM     23  C   UNL     1     -14.230   0.260  30.573  0.00  0.00    +0.118 A 
BRANCH  23   7
ATOM      7  N   UNL     1     -14.189  -0.975  29.881  0.00  0.00    -0.332 N 
ATOM     24  C   UNL     1     -13.054  -1.400  29.129  0.00  0.00    +0.127 C 
ATOM     25  H   UNL     1     -15.071  -1.456  29.741  0.00  0.00    +0.147 HD
ENDBRANCH  23   7
ENDBRANCH  18  19
BRANCH  17   9
ATOM      3  N   UNL     1     -13.611   8.066  32.079  0.00  0.00    -0.288 NA
ATOM      9  C   UNL     1     -14.646   7.423  32.913  0.00  0.00    +0.146 C 
ATOM     10  C   UNL     1     -14.207   9.294  31.554  0.00  0.00    +0.085 C 
ATOM     11  C   UNL     1     -15.982   7.885  32.302  0.00  0.00    +0.030 C 
ATOM     12  C   UNL     1     -15.598   8.829  31.172  0.00  0.00    +0.017 C 
BRANCH   3   8
ATOM      1  O   UNL     1     -10.573  10.214  34.025  0.00  0.00    -0.380 OA
ATOM      8  C   UNL     1     -12.367   8.324  32.802  0.00  0.00    +0.062 C 
ATOM     13  C   UNL     1     -12.646   8.954  34.170  0.00  0.00    +0.047 C 
ATOM     14  C   UNL     1     -11.452   9.236  31.980  0.00  0.00    +0.047 C 
ATOM     15  C   UNL     1     -11.338   9.338  34.852  0.00  0.00    +0.161 C 
ATOM     16  C   UNL     1     -10.210   9.605  32.785  0.00  0.00    +0.161 C 
ENDBRANCH   3   8
ENDBRANCH  17   9
TORSDOF 4
ENDMDL
MODEL 4
REMARK VINA RESULT:      -6.1     26.701     30.014
REMARK  Name = 45783782
REMARK  5 active torsions:
REMARK  status: ('A' for Active; 'I' for Inactive)
REMARK    1  A    between atoms: N_3  and  C_8
REMARK    2  A    between atoms: N_7  and  C_23
REMARK    3  A    between atoms: N_7  and  C_24
REMARK    4  A    between atoms: C_9  and  C_17
REMARK    5  A    between atoms: C_18  and  C_19
REMARK                            x       y       z     vdW  Elec       q    Type
REMARK                         _______ _______ _______ _____ _____    ______ ____
ROOT
ATOM      2  O   UNL     1      -9.437 -11.406  17.302  0.00  0.00    -0.336 OA
ATOM      4  N   UNL     1      -7.985  -9.805  17.887  0.00  0.00    -0.190 NA
ATOM      5  N   UNL     1      -8.166 -11.892  16.970  0.00  0.00    -0.056 NA
ATOM     17  C   UNL     1      -9.240 -10.173  17.836  0.00  0.00    +0.245 A 
ATOM     18  C   UNL     1      -7.364 -10.892  17.345  0.00  0.00    +0.204 A 
ENDROOT
BRANCH  18  19
ATOM      6  N   UNL     1      -3.990 -10.514  15.826  0.00  0.00    -0.240 NA
ATOM     19  C   UNL     1      -5.938 -10.947  17.191  0.00  0.00    +0.041 A 
ATOM     20  C   UNL     1      -5.128 -11.457  18.198  0.00  0.00    +0.016 A 
ATOM     21  C   UNL     1      -5.326 -10.492  16.034  0.00  0.00    +0.124 A 
ATOM     22  C   UNL     1      -3.749 -11.497  18.021  0.00  0.00    +0.044 A 
ATOM     23  C   UNL     1      -3.235 -11.017  16.828  0.00  0.00    +0.118 A 
BRANCH  23   7
ATOM      7  N   UNL     1      -1.829 -11.064  16.662  0.00  0.00    -0.332 N 
ATOM     24  C   UNL     1      -1.146 -10.319  15.655  0.00  0.00    +0.127 C 
ATOM     25  H   UNL     1      -1.333 -11.816  17.128  0.00  0.00    +0.147 HD
ENDBRANCH  23   7
ENDBRANCH  18  19
BRANCH  17   9
ATOM      3  N   UNL     1     -11.572  -9.493  17.292  0.00  0.00    -0.288 NA
ATOM      9  C   UNL     1     -10.479  -9.426  18.283  0.00  0.00    +0.146 C 
ATOM     10  C   UNL     1     -12.821  -9.403  18.047  0.00  0.00    +0.085 C 
ATOM     11  C   UNL     1     -11.088 -10.002  19.574  0.00  0.00    +0.030 C 
ATOM     12  C   UNL     1     -12.538 -10.307  19.229  0.00  0.00    +0.017 C 
BRANCH   3   8
ATOM      1  O   UNL     1     -12.198  -5.836  15.325  0.00  0.00    -0.380 OA
ATOM      8  C   UNL     1     -11.477  -8.462  16.260  0.00  0.00    +0.062 C 
ATOM     13  C   UNL     1     -10.832  -7.187  16.813  0.00  0.00    +0.047 C 
ATOM     14  C   UNL     1     -12.863  -8.145  15.695  0.00  0.00    +0.047 C 
ATOM     15  C   UNL     1     -10.862  -6.080  15.765  0.00  0.00    +0.161 C 
ATOM     16  C   UNL     1     -12.782  -6.984  14.709  0.00  0.00    +0.161 C 
ENDBRANCH   3   8
ENDBRANCH  17   9
TORSDOF 4
ENDMDL
MODEL 5
REMARK VINA RESULT:      -6.1     15.695     18.930
REMARK  Name = 45783782
REMARK  5 active torsions:
REMARK  status: ('A' for Active; 'I' for Inactive)
REMARK    1  A    between atoms: N_3  and  C_8
REMARK    2  A    between atoms: N_7  and  C_23
REMARK    3  A    between atoms: N_7  and  C_24
REMARK    4  A    between atoms: C_9  and  C_17
REMARK    5  A    between atoms: C_18  and  C_19
REMARK                            x       y       z     vdW  Elec       q    Type
REMARK                         _______ _______ _______ _____ _____    ______ ____
ROOT
ATOM      2  O   UNL     1       9.445   7.236   2.310  0.00  0.00    -0.336 OA
ATOM      4  N   UNL     1      10.850   5.785   3.275  0.00  0.00    -0.190 NA
ATOM      5  N   UNL     1       9.105   7.209   3.669  0.00  0.00    -0.056 NA
ATOM     17  C   UNL     1      10.481   6.370   2.164  0.00  0.00    +0.245 A 
ATOM     18  C   UNL     1       9.978   6.331   4.170  0.00  0.00    +0.204 A 
ENDROOT
BRANCH  18  19
ATOM      6  N   UNL     1       9.881   4.260   7.258  0.00  0.00    -0.240 NA
ATOM     19  C   UNL     1      10.004   5.978   5.561  0.00  0.00    +0.041 A 
ATOM     20  C   UNL     1      10.172   6.946   6.544  0.00  0.00    +0.016 A 
ATOM     21  C   UNL     1       9.864   4.660   5.966  0.00  0.00    +0.124 A 
ATOM     22  C   UNL     1      10.195   6.574   7.883  0.00  0.00    +0.044 A 
ATOM     23  C   UNL     1      10.046   5.230   8.185  0.00  0.00    +0.118 A 
BRANCH  23   7
ATOM      7  N   UNL     1      10.071   4.866   9.553  0.00  0.00    -0.332 N 
ATOM     24  C   UNL     1       8.885   4.625  10.308  0.00  0.00    +0.127 C 
ATOM     25  H   UNL     1      10.945   5.000  10.052  0.00  0.00    +0.147 HD
ENDBRANCH  23   7
ENDBRANCH  18  19
BRANCH  17   9
ATOM      3  N   UNL     1      11.687   4.905   0.554  0.00  0.00    -0.288 NA
ATOM      9  C   UNL     1      11.040   6.216   0.765  0.00  0.00    +0.146 C 
ATOM     10  C   UNL     1      11.538   4.596  -0.868  0.00  0.00    +0.085 C 
ATOM     11  C   UNL     1       9.953   6.295  -0.322  0.00  0.00    +0.030 C 
ATOM     12  C   UNL     1      10.106   5.015  -1.131  0.00  0.00    +0.017 C 
BRANCH   3   8
ATOM      1  O   UNL     1      15.737   3.804   0.664  0.00  0.00    -0.380 OA
ATOM      8  C   UNL     1      13.085   4.878   0.979  0.00  0.00    +0.062 C 
ATOM     13  C   UNL     1      14.015   5.308  -0.160  0.00  0.00    +0.047 C 
ATOM     14  C   UNL     1      13.467   3.479   1.468  0.00  0.00    +0.047 C 
ATOM     15  C   UNL     1      15.473   5.146   0.258  0.00  0.00    +0.161 C 
ATOM     16  C   UNL     1      14.955   3.418   1.794  0.00  0.00    +0.161 C 
ENDBRANCH   3   8
ENDBRANCH  17   9
TORSDOF 4
ENDMDL
MODEL 6
REMARK VINA RESULT:      -6.1     26.999     29.239
REMARK  Name = 45783782
REMARK  5 active torsions:
REMARK  status: ('A' for Active; 'I' for Inactive)
REMARK    1  A    between atoms: N_3  and  C_8
REMARK    2  A    between atoms: N_7  and  C_23
REMARK    3  A    between atoms: N_7  and  C_24
REMARK    4  A    between atoms: C_9  and  C_17
REMARK    5  A    between atoms: C_18  and  C_19
REMARK                            x       y       z     vdW  Elec       q    Type
REMARK                         _______ _______ _______ _____ _____    ______ ____
ROOT
ATOM      2  O   UNL     1     -13.225   8.917  18.921  0.00  0.00    -0.336 OA
ATOM      4  N   UNL     1     -11.922   7.418  19.955  0.00  0.00    -0.190 NA
ATOM      5  N   UNL     1     -14.036   8.286  19.872  0.00  0.00    -0.056 NA
ATOM     17  C   UNL     1     -11.998   8.347  19.036  0.00  0.00    +0.245 A 
ATOM     18  C   UNL     1     -13.197   7.416  20.441  0.00  0.00    +0.204 A 
ENDROOT
BRANCH  18  19
ATOM      6  N   UNL     1     -15.270   5.874  23.115  0.00  0.00    -0.240 NA
ATOM     19  C   UNL     1     -13.599   6.531  21.496  0.00  0.00    +0.041 A 
ATOM     20  C   UNL     1     -12.767   5.504  21.927  0.00  0.00    +0.016 A 
ATOM     21  C   UNL     1     -14.829   6.673  22.117  0.00  0.00    +0.124 A 
ATOM     22  C   UNL     1     -13.185   4.662  22.951  0.00  0.00    +0.044 A 
ATOM     23  C   UNL     1     -14.434   4.886  23.507  0.00  0.00    +0.118 A 
BRANCH  23   7
ATOM      7  N   UNL     1     -14.845   4.020  24.549  0.00  0.00    -0.332 N 
ATOM     24  C   UNL     1     -15.998   3.187  24.448  0.00  0.00    +0.127 C 
ATOM     25  H   UNL     1     -14.433   4.169  25.464  0.00  0.00    +0.147 HD
ENDBRANCH  23   7
ENDBRANCH  18  19
BRANCH  17   9
ATOM      3  N   UNL     1     -11.480   9.460  16.870  0.00  0.00    -0.288 NA
ATOM      9  C   UNL     1     -10.923   8.864  18.101  0.00  0.00    +0.146 C 
ATOM     10  C   UNL     1     -10.530  10.484  16.440  0.00  0.00    +0.085 C 
ATOM     11  C   UNL     1     -10.078   9.987  18.731  0.00  0.00    +0.030 C 
ATOM     12  C   UNL     1     -10.171  11.150  17.753  0.00  0.00    +0.017 C 
BRANCH   3   8
ATOM      1  O   UNL     1     -12.270   7.908  13.049  0.00  0.00    -0.380 OA
ATOM      8  C   UNL     1     -11.740   8.475  15.821  0.00  0.00    +0.062 C 
ATOM     13  C   UNL     1     -10.643   8.507  14.753  0.00  0.00    +0.047 C 
ATOM     14  C   UNL     1     -13.106   8.728  15.179  0.00  0.00    +0.047 C 
ATOM     15  C   UNL     1     -10.998   7.572  13.602  0.00  0.00    +0.161 C 
ATOM     16  C   UNL     1     -13.324   7.781  14.004  0.00  0.00    +0.161 C 
ENDBRANCH   3   8
ENDBRANCH  17   9
TORSDOF 4
ENDMDL
MODEL 7
REMARK VINA RESULT:      -6.1     26.519     28.900
REMARK  Name = 45783782
REMARK  5 active torsions:
REMARK  status: ('A' for Active; 'I' for Inactive)
REMARK    1  A    between atoms: N_3  and  C_8
REMARK    2  A    between atoms: N_7  and  C_23
REMARK    3  A    between atoms: N_7  and  C_24
REMARK    4  A    between atoms: C_9  and  C_17
REMARK    5  A    between atoms: C_18  and  C_19
REMARK                            x       y       z     vdW  Elec       q    Type
REMARK                         _______ _______ _______ _____ _____    ______ ____
ROOT
ATOM      2  O   UNL     1      -2.668 -10.660  14.624  0.00  0.00    -0.336 OA
ATOM      4  N   UNL     1      -4.890 -10.685  14.352  0.00  0.00    -0.190 NA
ATOM      5  N   UNL     1      -3.219 -10.623  15.911  0.00  0.00    -0.056 NA
ATOM     17  C   UNL     1      -3.720 -10.695  13.766  0.00  0.00    +0.245 A 
ATOM     18  C   UNL     1      -4.532 -10.641  15.667  0.00  0.00    +0.204 A 
ENDROOT
BRANCH  18  19
ATOM      6  N   UNL     1      -7.840 -10.554  17.365  0.00  0.00    -0.240 NA
ATOM     19  C   UNL     1      -5.512 -10.614  16.715  0.00  0.00    +0.041 A 
ATOM     20  C   UNL     1      -5.132 -10.622  18.052  0.00  0.00    +0.016 A 
ATOM     21  C   UNL     1      -6.866 -10.580  16.426  0.00  0.00    +0.124 A 
ATOM     22  C   UNL     1      -6.104 -10.597  19.046  0.00  0.00    +0.044 A 
ATOM     23  C   UNL     1      -7.432 -10.564  18.654  0.00  0.00    +0.118 A 
BRANCH  23   7
ATOM      7  N   UNL     1      -8.410 -10.538  19.677  0.00  0.00    -0.332 N 
ATOM     24  C   UNL     1      -9.633 -11.268  19.593  0.00  0.00    +0.127 C 
ATOM     25  H   UNL     1      -8.329  -9.808  20.377  0.00  0.00    +0.147 HD
ENDBRANCH  23   7
ENDBRANCH  18  19
BRANCH  17   9
ATOM      3  N   UNL     1      -3.914  -9.574  11.552  0.00  0.00    -0.288 NA
ATOM      9  C   UNL     1      -3.386 -10.740  12.289  0.00  0.00    +0.146 C 
ATOM     10  C   UNL     1      -3.005  -9.350  10.428  0.00  0.00    +0.085 C 
ATOM     11  C   UNL     1      -1.870 -10.718  12.021  0.00  0.00    +0.030 C 
ATOM     12  C   UNL     1      -1.650  -9.544  11.078  0.00  0.00    +0.017 C 
BRANCH   3   8
ATOM      1  O   UNL     1      -7.173 -10.130   8.964  0.00  0.00    -0.380 OA
ATOM      8  C   UNL     1      -5.297  -9.749  11.114  0.00  0.00    +0.062 C 
ATOM     13  C   UNL     1      -5.490 -11.102  10.422  0.00  0.00    +0.047 C 
ATOM     14  C   UNL     1      -5.705  -8.615  10.170  0.00  0.00    +0.047 C 
ATOM     15  C   UNL     1      -6.901 -11.211   9.855  0.00  0.00    +0.161 C 
ATOM     16  C   UNL     1      -7.104  -8.862   9.616  0.00  0.00    +0.161 C 
ENDBRANCH   3   8
ENDBRANCH  17   9
TORSDOF 4
ENDMDL
MODEL 8
REMARK VINA RESULT:      -6.1      2.680      7.865
REMARK  Name = 45783782
REMARK  5 active torsions:
REMARK  status: ('A' for Active; 'I' for Inactive)
REMARK    1  A    between atoms: N_3  and  C_8
REMARK    2  A    between atoms: N_7  and  C_23
REMARK    3  A    between atoms: N_7  and  C_24
REMARK    4  A    between atoms: C_9  and  C_17
REMARK    5  A    between atoms: C_18  and  C_19
REMARK                            x       y       z     vdW  Elec       q    Type
REMARK                         _______ _______ _______ _____ _____    ______ ____
ROOT
ATOM      2  O   UNL     1      18.431   5.716  19.537  0.00  0.00    -0.336 OA
ATOM      4  N   UNL     1      17.647   6.916  21.257  0.00  0.00    -0.190 NA
ATOM      5  N   UNL     1      17.056   5.858  19.318  0.00  0.00    -0.056 NA
ATOM     17  C   UNL     1      18.697   6.368  20.699  0.00  0.00    +0.245 A 
ATOM     18  C   UNL     1      16.665   6.577  20.374  0.00  0.00    +0.204 A 
ENDROOT
BRANCH  18  19
ATOM      6  N   UNL     1      13.627   7.955  22.018  0.00  0.00    -0.240 NA
ATOM     19  C   UNL     1      15.300   6.972  20.576  0.00  0.00    +0.041 A 
ATOM     20  C   UNL     1      14.343   6.777  19.587  0.00  0.00    +0.016 A 
ATOM     21  C   UNL     1      14.895   7.560  21.763  0.00  0.00    +0.124 A 
ATOM     22  C   UNL     1      13.029   7.171  19.811  0.00  0.00    +0.044 A 
ATOM     23  C   UNL     1      12.725   7.750  21.032  0.00  0.00    +0.118 A 
BRANCH  23   7
ATOM      7  N   UNL     1      11.382   8.146  21.246  0.00  0.00    -0.332 N 
ATOM     24  C   UNL     1      10.881   8.511  22.530  0.00  0.00    +0.127 C 
ATOM     25  H   UNL     1      10.717   7.947  20.505  0.00  0.00    +0.147 HD
ENDBRANCH  23   7
ENDBRANCH  18  19
BRANCH  17   9
ATOM      3  N   UNL     1      20.265   6.151  22.619  0.00  0.00    -0.288 NA
ATOM      9  C   UNL     1      20.138   6.362  21.163  0.00  0.00    +0.146 C 
ATOM     10  C   UNL     1      21.549   5.482  22.829  0.00  0.00    +0.085 C 
ATOM     11  C   UNL     1      20.962   5.225  20.530  0.00  0.00    +0.030 C 
ATOM     12  C   UNL     1      21.562   4.467  21.705  0.00  0.00    +0.017 C 
BRANCH   3   8
ATOM      1  O   UNL     1      21.434   9.444  24.947  0.00  0.00    -0.380 OA
ATOM      8  C   UNL     1      20.155   7.386  23.391  0.00  0.00    +0.062 C 
ATOM     13  C   UNL     1      20.973   8.511  22.750  0.00  0.00    +0.047 C 
ATOM     14  C   UNL     1      20.618   7.157  24.832  0.00  0.00    +0.047 C 
ATOM     15  C   UNL     1      20.955   9.751  23.638  0.00  0.00    +0.161 C 
ATOM     16  C   UNL     1      20.621   8.472  25.604  0.00  0.00    +0.161 C 
ENDBRANCH   3   8
ENDBRANCH  17   9
TORSDOF 4
ENDMDL
MODEL 9
REMARK VINA RESULT:      -6.1     27.431     29.133
REMARK  Name = 45783782
REMARK  5 active torsions:
REMARK  status: ('A' for Active; 'I' for Inactive)
REMARK    1  A    between atoms: N_3  and  C_8
REMARK    2  A    between atoms: N_7  and  C_23
REMARK    3  A    between atoms: N_7  and  C_24
REMARK    4  A    between atoms: C_9  and  C_17
REMARK    5  A    between atoms: C_18  and  C_19
REMARK                            x       y       z     vdW  Elec       q    Type
REMARK                         _______ _______ _______ _____ _____    ______ ____
ROOT
ATOM      2  O   UNL     1      -3.237 -11.182  15.349  0.00  0.00    -0.336 OA
ATOM      4  N   UNL     1      -5.075 -10.283  14.442  0.00  0.00    -0.190 NA
ATOM      5  N   UNL     1      -2.958 -11.017  13.987  0.00  0.00    -0.056 NA
ATOM     17  C   UNL     1      -4.502 -10.726  15.532  0.00  0.00    +0.245 A 
ATOM     18  C   UNL     1      -4.089 -10.482  13.520  0.00  0.00    +0.204 A 
ENDROOT
BRANCH  18  19
ATOM      6  N   UNL     1      -5.769  -9.735  10.288  0.00  0.00    -0.240 NA
ATOM     19  C   UNL     1      -4.267 -10.135  12.139  0.00  0.00    +0.041 A 
ATOM     20  C   UNL     1      -3.176  -9.868  11.321  0.00  0.00    +0.016 A 
ATOM     21  C   UNL     1      -5.532 -10.056  11.580  0.00  0.00    +0.124 A 
ATOM     22  C   UNL     1      -3.379  -9.534   9.987  0.00  0.00    +0.044 A 
ATOM     23  C   UNL     1      -4.683  -9.481   9.523  0.00  0.00    +0.118 A 
BRANCH  23   7
ATOM      7  N   UNL     1      -4.875  -9.140   8.162  0.00  0.00    -0.332 N 
ATOM     24  C   UNL     1      -5.769  -9.850   7.307  0.00  0.00    +0.127 C 
ATOM     25  H   UNL     1      -4.192  -8.519   7.740  0.00  0.00    +0.147 HD
ENDBRANCH  23   7
ENDBRANCH  18  19
BRANCH  17   9
ATOM      3  N   UNL     1      -6.260 -11.634  17.042  0.00  0.00    -0.288 NA
ATOM      9  C   UNL     1      -5.048 -10.796  16.944  0.00  0.00    +0.146 C 
ATOM     10  C   UNL     1      -6.269 -12.190  18.395  0.00  0.00    +0.085 C 
ATOM     11  C   UNL     1      -4.054 -11.428  17.935  0.00  0.00    +0.030 C 
ATOM     12  C   UNL     1      -4.816 -12.574  18.585  0.00  0.00    +0.017 C 
BRANCH   3   8
ATOM      1  O   UNL     1      -9.861  -9.572  17.680  0.00  0.00    -0.380 OA
ATOM      8  C   UNL     1      -7.490 -10.905  16.739  0.00  0.00    +0.062 C 
ATOM     13  C   UNL     1      -7.457  -9.496  17.337  0.00  0.00    +0.047 C 
ATOM     14  C   UNL     1      -8.707 -11.670  17.266  0.00  0.00    +0.047 C 
ATOM     15  C   UNL     1      -8.797  -8.799  17.127  0.00  0.00    +0.161 C 
ATOM     16  C   UNL     1      -9.977 -10.853  17.060  0.00  0.00    +0.161 C 
ENDBRANCH   3   8
ENDBRANCH  17   9
TORSDOF 4
ENDMDL
MODEL 10
REMARK VINA RESULT:      -6.1     30.578     32.222
REMARK  Name = 45783782
REMARK  5 active torsions:
REMARK  status: ('A' for Active; 'I' for Inactive)
REMARK    1  A    between atoms: N_3  and  C_8
REMARK    2  A    between atoms: N_7  and  C_23
REMARK    3  A    between atoms: N_7  and  C_24
REMARK    4  A    between atoms: C_9  and  C_17
REMARK    5  A    between atoms: C_18  and  C_19
REMARK                            x       y       z     vdW  Elec       q    Type
REMARK                         _______ _______ _______ _____ _____    ______ ____
ROOT
ATOM      2  O   UNL     1     -14.403  -5.758  14.037  0.00  0.00    -0.336 OA
ATOM      4  N   UNL     1     -12.203  -5.563  14.401  0.00  0.00    -0.190 NA
ATOM      5  N   UNL     1     -14.082  -6.719  15.004  0.00  0.00    -0.056 NA
ATOM     17  C   UNL     1     -13.241  -5.122  13.737  0.00  0.00    +0.245 A 
ATOM     18  C   UNL     1     -12.768  -6.542  15.165  0.00  0.00    +0.204 A 
ENDROOT
BRANCH  18  19
ATOM      6  N   UNL     1     -11.863  -9.198  17.606  0.00  0.00    -0.240 NA
ATOM     19  C   UNL     1     -11.990  -7.326  16.081  0.00  0.00    +0.041 A 
ATOM     20  C   UNL     1     -10.660  -7.014  16.342  0.00  0.00    +0.016 A 
ATOM     21  C   UNL     1     -12.539  -8.418  16.733  0.00  0.00    +0.124 A 
ATOM     22  C   UNL     1      -9.931  -7.793  17.234  0.00  0.00    +0.044 A 
ATOM     23  C   UNL     1     -10.573  -8.864  17.834  0.00  0.00    +0.118 A 
BRANCH  23   7
ATOM      7  N   UNL     1      -9.817  -9.648  18.740  0.00  0.00    -0.332 N 
ATOM     24  C   UNL     1     -10.419 -10.435  19.765  0.00  0.00    +0.127 C 
ATOM     25  H   UNL     1      -8.821  -9.462  18.793  0.00  0.00    +0.147 HD
ENDBRANCH  23   7
ENDBRANCH  18  19
BRANCH  17   9
ATOM      3  N   UNL     1     -13.400  -4.543  11.322  0.00  0.00    -0.288 NA
ATOM      9  C   UNL     1     -13.322  -4.021  12.701  0.00  0.00    +0.146 C 
ATOM     10  C   UNL     1     -14.149  -3.554  10.547  0.00  0.00    +0.085 C 
ATOM     11  C   UNL     1     -14.579  -3.147  12.859  0.00  0.00    +0.030 C 
ATOM     12  C   UNL     1     -15.267  -3.189  11.502  0.00  0.00    +0.017 C 
BRANCH   3   8
ATOM      1  O   UNL     1     -10.489  -5.316   8.396  0.00  0.00    -0.380 OA
ATOM      8  C   UNL     1     -12.090  -4.823  10.738  0.00  0.00    +0.062 C 
ATOM     13  C   UNL     1     -11.662  -3.702   9.785  0.00  0.00    +0.047 C 
ATOM     14  C   UNL     1     -12.112  -6.162   9.996  0.00  0.00    +0.047 C 
ATOM     15  C   UNL     1     -10.359  -4.073   9.084  0.00  0.00    +0.161 C 
ATOM     16  C   UNL     1     -10.784  -6.395   9.283  0.00  0.00    +0.161 C 
ENDBRANCH   3   8
ENDBRANCH  17   9
TORSDOF 4
ENDMDL
