REMARK  Name = 45783430
REMARK  12 active torsions:
REMARK  status: ('A' for Active; 'I' for Inactive)
REMARK    1  A    between atoms: O_2  and  C_17
REMARK    2  A    between atoms: O_3  and  C_23
REMARK    3  A    between atoms: O_3  and  C_28
REMARK    4  A    between atoms: O_4  and  C_24
REMARK    5  A    between atoms: O_4  and  C_29
REMARK    6  A    between atoms: O_5  and  C_30
REMARK    7  A    between atoms: O_5  and  C_31
REMARK    8  A    between atoms: N_6  and  C_14
REMARK    9  A    between atoms: C_10  and  C_15
REMARK   10  A    between atoms: C_14  and  C_16
REMARK   11  A    between atoms: C_19  and  C_22
REMARK   12  A    between atoms: C_29  and  C_30
REMARK                            x       y       z     vdW  Elec       q    Type
REMARK                         _______ _______ _______ _____ _____    ______ ____
ROOT
ATOM      6  N   UNL     1      -2.885  -1.112  -0.018  0.00  0.00    -0.287 NA
ATOM     10  C   UNL     1      -2.460  -1.239   1.390  0.00  0.00    +0.146 C 
ATOM     11  C   UNL     1      -2.599  -2.739   1.707  0.00  0.00    +0.030 C 
ATOM     12  C   UNL     1      -3.165  -3.362   0.439  0.00  0.00    +0.017 C 
ATOM     13  C   UNL     1      -3.834  -2.198  -0.263  0.00  0.00    +0.085 C 
ENDROOT
BRANCH  10  15
ATOM      1  O   UNL     1      -0.922   0.265   2.551  0.00  0.00    -0.336 OA
ATOM      7  N   UNL     1       0.067  -1.080   1.058  0.00  0.00    -0.190 NA
ATOM      8  N   UNL     1       0.443   0.577   2.590  0.00  0.00    -0.056 NA
ATOM     15  C   UNL     1      -1.057  -0.719   1.624  0.00  0.00    +0.245 A 
ATOM     19  C   UNL     1       0.959  -0.257   1.682  0.00  0.00    +0.207 A 
BRANCH  19  22
ATOM      9  N   UNL     1       4.140  -0.695  -0.209  0.00  0.00    -0.221 NA
ATOM     22  C   UNL     1       2.360  -0.295   1.377  0.00  0.00    +0.084 A 
ATOM     24  C   UNL     1       2.830  -0.646   0.122  0.00  0.00    +0.226 A 
ATOM     25  C   UNL     1       3.294   0.028   2.356  0.00  0.00    +0.018 A 
ATOM     26  C   UNL     1       4.651  -0.011   2.053  0.00  0.00    +0.021 A 
ATOM     27  C   UNL     1       5.019  -0.375   0.768  0.00  0.00    +0.114 A 
BRANCH  24   4
ATOM      4  O   UNL     1       1.948  -0.973  -0.875  0.00  0.00    -0.474 OA
BRANCH   4  29
ATOM     29  C   UNL     1       2.509  -1.323  -2.135  0.00  0.00    +0.258 C 
BRANCH  29  30
ATOM     30  C   UNL     1       1.389  -1.672  -3.096  0.00  0.00    +0.200 C 
BRANCH  30   5
ATOM      5  O   UNL     1       0.666  -2.784  -2.581  0.00  0.00    -0.380 OA
ATOM     31  C   UNL     1      -0.413  -3.143  -3.433  0.00  0.00    +0.194 C 
ENDBRANCH  30   5
ENDBRANCH  29  30
ENDBRANCH   4  29
ENDBRANCH  24   4
ENDBRANCH  19  22
ENDBRANCH  10  15
BRANCH   6  14
ATOM     14  C   UNL     1      -3.453   0.193  -0.331  0.00  0.00    +0.124 C 
BRANCH  14  16
ATOM     16  C   UNL     1      -2.385   1.232  -0.549  0.00  0.00    +0.008 A 
ATOM     17  C   UNL     1      -2.339   2.383   0.238  0.00  0.00    +0.125 A 
ATOM     18  C   UNL     1      -1.434   1.033  -1.550  0.00  0.00    +0.012 A 
ATOM     20  C   UNL     1      -1.343   3.335   0.023  0.00  0.00    +0.091 A 
ATOM     21  C   UNL     1      -0.438   1.985  -1.765  0.00  0.00    +0.046 A 
ATOM     23  C   UNL     1      -0.392   3.137  -0.978  0.00  0.00    +0.124 A 
BRANCH  17   2
ATOM      2  O   UNL     1      -3.260   2.593   1.219  0.00  0.00    -0.506 OA
ATOM     32  H   UNL     1      -3.069   3.439   1.659  0.00  0.00    +0.292 HD
ENDBRANCH  17   2
BRANCH  23   3
ATOM      3  O   UNL     1       0.581   4.065  -1.188  0.00  0.00    -0.495 OA
ATOM     28  C   UNL     1       1.521   3.797  -2.227  0.00  0.00    +0.277 C 
ENDBRANCH  23   3
ENDBRANCH  14  16
ENDBRANCH   6  14
TORSDOF 10
