REMARK  Name = 51137280
REMARK  4 active torsions:
REMARK  status: ('A' for Active; 'I' for Inactive)
REMARK    1  A    between atoms: N_4  and  C_11
REMARK    2  A    between atoms: C_7  and  C_12
REMARK    3  A    between atoms: C_11  and  C_13
REMARK    4  A    between atoms: C_14  and  C_17
REMARK                            x       y       z     vdW  Elec       q    Type
REMARK                         _______ _______ _______ _____ _____    ______ ____
ROOT
ATOM      4  N   UNL     1      -2.672   1.334   0.373  0.00  0.00    -0.297 NA
ATOM      7  C   UNL     1      -0.361   1.109   0.702  0.00  0.00    +0.092 C 
ATOM      8  C   UNL     1      -0.750   2.596   0.776  0.00  0.00    +0.029 C 
ATOM      9  C   UNL     1      -1.571   0.424   0.052  0.00  0.00    +0.097 C 
ATOM     10  C   UNL     1      -2.133   2.674   0.144  0.00  0.00    +0.085 C 
ENDROOT
BRANCH   7  12
ATOM      2  O   UNL     1       1.915   0.207   0.692  0.00  0.00    -0.418 OA
ATOM      5  N   UNL     1       1.276   1.092  -1.261  0.00  0.00    -0.112 NA
ATOM      6  N   UNL     1       2.569   0.625  -1.406  0.00  0.00    -0.104 NA
ATOM     12  C   UNL     1       0.935   0.827  -0.021  0.00  0.00    +0.222 A 
ATOM     14  C   UNL     1       2.901   0.117  -0.242  0.00  0.00    +0.284 A 
BRANCH  14  17
ATOM      3  O   UNL     1       5.135  -0.546  -0.927  0.00  0.00    -0.458 OA
ATOM     17  C   UNL     1       4.164  -0.468   0.020  0.00  0.00    +0.191 A 
ATOM     19  C   UNL     1       4.596  -1.022   1.202  0.00  0.00    +0.055 A 
ATOM     20  C   UNL     1       5.918  -1.469   0.967  0.00  0.00    +0.042 A 
ATOM     21  C   UNL     1       6.199  -1.157  -0.343  0.00  0.00    +0.196 A 
ENDBRANCH  14  17
ENDBRANCH   7  12
BRANCH   4  11
ATOM     11  C   UNL     1      -3.861   1.071  -0.425  0.00  0.00    +0.126 C 
BRANCH  11  13
ATOM      1  S   UNL     1      -4.550  -1.404  -1.491  0.00  0.00    -0.100 S 
ATOM     13  C   UNL     1      -4.406  -0.311  -0.181  0.00  0.00    +0.004 A 
ATOM     15  C   UNL     1      -4.833  -0.867   1.005  0.00  0.00    +0.012 A 
ATOM     16  C   UNL     1      -5.285  -2.207   0.836  0.00  0.00    +0.008 A 
ATOM     18  C   UNL     1      -5.186  -2.625  -0.472  0.00  0.00    +0.045 A 
ENDBRANCH  11  13
ENDBRANCH   4  11
TORSDOF 4
