REMARK  Name = 75536855
REMARK  4 active torsions:
REMARK  status: ('A' for Active; 'I' for Inactive)
REMARK    1  A    between atoms: O_2  and  C_8
REMARK    2  A    between atoms: O_2  and  C_14
REMARK    3  A    between atoms: C_13  and  C_15
REMARK    4  A    between atoms: C_18  and  C_21
REMARK                            x       y       z     vdW  Elec       q    Type
REMARK                         _______ _______ _______ _____ _____    ______ ____
ROOT
ATOM      1  O   UNL     1      -0.909  -2.713  -0.720  0.00  0.00    -0.375 OA
ATOM      3  O   UNL     1       3.673  -2.066   0.654  0.00  0.00    -0.268 OA
ATOM      4  N   UNL     1       1.497  -1.199   0.600  0.00  0.00    -0.290 N 
ATOM      8  C   UNL     1      -0.833  -0.372  -0.036  0.00  0.00    +0.218 C 
ATOM      9  C   UNL     1       0.611  -0.053   0.362  0.00  0.00    +0.155 C 
ATOM     10  C   UNL     1       0.891  -2.491   0.924  0.00  0.00    +0.136 C 
ATOM     11  C   UNL     1      -0.932  -1.368  -1.189  0.00  0.00    +0.206 C 
ATOM     12  C   UNL     1       0.376  -3.185  -0.330  0.00  0.00    +0.179 C 
ATOM     13  C   UNL     1       2.896  -1.126   0.495  0.00  0.00    +0.267 C 
ENDROOT
BRANCH  13  15
ATOM      6  N   UNL     1       3.270   1.183   1.030  0.00  0.00    -0.247 NA
ATOM      7  N   UNL     1       4.833   1.529  -1.272  0.00  0.00    -0.259 NA
ATOM     15  C   UNL     1       3.505   0.173   0.169  0.00  0.00    +0.144 A 
ATOM     17  C   UNL     1       4.273   0.344  -0.962  0.00  0.00    +0.143 A 
ATOM     22  C   UNL     1       3.831   2.369   0.720  0.00  0.00    +0.131 A 
ATOM     23  C   UNL     1       4.599   2.539  -0.411  0.00  0.00    +0.130 A 
ENDBRANCH  13  15
BRANCH   8   2
ATOM      2  O   UNL     1      -1.432   0.862  -0.435  0.00  0.00    -0.469 OA
BRANCH   2  14
ATOM      5  N   UNL     1      -3.515  -0.127  -0.193  0.00  0.00    -0.218 NA
ATOM     14  C   UNL     1      -2.769   1.001  -0.184  0.00  0.00    +0.215 A 
ATOM     16  C   UNL     1      -3.279   2.266   0.059  0.00  0.00    +0.067 A 
ATOM     18  C   UNL     1      -4.835   0.024   0.055  0.00  0.00    +0.042 A 
ATOM     19  C   UNL     1      -4.642   2.381   0.309  0.00  0.00    +0.007 A 
ATOM     20  C   UNL     1      -5.442   1.244   0.309  0.00  0.00    +0.023 A 
ATOM     21  C   UNL     1      -5.663  -1.217   0.044  0.00  0.00    +0.066 C 
ENDBRANCH   2  14
ENDBRANCH   8   2
TORSDOF 3
