MODEL 1
REMARK VINA RESULT:      -7.1      0.000      0.000
REMARK  Name = 38030912
REMARK  15 active torsions:
REMARK  status: ('A' for Active; 'I' for Inactive)
REMARK    1  A    between atoms: O_2  and  C_26
REMARK    2  A    between atoms: O_2  and  C_29
REMARK    3  A    between atoms: O_3  and  C_34
REMARK    4  A    between atoms: O_3  and  C_35
REMARK    5  A    between atoms: N_4  and  C_13
REMARK    6  A    between atoms: N_5  and  C_25
REMARK    7  A    between atoms: C_8  and  C_12
REMARK    8  A    between atoms: C_9  and  C_13
REMARK    9  A    between atoms: C_11  and  C_16
REMARK   10  A    between atoms: C_12  and  C_19
REMARK   11  A    between atoms: C_12  and  C_20
REMARK   12  A    between atoms: C_15  and  C_23
REMARK   13  A    between atoms: C_16  and  C_24
REMARK   14  A    between atoms: C_25  and  C_26
REMARK   15  A    between atoms: C_27  and  C_28
REMARK                            x       y       z     vdW  Elec       q    Type
REMARK                         _______ _______ _______ _____ _____    ______ ____
ROOT
ATOM      8  C   UNL     1      -5.376 -10.519  10.859  0.00  0.00    +0.000 C 
ATOM      9  C   UNL     1      -4.625 -10.195   9.547  0.00  0.00    +0.029 C 
ATOM     10  C   UNL     1      -4.437 -11.208  11.861  0.00  0.00    +0.012 C 
ATOM     11  C   UNL     1      -3.173 -10.381  12.182  0.00  0.00    +0.024 C 
ATOM     14  C   UNL     1      -3.256  -9.615   9.791  0.00  0.00    -0.023 C 
ATOM     15  C   UNL     1      -2.596  -9.677  10.963  0.00  0.00    -0.073 C 
ATOM     23  C   UNL     1      -1.267  -8.989  11.122  0.00  0.00    +0.039 C 
ENDROOT
BRANCH   8  12
ATOM     12  C   UNL     1      -6.009  -9.260  11.468  0.00  0.00    -0.013 C 
ATOM     19  C   UNL     1      -7.098  -8.715  10.550  0.00  0.00    +0.007 C 
ATOM     20  C   UNL     1      -6.570  -9.564  12.854  0.00  0.00    +0.007 C 
ENDBRANCH   8  12
BRANCH   9  13
ATOM     13  C   UNL     1      -4.497 -11.428   8.648  0.00  0.00    +0.092 C 
BRANCH  13   4
ATOM      4  N   UNL     1      -4.880 -11.108   7.274  0.00  0.00    -0.299 NA
ATOM      5  N   UNL     1      -6.676 -11.212   5.011  0.00  0.00    -0.298 NA
ATOM     17  C   UNL     1      -5.030 -12.330   6.476  0.00  0.00    +0.100 C 
ATOM     18  C   UNL     1      -6.121 -10.322   7.248  0.00  0.00    +0.100 C 
ATOM     21  C   UNL     1      -5.435 -11.997   5.036  0.00  0.00    +0.100 C 
ATOM     22  C   UNL     1      -6.523  -9.988   5.807  0.00  0.00    +0.100 C 
BRANCH   5  25
ATOM     25  C   UNL     1      -7.059 -10.893   3.637  0.00  0.00    +0.112 C 
BRANCH  25  26
ATOM     26  C   UNL     1      -7.957  -9.666   3.602  0.00  0.00    +0.174 C 
BRANCH  26   2
ATOM      2  O   UNL     1      -7.583  -8.857   2.495  0.00  0.00    -0.382 OA
ATOM     29  C   UNL     1      -8.257  -7.606   2.512  0.00  0.00    +0.194 C 
ENDBRANCH  26   2
ENDBRANCH  25  26
ENDBRANCH   5  25
ENDBRANCH  13   4
ENDBRANCH   9  13
BRANCH  11  16
ATOM     16  C   UNL     1      -2.157 -11.292  12.882  0.00  0.00    +0.105 C 
BRANCH  16  24
ATOM      1  O   UNL     1      -3.428 -11.134  14.959  0.00  0.00    -0.420 OA
ATOM      6  N   UNL     1      -1.214 -10.942  15.223  0.00  0.00    -0.112 NA
ATOM      7  N   UNL     1      -1.804 -10.836  16.468  0.00  0.00    -0.107 NA
ATOM     24  C   UNL     1      -2.200 -11.116  14.373  0.00  0.00    +0.218 A 
ATOM     27  C   UNL     1      -3.095 -10.953  16.267  0.00  0.00    +0.248 A 
BRANCH  27  28
ATOM     28  C   UNL     1      -4.188 -10.921  17.194  0.00  0.00    +0.039 A 
ATOM     30  C   UNL     1      -5.355 -10.224  16.876  0.00  0.00    +0.017 A 
ATOM     31  C   UNL     1      -4.086 -11.589  18.415  0.00  0.00    +0.017 A 
ATOM     32  C   UNL     1      -6.417 -10.195  17.778  0.00  0.00    +0.046 A 
ATOM     33  C   UNL     1      -5.150 -11.559  19.317  0.00  0.00    +0.046 A 
ATOM     34  C   UNL     1      -6.316 -10.862  18.999  0.00  0.00    +0.120 A 
BRANCH  34   3
ATOM      3  O   UNL     1      -7.354 -10.836  19.878  0.00  0.00    -0.495 OA
ATOM     35  C   UNL     1      -8.650 -11.138  19.361  0.00  0.00    +0.277 C 
ENDBRANCH  34   3
ENDBRANCH  27  28
ENDBRANCH  16  24
ENDBRANCH  11  16
TORSDOF 10
ENDMDL
MODEL 2
REMARK VINA RESULT:      -6.5      3.887      5.890
REMARK  Name = 38030912
REMARK  15 active torsions:
REMARK  status: ('A' for Active; 'I' for Inactive)
REMARK    1  A    between atoms: O_2  and  C_26
REMARK    2  A    between atoms: O_2  and  C_29
REMARK    3  A    between atoms: O_3  and  C_34
REMARK    4  A    between atoms: O_3  and  C_35
REMARK    5  A    between atoms: N_4  and  C_13
REMARK    6  A    between atoms: N_5  and  C_25
REMARK    7  A    between atoms: C_8  and  C_12
REMARK    8  A    between atoms: C_9  and  C_13
REMARK    9  A    between atoms: C_11  and  C_16
REMARK   10  A    between atoms: C_12  and  C_19
REMARK   11  A    between atoms: C_12  and  C_20
REMARK   12  A    between atoms: C_15  and  C_23
REMARK   13  A    between atoms: C_16  and  C_24
REMARK   14  A    between atoms: C_25  and  C_26
REMARK   15  A    between atoms: C_27  and  C_28
REMARK                            x       y       z     vdW  Elec       q    Type
REMARK                         _______ _______ _______ _____ _____    ______ ____
ROOT
ATOM      8  C   UNL     1      -4.525 -10.028  11.860  0.00  0.00    +0.000 C 
ATOM      9  C   UNL     1      -5.738 -10.885  12.289  0.00  0.00    +0.029 C 
ATOM     10  C   UNL     1      -3.247 -10.514  12.559  0.00  0.00    +0.012 C 
ATOM     11  C   UNL     1      -2.940 -12.005  12.304  0.00  0.00    +0.024 C 
ATOM     14  C   UNL     1      -5.426 -12.359  12.313  0.00  0.00    -0.023 C 
ATOM     15  C   UNL     1      -4.185 -12.879  12.308  0.00  0.00    -0.073 C 
ATOM     23  C   UNL     1      -3.987 -14.369  12.246  0.00  0.00    +0.039 C 
ENDROOT
BRANCH   8  12
ATOM     12  C   UNL     1      -4.355 -10.024  10.334  0.00  0.00    -0.013 C 
ATOM     19  C   UNL     1      -5.679  -9.696   9.652  0.00  0.00    +0.007 C 
ATOM     20  C   UNL     1      -3.272  -9.031   9.922  0.00  0.00    +0.007 C 
ENDBRANCH   8  12
BRANCH   9  13
ATOM     13  C   UNL     1      -6.273 -10.461  13.660  0.00  0.00    +0.092 C 
BRANCH  13   4
ATOM      4  N   UNL     1      -7.735 -10.498  13.678  0.00  0.00    -0.299 NA
ATOM      5  N   UNL     1     -10.341  -9.251  13.762  0.00  0.00    -0.298 NA
ATOM     17  C   UNL     1      -8.256  -9.906  14.915  0.00  0.00    +0.100 C 
ATOM     18  C   UNL     1      -8.289  -9.810  12.506  0.00  0.00    +0.100 C 
ATOM     21  C   UNL     1      -9.788  -9.940  14.934  0.00  0.00    +0.100 C 
ATOM     22  C   UNL     1      -9.821  -9.847  12.526  0.00  0.00    +0.100 C 
BRANCH   5  25
ATOM     25  C   UNL     1     -11.802  -9.288  13.781  0.00  0.00    +0.112 C 
BRANCH  25  26
ATOM     26  C   UNL     1     -12.366  -7.967  14.280  0.00  0.00    +0.174 C 
BRANCH  26   2
ATOM      2  O   UNL     1     -11.287  -7.132  14.683  0.00  0.00    -0.382 OA
ATOM     29  C   UNL     1     -11.741  -5.842  15.066  0.00  0.00    +0.194 C 
ENDBRANCH  26   2
ENDBRANCH  25  26
ENDBRANCH   5  25
ENDBRANCH  13   4
ENDBRANCH   9  13
BRANCH  11  16
ATOM     16  C   UNL     1      -1.883 -12.467  13.314  0.00  0.00    +0.105 C 
BRANCH  16  24
ATOM      1  O   UNL     1      -3.227 -11.897  15.270  0.00  0.00    -0.420 OA
ATOM      6  N   UNL     1      -1.176 -11.002  15.275  0.00  0.00    -0.112 NA
ATOM      7  N   UNL     1      -1.821 -10.601  16.430  0.00  0.00    -0.107 NA
ATOM     24  C   UNL     1      -2.034 -11.757  14.629  0.00  0.00    +0.218 A 
ATOM     27  C   UNL     1      -3.014 -11.146  16.385  0.00  0.00    +0.248 A 
BRANCH  27  28
ATOM     28  C   UNL     1      -4.106 -11.074  17.312  0.00  0.00    +0.039 A 
ATOM     30  C   UNL     1      -4.059 -11.798  18.504  0.00  0.00    +0.017 A 
ATOM     31  C   UNL     1      -5.216 -10.280  17.022  0.00  0.00    +0.017 A 
ATOM     32  C   UNL     1      -5.120 -11.727  19.405  0.00  0.00    +0.046 A 
ATOM     33  C   UNL     1      -6.277 -10.210  17.924  0.00  0.00    +0.046 A 
ATOM     34  C   UNL     1      -6.230 -10.934  19.116  0.00  0.00    +0.120 A 
BRANCH  34   3
ATOM      3  O   UNL     1      -7.264 -10.863  19.997  0.00  0.00    -0.495 OA
ATOM     35  C   UNL     1      -8.573 -11.106  19.482  0.00  0.00    +0.277 C 
ENDBRANCH  34   3
ENDBRANCH  27  28
ENDBRANCH  16  24
ENDBRANCH  11  16
TORSDOF 10
ENDMDL
MODEL 3
REMARK VINA RESULT:      -6.4     20.986     22.641
REMARK  Name = 38030912
REMARK  15 active torsions:
REMARK  status: ('A' for Active; 'I' for Inactive)
REMARK    1  A    between atoms: O_2  and  C_26
REMARK    2  A    between atoms: O_2  and  C_29
REMARK    3  A    between atoms: O_3  and  C_34
REMARK    4  A    between atoms: O_3  and  C_35
REMARK    5  A    between atoms: N_4  and  C_13
REMARK    6  A    between atoms: N_5  and  C_25
REMARK    7  A    between atoms: C_8  and  C_12
REMARK    8  A    between atoms: C_9  and  C_13
REMARK    9  A    between atoms: C_11  and  C_16
REMARK   10  A    between atoms: C_12  and  C_19
REMARK   11  A    between atoms: C_12  and  C_20
REMARK   12  A    between atoms: C_15  and  C_23
REMARK   13  A    between atoms: C_16  and  C_24
REMARK   14  A    between atoms: C_25  and  C_26
REMARK   15  A    between atoms: C_27  and  C_28
REMARK                            x       y       z     vdW  Elec       q    Type
REMARK                         _______ _______ _______ _____ _____    ______ ____
ROOT
ATOM      8  C   UNL     1     -13.512   8.675  20.646  0.00  0.00    +0.000 C 
ATOM      9  C   UNL     1     -12.146   8.018  20.343  0.00  0.00    +0.029 C 
ATOM     10  C   UNL     1     -14.634   7.628  20.605  0.00  0.00    +0.012 C 
ATOM     11  C   UNL     1     -14.406   6.448  21.573  0.00  0.00    +0.024 C 
ATOM     14  C   UNL     1     -11.960   6.709  21.066  0.00  0.00    -0.023 C 
ATOM     15  C   UNL     1     -12.953   5.999  21.632  0.00  0.00    -0.073 C 
ATOM     23  C   UNL     1     -12.644   4.746  22.406  0.00  0.00    +0.039 C 
ENDROOT
BRANCH   8  12
ATOM     12  C   UNL     1     -13.491   9.413  21.992  0.00  0.00    -0.013 C 
ATOM     19  C   UNL     1     -12.379  10.457  22.009  0.00  0.00    +0.007 C 
ATOM     20  C   UNL     1     -14.846  10.060  22.264  0.00  0.00    +0.007 C 
ENDBRANCH   8  12
BRANCH   9  13
ATOM     13  C   UNL     1     -11.945   7.796  18.841  0.00  0.00    +0.092 C 
BRANCH  13   4
ATOM      4  N   UNL     1     -11.611   9.053  18.173  0.00  0.00    -0.299 NA
ATOM      5  N   UNL     1      -9.778  10.865  16.864  0.00  0.00    -0.298 NA
ATOM     17  C   UNL     1     -10.599   9.794  18.934  0.00  0.00    +0.100 C 
ATOM     18  C   UNL     1     -11.144   8.807  16.802  0.00  0.00    +0.100 C 
ATOM     21  C   UNL     1     -10.244  11.111  18.233  0.00  0.00    +0.100 C 
ATOM     22  C   UNL     1     -10.792  10.125  16.103  0.00  0.00    +0.100 C 
BRANCH   5  25
ATOM     25  C   UNL     1      -9.443  12.121  16.196  0.00  0.00    +0.112 C 
BRANCH  25  26
ATOM     26  C   UNL     1     -10.596  13.106  16.298  0.00  0.00    +0.174 C 
BRANCH  26   2
ATOM      2  O   UNL     1     -10.067  14.415  16.468  0.00  0.00    -0.382 OA
ATOM     29  C   UNL     1      -8.907  14.406  17.288  0.00  0.00    +0.194 C 
ENDBRANCH  26   2
ENDBRANCH  25  26
ENDBRANCH   5  25
ENDBRANCH  13   4
ENDBRANCH   9  13
BRANCH  11  16
ATOM     16  C   UNL     1     -15.366   5.313  21.197  0.00  0.00    +0.105 C 
BRANCH  16  24
ATOM      1  O   UNL     1     -15.842   4.070  23.242  0.00  0.00    -0.420 OA
ATOM      6  N   UNL     1     -17.493   5.432  22.593  0.00  0.00    -0.112 NA
ATOM      7  N   UNL     1     -17.894   4.797  23.754  0.00  0.00    -0.107 NA
ATOM     24  C   UNL     1     -16.289   4.978  22.332  0.00  0.00    +0.218 A 
ATOM     27  C   UNL     1     -16.900   4.012  24.096  0.00  0.00    +0.248 A 
BRANCH  27  28
ATOM     28  C   UNL     1     -16.759   3.121  25.211  0.00  0.00    +0.039 A 
ATOM     30  C   UNL     1     -17.078   1.770  25.070  0.00  0.00    +0.017 A 
ATOM     31  C   UNL     1     -16.302   3.605  26.437  0.00  0.00    +0.017 A 
ATOM     32  C   UNL     1     -16.940   0.904  26.154  0.00  0.00    +0.046 A 
ATOM     33  C   UNL     1     -16.164   2.738  27.521  0.00  0.00    +0.046 A 
ATOM     34  C   UNL     1     -16.484   1.388  27.380  0.00  0.00    +0.120 A 
BRANCH  34   3
ATOM      3  O   UNL     1     -16.346   0.542  28.437  0.00  0.00    -0.495 OA
ATOM     35  C   UNL     1     -15.487   0.961  29.496  0.00  0.00    +0.277 C 
ENDBRANCH  34   3
ENDBRANCH  27  28
ENDBRANCH  16  24
ENDBRANCH  11  16
TORSDOF 10
ENDMDL
MODEL 4
REMARK VINA RESULT:      -6.3      3.764      9.215
REMARK  Name = 38030912
REMARK  15 active torsions:
REMARK  status: ('A' for Active; 'I' for Inactive)
REMARK    1  A    between atoms: O_2  and  C_26
REMARK    2  A    between atoms: O_2  and  C_29
REMARK    3  A    between atoms: O_3  and  C_34
REMARK    4  A    between atoms: O_3  and  C_35
REMARK    5  A    between atoms: N_4  and  C_13
REMARK    6  A    between atoms: N_5  and  C_25
REMARK    7  A    between atoms: C_8  and  C_12
REMARK    8  A    between atoms: C_9  and  C_13
REMARK    9  A    between atoms: C_11  and  C_16
REMARK   10  A    between atoms: C_12  and  C_19
REMARK   11  A    between atoms: C_12  and  C_20
REMARK   12  A    between atoms: C_15  and  C_23
REMARK   13  A    between atoms: C_16  and  C_24
REMARK   14  A    between atoms: C_25  and  C_26
REMARK   15  A    between atoms: C_27  and  C_28
REMARK                            x       y       z     vdW  Elec       q    Type
REMARK                         _______ _______ _______ _____ _____    ______ ____
ROOT
ATOM      8  C   UNL     1      -7.080 -12.072  16.785  0.00  0.00    +0.000 C 
ATOM      9  C   UNL     1      -7.223 -11.722  18.284  0.00  0.00    +0.029 C 
ATOM     10  C   UNL     1      -5.822 -11.418  16.197  0.00  0.00    +0.012 C 
ATOM     11  C   UNL     1      -4.526 -11.805  16.941  0.00  0.00    +0.024 C 
ATOM     14  C   UNL     1      -5.918 -11.830  19.031  0.00  0.00    -0.023 C 
ATOM     15  C   UNL     1      -4.706 -11.881  18.450  0.00  0.00    -0.073 C 
ATOM     23  C   UNL     1      -3.471 -12.076  19.287  0.00  0.00    +0.039 C 
ENDROOT
BRANCH   8  12
ATOM     12  C   UNL     1      -7.070 -13.591  16.564  0.00  0.00    -0.013 C 
ATOM     19  C   UNL     1      -8.235 -14.244  17.301  0.00  0.00    +0.007 C 
ATOM     20  C   UNL     1      -7.125 -13.912  15.073  0.00  0.00    +0.007 C 
ENDBRANCH   8  12
BRANCH   9  13
ATOM     13  C   UNL     1      -7.803 -10.319  18.485  0.00  0.00    +0.092 C 
BRANCH  13   4
ATOM      4  N   UNL     1      -8.872 -10.059  17.522  0.00  0.00    -0.299 NA
ATOM      5  N   UNL     1     -11.050  -8.486  16.454  0.00  0.00    -0.298 NA
ATOM     17  C   UNL     1     -10.177 -10.010  18.192  0.00  0.00    +0.100 C 
ATOM     18  C   UNL     1      -8.624  -8.811  16.790  0.00  0.00    +0.100 C 
ATOM     21  C   UNL     1     -11.299  -9.734  17.185  0.00  0.00    +0.100 C 
ATOM     22  C   UNL     1      -9.745  -8.538  15.782  0.00  0.00    +0.100 C 
BRANCH   5  25
ATOM     25  C   UNL     1     -12.119  -8.226  15.492  0.00  0.00    +0.112 C 
BRANCH  25  26
ATOM     26  C   UNL     1     -12.938  -7.017  15.914  0.00  0.00    +0.174 C 
BRANCH  26   2
ATOM      2  O   UNL     1     -12.175  -5.841  15.677  0.00  0.00    -0.382 OA
ATOM     29  C   UNL     1     -12.026  -5.588  14.287  0.00  0.00    +0.194 C 
ENDBRANCH  26   2
ENDBRANCH  25  26
ENDBRANCH   5  25
ENDBRANCH  13   4
ENDBRANCH   9  13
BRANCH  11  16
ATOM     16  C   UNL     1      -3.412 -10.839  16.520  0.00  0.00    +0.105 C 
BRANCH  16  24
ATOM      1  O   UNL     1      -3.618 -10.600  14.101  0.00  0.00    -0.420 OA
ATOM      6  N   UNL     1      -1.892 -11.867  14.752  0.00  0.00    -0.112 NA
ATOM      7  N   UNL     1      -1.889 -11.817  13.370  0.00  0.00    -0.107 NA
ATOM     24  C   UNL     1      -2.918 -11.142  15.134  0.00  0.00    +0.218 A 
ATOM     27  C   UNL     1      -2.913 -11.068  13.034  0.00  0.00    +0.248 A 
BRANCH  27  28
ATOM     28  C   UNL     1      -3.393 -10.673  11.742  0.00  0.00    +0.039 A 
ATOM     30  C   UNL     1      -2.820  -9.583  11.087  0.00  0.00    +0.017 A 
ATOM     31  C   UNL     1      -4.432 -11.381  11.138  0.00  0.00    +0.017 A 
ATOM     32  C   UNL     1      -3.286  -9.200   9.830  0.00  0.00    +0.046 A 
ATOM     33  C   UNL     1      -4.899 -10.998   9.881  0.00  0.00    +0.046 A 
ATOM     34  C   UNL     1      -4.326  -9.907   9.226  0.00  0.00    +0.120 A 
BRANCH  34   3
ATOM      3  O   UNL     1      -4.779  -9.535   7.998  0.00  0.00    -0.495 OA
ATOM     35  C   UNL     1      -5.485 -10.518   7.242  0.00  0.00    +0.277 C 
ENDBRANCH  34   3
ENDBRANCH  27  28
ENDBRANCH  16  24
ENDBRANCH  11  16
TORSDOF 10
ENDMDL
MODEL 5
REMARK VINA RESULT:      -6.2      3.261      5.668
REMARK  Name = 38030912
REMARK  15 active torsions:
REMARK  status: ('A' for Active; 'I' for Inactive)
REMARK    1  A    between atoms: O_2  and  C_26
REMARK    2  A    between atoms: O_2  and  C_29
REMARK    3  A    between atoms: O_3  and  C_34
REMARK    4  A    between atoms: O_3  and  C_35
REMARK    5  A    between atoms: N_4  and  C_13
REMARK    6  A    between atoms: N_5  and  C_25
REMARK    7  A    between atoms: C_8  and  C_12
REMARK    8  A    between atoms: C_9  and  C_13
REMARK    9  A    between atoms: C_11  and  C_16
REMARK   10  A    between atoms: C_12  and  C_19
REMARK   11  A    between atoms: C_12  and  C_20
REMARK   12  A    between atoms: C_15  and  C_23
REMARK   13  A    between atoms: C_16  and  C_24
REMARK   14  A    between atoms: C_25  and  C_26
REMARK   15  A    between atoms: C_27  and  C_28
REMARK                            x       y       z     vdW  Elec       q    Type
REMARK                         _______ _______ _______ _____ _____    ______ ____
ROOT
ATOM      8  C   UNL     1      -3.940 -10.596  15.287  0.00  0.00    +0.000 C 
ATOM      9  C   UNL     1      -4.907 -10.894  14.118  0.00  0.00    +0.029 C 
ATOM     10  C   UNL     1      -4.428 -11.273  16.576  0.00  0.00    +0.012 C 
ATOM     11  C   UNL     1      -4.609 -12.800  16.434  0.00  0.00    +0.024 C 
ATOM     14  C   UNL     1      -5.336 -12.338  14.075  0.00  0.00    -0.023 C 
ATOM     15  C   UNL     1      -5.201 -13.207  15.094  0.00  0.00    -0.073 C 
ATOM     23  C   UNL     1      -5.585 -14.651  14.914  0.00  0.00    +0.039 C 
ENDROOT
BRANCH   8  12
ATOM     12  C   UNL     1      -2.504 -11.021  14.947  0.00  0.00    -0.013 C 
ATOM     19  C   UNL     1      -2.076 -10.426  13.610  0.00  0.00    +0.007 C 
ATOM     20  C   UNL     1      -1.548 -10.599  16.059  0.00  0.00    +0.007 C 
ENDBRANCH   8  12
BRANCH   9  13
ATOM     13  C   UNL     1      -6.150 -10.001  14.170  0.00  0.00    +0.092 C 
BRANCH  13   4
ATOM      4  N   UNL     1      -6.377  -9.356  12.878  0.00  0.00    -0.299 NA
ATOM      5  N   UNL     1      -6.641  -9.380   9.999  0.00  0.00    -0.298 NA
ATOM     17  C   UNL     1      -5.206  -9.508  12.007  0.00  0.00    +0.100 C 
ATOM     18  C   UNL     1      -7.575  -9.900  12.227  0.00  0.00    +0.100 C 
ATOM     21  C   UNL     1      -5.444  -8.836  10.650  0.00  0.00    +0.100 C 
ATOM     22  C   UNL     1      -7.812  -9.225  10.871  0.00  0.00    +0.100 C 
BRANCH   5  25
ATOM     25  C   UNL     1      -6.868  -8.736   8.707  0.00  0.00    +0.112 C 
BRANCH  25  26
ATOM     26  C   UNL     1      -7.241  -9.766   7.652  0.00  0.00    +0.174 C 
BRANCH  26   2
ATOM      2  O   UNL     1      -6.352 -10.870   7.756  0.00  0.00    -0.382 OA
ATOM     29  C   UNL     1      -5.221 -10.710   6.912  0.00  0.00    +0.194 C 
ENDBRANCH  26   2
ENDBRANCH  25  26
ENDBRANCH   5  25
ENDBRANCH  13   4
ENDBRANCH   9  13
BRANCH  11  16
ATOM     16  C   UNL     1      -5.427 -13.308  17.627  0.00  0.00    +0.105 C 
BRANCH  16  24
ATOM      1  O   UNL     1      -7.176 -11.608  17.573  0.00  0.00    -0.420 OA
ATOM      6  N   UNL     1      -6.024 -11.675  19.489  0.00  0.00    -0.112 NA
ATOM      7  N   UNL     1      -6.973 -10.676  19.596  0.00  0.00    -0.107 NA
ATOM     24  C   UNL     1      -6.180 -12.192  18.292  0.00  0.00    +0.218 A 
ATOM     27  C   UNL     1      -7.622 -10.672  18.455  0.00  0.00    +0.248 A 
BRANCH  27  28
ATOM     28  C   UNL     1      -8.708  -9.851  18.004  0.00  0.00    +0.039 A 
ATOM     30  C   UNL     1     -10.005 -10.099  18.455  0.00  0.00    +0.017 A 
ATOM     31  C   UNL     1      -8.467  -8.802  17.116  0.00  0.00    +0.017 A 
ATOM     32  C   UNL     1     -11.060  -9.300  18.017  0.00  0.00    +0.046 A 
ATOM     33  C   UNL     1      -9.523  -8.003  16.678  0.00  0.00    +0.046 A 
ATOM     34  C   UNL     1     -10.820  -8.252  17.129  0.00  0.00    +0.120 A 
BRANCH  34   3
ATOM      3  O   UNL     1     -11.849  -7.470  16.704  0.00  0.00    -0.495 OA
ATOM     35  C   UNL     1     -11.509  -6.234  16.076  0.00  0.00    +0.277 C 
ENDBRANCH  34   3
ENDBRANCH  27  28
ENDBRANCH  16  24
ENDBRANCH  11  16
TORSDOF 10
ENDMDL
MODEL 6
REMARK VINA RESULT:      -6.2      2.402     10.711
REMARK  Name = 38030912
REMARK  15 active torsions:
REMARK  status: ('A' for Active; 'I' for Inactive)
REMARK    1  A    between atoms: O_2  and  C_26
REMARK    2  A    between atoms: O_2  and  C_29
REMARK    3  A    between atoms: O_3  and  C_34
REMARK    4  A    between atoms: O_3  and  C_35
REMARK    5  A    between atoms: N_4  and  C_13
REMARK    6  A    between atoms: N_5  and  C_25
REMARK    7  A    between atoms: C_8  and  C_12
REMARK    8  A    between atoms: C_9  and  C_13
REMARK    9  A    between atoms: C_11  and  C_16
REMARK   10  A    between atoms: C_12  and  C_19
REMARK   11  A    between atoms: C_12  and  C_20
REMARK   12  A    between atoms: C_15  and  C_23
REMARK   13  A    between atoms: C_16  and  C_24
REMARK   14  A    between atoms: C_25  and  C_26
REMARK   15  A    between atoms: C_27  and  C_28
REMARK                            x       y       z     vdW  Elec       q    Type
REMARK                         _______ _______ _______ _____ _____    ______ ____
ROOT
ATOM      8  C   UNL     1      -3.923 -11.910  12.472  0.00  0.00    +0.000 C 
ATOM      9  C   UNL     1      -2.925 -11.305  13.485  0.00  0.00    +0.029 C 
ATOM     10  C   UNL     1      -4.409 -10.837  11.487  0.00  0.00    +0.012 C 
ATOM     11  C   UNL     1      -3.260 -10.143  10.724  0.00  0.00    +0.024 C 
ATOM     14  C   UNL     1      -1.917 -10.394  12.832  0.00  0.00    -0.023 C 
ATOM     15  C   UNL     1      -2.042  -9.876  11.596  0.00  0.00    -0.073 C 
ATOM     23  C   UNL     1      -0.934  -9.046  11.006  0.00  0.00    +0.039 C 
ENDROOT
BRANCH   8  12
ATOM     12  C   UNL     1      -3.311 -13.108  11.731  0.00  0.00    -0.013 C 
ATOM     19  C   UNL     1      -2.723 -14.104  12.725  0.00  0.00    +0.007 C 
ATOM     20  C   UNL     1      -4.359 -13.778  10.848  0.00  0.00    +0.007 C 
ENDBRANCH   8  12
BRANCH   9  13
ATOM     13  C   UNL     1      -3.643 -10.541  14.601  0.00  0.00    +0.092 C 
BRANCH  13   4
ATOM      4  N   UNL     1      -4.517 -11.435  15.359  0.00  0.00    -0.299 NA
ATOM      5  N   UNL     1      -6.285 -12.049  17.563  0.00  0.00    -0.298 NA
ATOM     17  C   UNL     1      -4.000 -11.643  16.716  0.00  0.00    +0.100 C 
ATOM     18  C   UNL     1      -5.887 -10.908  15.408  0.00  0.00    +0.100 C 
ATOM     21  C   UNL     1      -4.916 -12.577  17.514  0.00  0.00    +0.100 C 
ATOM     22  C   UNL     1      -6.803 -11.844  16.204  0.00  0.00    +0.100 C 
BRANCH   5  25
ATOM     25  C   UNL     1      -7.159 -12.943  18.321  0.00  0.00    +0.112 C 
BRANCH  25  26
ATOM     26  C   UNL     1      -7.667 -12.255  19.578  0.00  0.00    +0.174 C 
BRANCH  26   2
ATOM      2  O   UNL     1      -9.089 -12.295  19.578  0.00  0.00    -0.382 OA
ATOM     29  C   UNL     1      -9.646 -11.012  19.827  0.00  0.00    +0.194 C 
ENDBRANCH  26   2
ENDBRANCH  25  26
ENDBRANCH   5  25
ENDBRANCH  13   4
ENDBRANCH   9  13
BRANCH  11  16
ATOM     16  C   UNL     1      -3.809  -8.874  10.061  0.00  0.00    +0.105 C 
BRANCH  16  24
ATOM      1  O   UNL     1      -4.454  -9.936   7.961  0.00  0.00    -0.420 OA
ATOM      6  N   UNL     1      -6.128  -8.880   9.005  0.00  0.00    -0.112 NA
ATOM      7  N   UNL     1      -6.630  -9.431   7.841  0.00  0.00    -0.107 NA
ATOM     24  C   UNL     1      -4.855  -9.201   9.034  0.00  0.00    +0.218 A 
ATOM     27  C   UNL     1      -5.619 -10.037   7.264  0.00  0.00    +0.248 A 
BRANCH  27  28
ATOM     28  C   UNL     1      -5.554 -10.776   6.036  0.00  0.00    +0.039 A 
ATOM     30  C   UNL     1      -6.594 -10.685   5.110  0.00  0.00    +0.017 A 
ATOM     31  C   UNL     1      -4.450 -11.585   5.767  0.00  0.00    +0.017 A 
ATOM     32  C   UNL     1      -6.529 -11.402   3.917  0.00  0.00    +0.046 A 
ATOM     33  C   UNL     1      -4.386 -12.303   4.573  0.00  0.00    +0.046 A 
ATOM     34  C   UNL     1      -5.426 -12.212   3.648  0.00  0.00    +0.120 A 
BRANCH  34   3
ATOM      3  O   UNL     1      -5.362 -12.910   2.482  0.00  0.00    -0.495 OA
ATOM     35  C   UNL     1      -4.190 -13.692   2.257  0.00  0.00    +0.277 C 
ENDBRANCH  34   3
ENDBRANCH  27  28
ENDBRANCH  16  24
ENDBRANCH  11  16
TORSDOF 10
ENDMDL
MODEL 7
REMARK VINA RESULT:      -6.2     24.515     30.163
REMARK  Name = 38030912
REMARK  15 active torsions:
REMARK  status: ('A' for Active; 'I' for Inactive)
REMARK    1  A    between atoms: O_2  and  C_26
REMARK    2  A    between atoms: O_2  and  C_29
REMARK    3  A    between atoms: O_3  and  C_34
REMARK    4  A    between atoms: O_3  and  C_35
REMARK    5  A    between atoms: N_4  and  C_13
REMARK    6  A    between atoms: N_5  and  C_25
REMARK    7  A    between atoms: C_8  and  C_12
REMARK    8  A    between atoms: C_9  and  C_13
REMARK    9  A    between atoms: C_11  and  C_16
REMARK   10  A    between atoms: C_12  and  C_19
REMARK   11  A    between atoms: C_12  and  C_20
REMARK   12  A    between atoms: C_15  and  C_23
REMARK   13  A    between atoms: C_16  and  C_24
REMARK   14  A    between atoms: C_25  and  C_26
REMARK   15  A    between atoms: C_27  and  C_28
REMARK                            x       y       z     vdW  Elec       q    Type
REMARK                         _______ _______ _______ _____ _____    ______ ____
ROOT
ATOM      8  C   UNL     1     -10.996   9.816  31.696  0.00  0.00    +0.000 C 
ATOM      9  C   UNL     1     -10.678  10.638  32.966  0.00  0.00    +0.029 C 
ATOM     10  C   UNL     1     -11.686   8.496  32.069  0.00  0.00    +0.012 C 
ATOM     11  C   UNL     1     -12.977   8.691  32.892  0.00  0.00    +0.024 C 
ATOM     14  C   UNL     1     -11.821  10.655  33.947  0.00  0.00    -0.023 C 
ATOM     15  C   UNL     1     -12.863   9.803  33.924  0.00  0.00    -0.073 C 
ATOM     23  C   UNL     1     -13.996   9.964  34.901  0.00  0.00    +0.039 C 
ENDROOT
BRANCH   8  12
ATOM     12  C   UNL     1     -11.845  10.624  30.704  0.00  0.00    -0.013 C 
ATOM     19  C   UNL     1     -11.382  12.077  30.669  0.00  0.00    +0.007 C 
ATOM     20  C   UNL     1     -11.777   9.999  29.314  0.00  0.00    +0.007 C 
ENDBRANCH   8  12
BRANCH   9  13
ATOM     13  C   UNL     1      -9.418  10.127  33.670  0.00  0.00    +0.092 C 
BRANCH  13   4
ATOM      4  N   UNL     1      -8.586  11.244  34.116  0.00  0.00    -0.299 NA
ATOM      5  N   UNL     1      -6.062  12.628  34.385  0.00  0.00    -0.298 NA
ATOM     17  C   UNL     1      -7.563  10.786  35.063  0.00  0.00    +0.100 C 
ATOM     18  C   UNL     1      -7.961  11.918  32.972  0.00  0.00    +0.100 C 
ATOM     21  C   UNL     1      -6.687  11.954  35.529  0.00  0.00    +0.100 C 
ATOM     22  C   UNL     1      -7.087  13.088  33.440  0.00  0.00    +0.100 C 
BRANCH   5  25
ATOM     25  C   UNL     1      -5.230  13.744  34.831  0.00  0.00    +0.112 C 
BRANCH  25  26
ATOM     26  C   UNL     1      -3.864  13.694  34.164  0.00  0.00    +0.174 C 
BRANCH  26   2
ATOM      2  O   UNL     1      -3.317  12.394  34.338  0.00  0.00    -0.382 OA
ATOM     29  C   UNL     1      -2.071  12.439  35.018  0.00  0.00    +0.194 C 
ENDBRANCH  26   2
ENDBRANCH  25  26
ENDBRANCH   5  25
ENDBRANCH  13   4
ENDBRANCH   9  13
BRANCH  11  16
ATOM     16  C   UNL     1     -13.373   7.344  33.508  0.00  0.00    +0.105 C 
BRANCH  16  24
ATOM      1  O   UNL     1     -13.975   5.305  32.310  0.00  0.00    -0.420 OA
ATOM      6  N   UNL     1     -15.440   6.978  32.065  0.00  0.00    -0.112 NA
ATOM      7  N   UNL     1     -15.902   5.895  31.340  0.00  0.00    -0.107 NA
ATOM     24  C   UNL     1     -14.313   6.588  32.615  0.00  0.00    +0.218 A 
ATOM     27  C   UNL     1     -15.015   4.943  31.511  0.00  0.00    +0.248 A 
BRANCH  27  28
ATOM     28  C   UNL     1     -14.977   3.605  30.997  0.00  0.00    +0.039 A 
ATOM     30  C   UNL     1     -15.158   3.374  29.633  0.00  0.00    +0.017 A 
ATOM     31  C   UNL     1     -14.756   2.532  31.862  0.00  0.00    +0.017 A 
ATOM     32  C   UNL     1     -15.119   2.073  29.135  0.00  0.00    +0.046 A 
ATOM     33  C   UNL     1     -14.718   1.230  31.363  0.00  0.00    +0.046 A 
ATOM     34  C   UNL     1     -14.899   1.000  29.999  0.00  0.00    +0.120 A 
BRANCH  34   3
ATOM      3  O   UNL     1     -14.858  -0.270  29.512  0.00  0.00    -0.495 OA
ATOM     35  C   UNL     1     -13.575  -0.885  29.410  0.00  0.00    +0.277 C 
ENDBRANCH  34   3
ENDBRANCH  27  28
ENDBRANCH  16  24
ENDBRANCH  11  16
TORSDOF 10
ENDMDL
MODEL 8
REMARK VINA RESULT:      -6.1      3.167      9.706
REMARK  Name = 38030912
REMARK  15 active torsions:
REMARK  status: ('A' for Active; 'I' for Inactive)
REMARK    1  A    between atoms: O_2  and  C_26
REMARK    2  A    between atoms: O_2  and  C_29
REMARK    3  A    between atoms: O_3  and  C_34
REMARK    4  A    between atoms: O_3  and  C_35
REMARK    5  A    between atoms: N_4  and  C_13
REMARK    6  A    between atoms: N_5  and  C_25
REMARK    7  A    between atoms: C_8  and  C_12
REMARK    8  A    between atoms: C_9  and  C_13
REMARK    9  A    between atoms: C_11  and  C_16
REMARK   10  A    between atoms: C_12  and  C_19
REMARK   11  A    between atoms: C_12  and  C_20
REMARK   12  A    between atoms: C_15  and  C_23
REMARK   13  A    between atoms: C_16  and  C_24
REMARK   14  A    between atoms: C_25  and  C_26
REMARK   15  A    between atoms: C_27  and  C_28
REMARK                            x       y       z     vdW  Elec       q    Type
REMARK                         _______ _______ _______ _____ _____    ______ ____
ROOT
ATOM      8  C   UNL     1      -3.910 -11.804  12.394  0.00  0.00    +0.000 C 
ATOM      9  C   UNL     1      -2.919 -11.278  13.458  0.00  0.00    +0.029 C 
ATOM     10  C   UNL     1      -4.263 -10.695  11.392  0.00  0.00    +0.012 C 
ATOM     11  C   UNL     1      -3.028 -10.090  10.690  0.00  0.00    +0.024 C 
ATOM     14  C   UNL     1      -1.814 -10.447  12.859  0.00  0.00    -0.023 C 
ATOM     15  C   UNL     1      -1.838  -9.918  11.622  0.00  0.00    -0.073 C 
ATOM     23  C   UNL     1      -0.642  -9.175  11.091  0.00  0.00    +0.039 C 
ENDROOT
BRANCH   8  12
ATOM     12  C   UNL     1      -3.356 -13.043  11.678  0.00  0.00    -0.013 C 
ATOM     19  C   UNL     1      -2.971 -14.116  12.692  0.00  0.00    +0.007 C 
ATOM     20  C   UNL     1      -4.377 -13.582  10.681  0.00  0.00    +0.007 C 
ENDBRANCH   8  12
BRANCH   9  13
ATOM     13  C   UNL     1      -3.631 -10.462  14.541  0.00  0.00    +0.092 C 
BRANCH  13   4
ATOM      4  N   UNL     1      -4.605 -11.289  15.254  0.00  0.00    -0.299 NA
ATOM      5  N   UNL     1      -6.339 -11.873  17.492  0.00  0.00    -0.298 NA
ATOM     17  C   UNL     1      -4.063 -11.743  16.539  0.00  0.00    +0.100 C 
ATOM     18  C   UNL     1      -5.861 -10.556  15.456  0.00  0.00    +0.100 C 
ATOM     21  C   UNL     1      -5.083 -12.606  17.289  0.00  0.00    +0.100 C 
ATOM     22  C   UNL     1      -6.881 -11.422  16.205  0.00  0.00    +0.100 C 
BRANCH   5  25
ATOM     25  C   UNL     1      -7.311 -12.699  18.204  0.00  0.00    +0.112 C 
BRANCH  25  26
ATOM     26  C   UNL     1      -7.942 -11.919  19.348  0.00  0.00    +0.174 C 
BRANCH  26   2
ATOM      2  O   UNL     1      -9.351 -11.889  19.159  0.00  0.00    -0.382 OA
ATOM     29  C   UNL     1      -9.983 -11.021  20.089  0.00  0.00    +0.194 C 
ENDBRANCH  26   2
ENDBRANCH  25  26
ENDBRANCH   5  25
ENDBRANCH  13   4
ENDBRANCH   9  13
BRANCH  11  16
ATOM     16  C   UNL     1      -3.445  -8.782  10.007  0.00  0.00    +0.105 C 
BRANCH  16  24
ATOM      1  O   UNL     1      -5.728  -8.064   9.528  0.00  0.00    -0.420 OA
ATOM      6  N   UNL     1      -5.053  -9.830   8.332  0.00  0.00    -0.112 NA
ATOM      7  N   UNL     1      -6.352  -9.534   7.962  0.00  0.00    -0.107 NA
ATOM     24  C   UNL     1      -4.730  -8.946   9.248  0.00  0.00    +0.218 A 
ATOM     27  C   UNL     1      -6.705  -8.498   8.686  0.00  0.00    +0.248 A 
BRANCH  27  28
ATOM     28  C   UNL     1      -7.937  -7.765   8.723  0.00  0.00    +0.039 A 
ATOM     30  C   UNL     1      -9.069  -8.330   9.313  0.00  0.00    +0.017 A 
ATOM     31  C   UNL     1      -8.004  -6.485   8.171  0.00  0.00    +0.017 A 
ATOM     32  C   UNL     1     -10.266  -7.616   9.350  0.00  0.00    +0.046 A 
ATOM     33  C   UNL     1      -9.203  -5.772   8.208  0.00  0.00    +0.046 A 
ATOM     34  C   UNL     1     -10.334  -6.338   8.797  0.00  0.00    +0.120 A 
BRANCH  34   3
ATOM      3  O   UNL     1     -11.502  -5.641   8.836  0.00  0.00    -0.495 OA
ATOM     35  C   UNL     1     -11.407  -4.217   8.854  0.00  0.00    +0.277 C 
ENDBRANCH  34   3
ENDBRANCH  27  28
ENDBRANCH  16  24
ENDBRANCH  11  16
TORSDOF 10
ENDMDL
MODEL 9
REMARK VINA RESULT:      -6.1      2.884     10.442
REMARK  Name = 38030912
REMARK  15 active torsions:
REMARK  status: ('A' for Active; 'I' for Inactive)
REMARK    1  A    between atoms: O_2  and  C_26
REMARK    2  A    between atoms: O_2  and  C_29
REMARK    3  A    between atoms: O_3  and  C_34
REMARK    4  A    between atoms: O_3  and  C_35
REMARK    5  A    between atoms: N_4  and  C_13
REMARK    6  A    between atoms: N_5  and  C_25
REMARK    7  A    between atoms: C_8  and  C_12
REMARK    8  A    between atoms: C_9  and  C_13
REMARK    9  A    between atoms: C_11  and  C_16
REMARK   10  A    between atoms: C_12  and  C_19
REMARK   11  A    between atoms: C_12  and  C_20
REMARK   12  A    between atoms: C_15  and  C_23
REMARK   13  A    between atoms: C_16  and  C_24
REMARK   14  A    between atoms: C_25  and  C_26
REMARK   15  A    between atoms: C_27  and  C_28
REMARK                            x       y       z     vdW  Elec       q    Type
REMARK                         _______ _______ _______ _____ _____    ______ ____
ROOT
ATOM      8  C   UNL     1      -5.004 -12.341  15.592  0.00  0.00    +0.000 C 
ATOM      9  C   UNL     1      -4.628 -11.513  16.842  0.00  0.00    +0.029 C 
ATOM     10  C   UNL     1      -4.525 -11.635  14.314  0.00  0.00    +0.012 C 
ATOM     11  C   UNL     1      -3.008 -11.350  14.305  0.00  0.00    +0.024 C 
ATOM     14  C   UNL     1      -3.221 -10.976  16.780  0.00  0.00    -0.023 C 
ATOM     15  C   UNL     1      -2.477 -10.906  15.660  0.00  0.00    -0.073 C 
ATOM     23  C   UNL     1      -1.051 -10.432  15.726  0.00  0.00    +0.039 C 
ENDROOT
BRANCH   8  12
ATOM     12  C   UNL     1      -4.447 -13.769  15.678  0.00  0.00    -0.013 C 
ATOM     19  C   UNL     1      -4.948 -14.459  16.943  0.00  0.00    +0.007 C 
ATOM     20  C   UNL     1      -4.833 -14.566  14.436  0.00  0.00    +0.007 C 
ENDBRANCH   8  12
BRANCH   9  13
ATOM     13  C   UNL     1      -5.601 -10.351  17.065  0.00  0.00    +0.092 C 
BRANCH  13   4
ATOM      4  N   UNL     1      -6.866 -10.835  17.615  0.00  0.00    -0.299 NA
ATOM      5  N   UNL     1      -8.945 -10.895  19.622  0.00  0.00    -0.298 NA
ATOM     17  C   UNL     1      -6.655 -11.489  18.911  0.00  0.00    +0.100 C 
ATOM     18  C   UNL     1      -7.832  -9.736  17.746  0.00  0.00    +0.100 C 
ATOM     21  C   UNL     1      -7.980 -11.993  19.491  0.00  0.00    +0.100 C 
ATOM     22  C   UNL     1      -9.158 -10.243  18.324  0.00  0.00    +0.100 C 
BRANCH   5  25
ATOM     25  C   UNL     1     -10.210 -11.379  20.173  0.00  0.00    +0.112 C 
BRANCH  25  26
ATOM     26  C   UNL     1     -11.299 -10.329  20.017  0.00  0.00    +0.174 C 
BRANCH  26   2
ATOM      2  O   UNL     1     -12.513 -10.847  20.545  0.00  0.00    -0.382 OA
ATOM     29  C   UNL     1     -12.401 -12.231  20.848  0.00  0.00    +0.194 C 
ENDBRANCH  26   2
ENDBRANCH  25  26
ENDBRANCH   5  25
ENDBRANCH  13   4
ENDBRANCH   9  13
BRANCH  11  16
ATOM     16  C   UNL     1      -2.705 -10.345  13.188  0.00  0.00    +0.105 C 
BRANCH  16  24
ATOM      1  O   UNL     1      -4.043 -10.016  11.174  0.00  0.00    -0.420 OA
ATOM      6  N   UNL     1      -2.947 -11.966  11.236  0.00  0.00    -0.112 NA
ATOM      7  N   UNL     1      -3.658 -11.913  10.052  0.00  0.00    -0.107 NA
ATOM     24  C   UNL     1      -3.202 -10.838  11.859  0.00  0.00    +0.218 A 
ATOM     27  C   UNL     1      -4.283 -10.759  10.058  0.00  0.00    +0.248 A 
BRANCH  27  28
ATOM     28  C   UNL     1      -5.160 -10.170   9.088  0.00  0.00    +0.039 A 
ATOM     30  C   UNL     1      -6.072  -9.188   9.476  0.00  0.00    +0.017 A 
ATOM     31  C   UNL     1      -5.100 -10.579   7.756  0.00  0.00    +0.017 A 
ATOM     32  C   UNL     1      -6.924  -8.616   8.533  0.00  0.00    +0.046 A 
ATOM     33  C   UNL     1      -5.953 -10.006   6.812  0.00  0.00    +0.046 A 
ATOM     34  C   UNL     1      -6.865  -9.024   7.200  0.00  0.00    +0.120 A 
BRANCH  34   3
ATOM      3  O   UNL     1      -7.695  -8.464   6.279  0.00  0.00    -0.495 OA
ATOM     35  C   UNL     1      -8.255  -7.191   6.599  0.00  0.00    +0.277 C 
ENDBRANCH  34   3
ENDBRANCH  27  28
ENDBRANCH  16  24
ENDBRANCH  11  16
TORSDOF 10
ENDMDL
MODEL 10
REMARK VINA RESULT:      -6.1     20.533     22.749
REMARK  Name = 38030912
REMARK  15 active torsions:
REMARK  status: ('A' for Active; 'I' for Inactive)
REMARK    1  A    between atoms: O_2  and  C_26
REMARK    2  A    between atoms: O_2  and  C_29
REMARK    3  A    between atoms: O_3  and  C_34
REMARK    4  A    between atoms: O_3  and  C_35
REMARK    5  A    between atoms: N_4  and  C_13
REMARK    6  A    between atoms: N_5  and  C_25
REMARK    7  A    between atoms: C_8  and  C_12
REMARK    8  A    between atoms: C_9  and  C_13
REMARK    9  A    between atoms: C_11  and  C_16
REMARK   10  A    between atoms: C_12  and  C_19
REMARK   11  A    between atoms: C_12  and  C_20
REMARK   12  A    between atoms: C_15  and  C_23
REMARK   13  A    between atoms: C_16  and  C_24
REMARK   14  A    between atoms: C_25  and  C_26
REMARK   15  A    between atoms: C_27  and  C_28
REMARK                            x       y       z     vdW  Elec       q    Type
REMARK                         _______ _______ _______ _____ _____    ______ ____
ROOT
ATOM      8  C   UNL     1     -13.699  10.258  21.873  0.00  0.00    +0.000 C 
ATOM      9  C   UNL     1     -12.314  10.147  21.194  0.00  0.00    +0.029 C 
ATOM     10  C   UNL     1     -14.672   9.228  21.281  0.00  0.00    +0.012 C 
ATOM     11  C   UNL     1     -14.163   7.775  21.385  0.00  0.00    +0.024 C 
ATOM     14  C   UNL     1     -11.864   8.719  21.026  0.00  0.00    -0.023 C 
ATOM     15  C   UNL     1     -12.671   7.646  21.119  0.00  0.00    -0.073 C 
ATOM     23  C   UNL     1     -12.101   6.257  21.020  0.00  0.00    +0.039 C 
ENDROOT
BRANCH   8  12
ATOM     12  C   UNL     1     -13.589  10.105  23.396  0.00  0.00    -0.013 C 
ATOM     19  C   UNL     1     -12.458  10.973  23.938  0.00  0.00    +0.007 C 
ATOM     20  C   UNL     1     -14.914  10.462  24.063  0.00  0.00    +0.007 C 
ENDBRANCH   8  12
BRANCH   9  13
ATOM     13  C   UNL     1     -12.294  10.845  19.831  0.00  0.00    +0.092 C 
BRANCH  13   4
ATOM      4  N   UNL     1     -11.782   9.946  18.798  0.00  0.00    -0.299 NA
ATOM      5  N   UNL     1     -11.186   9.248  16.056  0.00  0.00    -0.298 NA
ATOM     17  C   UNL     1     -12.845   9.572  17.858  0.00  0.00    +0.100 C 
ATOM     18  C   UNL     1     -10.657  10.561  18.082  0.00  0.00    +0.100 C 
ATOM     21  C   UNL     1     -12.310   8.633  16.772  0.00  0.00    +0.100 C 
ATOM     22  C   UNL     1     -10.122   9.619  16.998  0.00  0.00    +0.100 C 
BRANCH   5  25
ATOM     25  C   UNL     1     -10.675   8.350  15.023  0.00  0.00    +0.112 C 
BRANCH  25  26
ATOM     26  C   UNL     1     -11.392   8.587  13.704  0.00  0.00    +0.174 C 
BRANCH  26   2
ATOM      2  O   UNL     1     -11.676   9.974  13.580  0.00  0.00    -0.382 OA
ATOM     29  C   UNL     1     -13.003  10.197  13.127  0.00  0.00    +0.194 C 
ENDBRANCH  26   2
ENDBRANCH  25  26
ENDBRANCH   5  25
ENDBRANCH  13   4
ENDBRANCH   9  13
BRANCH  11  16
ATOM     16  C   UNL     1     -15.012   6.891  20.463  0.00  0.00    +0.105 C 
BRANCH  16  24
ATOM      1  O   UNL     1     -15.655   5.884  22.590  0.00  0.00    -0.420 OA
ATOM      6  N   UNL     1     -16.390   4.774  20.792  0.00  0.00    -0.112 NA
ATOM      7  N   UNL     1     -16.823   4.099  21.918  0.00  0.00    -0.107 NA
ATOM     24  C   UNL     1     -15.713   5.809  21.232  0.00  0.00    +0.218 A 
ATOM     27  C   UNL     1     -16.370   4.781  22.943  0.00  0.00    +0.248 A 
BRANCH  27  28
ATOM     28  C   UNL     1     -16.513   4.549  24.351  0.00  0.00    +0.039 A 
ATOM     30  C   UNL     1     -15.924   3.429  24.938  0.00  0.00    +0.017 A 
ATOM     31  C   UNL     1     -17.241   5.445  25.135  0.00  0.00    +0.017 A 
ATOM     32  C   UNL     1     -16.062   3.205  26.307  0.00  0.00    +0.046 A 
ATOM     33  C   UNL     1     -17.379   5.220  26.505  0.00  0.00    +0.046 A 
ATOM     34  C   UNL     1     -16.790   4.100  27.091  0.00  0.00    +0.120 A 
BRANCH  34   3
ATOM      3  O   UNL     1     -16.922   3.883  28.428  0.00  0.00    -0.495 OA
ATOM     35  C   UNL     1     -15.824   4.257  29.258  0.00  0.00    +0.277 C 
ENDBRANCH  34   3
ENDBRANCH  27  28
ENDBRANCH  16  24
ENDBRANCH  11  16
TORSDOF 10
ENDMDL
