MODEL 1
REMARK VINA RESULT:      -7.4      0.000      0.000
REMARK  Name = 40776854
REMARK  7 active torsions:
REMARK  status: ('A' for Active; 'I' for Inactive)
REMARK    1  A    between atoms: N_6  and  C_16
REMARK    2  A    between atoms: N_7  and  C_17
REMARK    3  A    between atoms: N_8  and  C_23
REMARK    4  A    between atoms: C_10  and  C_16
REMARK    5  A    between atoms: C_11  and  C_17
REMARK    6  A    between atoms: C_22  and  C_24
REMARK    7  A    between atoms: C_34  and  C_35
REMARK                            x       y       z     vdW  Elec       q    Type
REMARK                         _______ _______ _______ _____ _____    ______ ____
ROOT
ATOM      5  N   UNL     1      10.056   6.797   7.414  0.00  0.00    -0.298 NA
ATOM      9  C   UNL     1       9.784   5.147   5.422  0.00  0.00    -0.003 C 
ATOM     10  C   UNL     1      11.093   5.959   5.290  0.00  0.00    +0.020 C 
ATOM     11  C   UNL     1       8.720   6.975   6.782  0.00  0.00    +0.074 C 
ATOM     12  C   UNL     1       8.590   6.115   5.506  0.00  0.00    +0.024 C 
ATOM     13  C   UNL     1      11.131   7.017   6.416  0.00  0.00    +0.089 C 
ATOM     14  C   UNL     1       9.858   4.393   6.763  0.00  0.00    +0.019 C 
ATOM     15  C   UNL     1      10.151   5.396   7.893  0.00  0.00    +0.085 C 
ENDROOT
BRANCH  10  16
ATOM     16  C   UNL     1      11.273   6.594   3.915  0.00  0.00    +0.089 C 
BRANCH  16   6
ATOM      6  N   UNL     1      11.139   5.596   2.853  0.00  0.00    -0.299 NA
ATOM      8  N   UNL     1      11.304   4.586   0.188  0.00  0.00    -0.327 N 
ATOM     18  C   UNL     1      12.445   5.312   2.245  0.00  0.00    +0.103 C 
ATOM     19  C   UNL     1      10.199   6.059   1.826  0.00  0.00    +0.103 C 
ATOM     20  C   UNL     1      12.327   4.227   1.173  0.00  0.00    +0.120 C 
ATOM     21  C   UNL     1      10.007   4.999   0.740  0.00  0.00    +0.120 C 
BRANCH   8  23
ATOM     23  C   UNL     1      11.320   3.991  -1.079  0.00  0.00    +0.030 A 
ATOM     25  C   UNL     1      10.395   4.385  -2.046  0.00  0.00    +0.023 A 
ATOM     26  C   UNL     1      12.263   3.007  -1.376  0.00  0.00    +0.023 A 
ATOM     29  C   UNL     1      10.412   3.795  -3.310  0.00  0.00    +0.002 A 
ATOM     30  C   UNL     1      12.281   2.417  -2.640  0.00  0.00    +0.002 A 
ATOM     31  C   UNL     1      11.355   2.810  -3.607  0.00  0.00    +0.000 A 
ENDBRANCH   8  23
ENDBRANCH  16   6
ENDBRANCH  10  16
BRANCH  11  17
ATOM     17  C   UNL     1       8.395   8.446   6.513  0.00  0.00    +0.123 C 
BRANCH  17   7
ATOM      4  O   UNL     1       8.070  10.851   4.979  0.00  0.00    -0.270 OA
ATOM      7  N   UNL     1       7.654   8.590   5.299  0.00  0.00    -0.310 N 
ATOM     22  C   UNL     1       7.547   9.801   4.615  0.00  0.00    +0.244 C 
ATOM     36  H   UNL     1       7.146   7.774   4.974  0.00  0.00    +0.149 HD
BRANCH  22  24
ATOM     24  C   UNL     1       6.719   9.793   3.382  0.00  0.00    +0.037 A 
ATOM     27  C   UNL     1       7.280   9.404   2.166  0.00  0.00    +0.013 A 
ATOM     28  C   UNL     1       5.378  10.173   3.441  0.00  0.00    +0.013 A 
ATOM     32  C   UNL     1       6.502   9.397   1.009  0.00  0.00    +0.013 A 
ATOM     33  C   UNL     1       4.599  10.167   2.284  0.00  0.00    +0.013 A 
ATOM     34  C   UNL     1       5.161   9.779   1.068  0.00  0.00    +0.055 A 
BRANCH  34  35
ATOM      1  F   UNL     1       4.624  10.788  -1.033  0.00  0.00    -0.166 F 
ATOM      2  F   UNL     1       2.996   9.891   0.094  0.00  0.00    -0.166 F 
ATOM      3  F   UNL     1       4.455   8.629  -0.907  0.00  0.00    -0.166 F 
ATOM     35  C   UNL     1       4.329   9.771  -0.170  0.00  0.00    +0.417 C 
ENDBRANCH  34  35
ENDBRANCH  22  24
ENDBRANCH  17   7
ENDBRANCH  11  17
TORSDOF 7
ENDMDL
MODEL 2
REMARK VINA RESULT:      -7.2     23.283     25.585
REMARK  Name = 40776854
REMARK  7 active torsions:
REMARK  status: ('A' for Active; 'I' for Inactive)
REMARK    1  A    between atoms: N_6  and  C_16
REMARK    2  A    between atoms: N_7  and  C_17
REMARK    3  A    between atoms: N_8  and  C_23
REMARK    4  A    between atoms: C_10  and  C_16
REMARK    5  A    between atoms: C_11  and  C_17
REMARK    6  A    between atoms: C_22  and  C_24
REMARK    7  A    between atoms: C_34  and  C_35
REMARK                            x       y       z     vdW  Elec       q    Type
REMARK                         _______ _______ _______ _____ _____    ______ ____
ROOT
ATOM      5  N   UNL     1      -6.133 -10.367   8.332  0.00  0.00    -0.298 NA
ATOM      9  C   UNL     1      -5.557  -8.696  10.241  0.00  0.00    -0.003 C 
ATOM     10  C   UNL     1      -6.172  -9.994  10.812  0.00  0.00    +0.020 C 
ATOM     11  C   UNL     1      -6.735  -9.037   8.045  0.00  0.00    +0.074 C 
ATOM     12  C   UNL     1      -6.536  -8.069   9.231  0.00  0.00    +0.024 C 
ATOM     13  C   UNL     1      -6.625 -10.885   9.632  0.00  0.00    +0.089 C 
ATOM     14  C   UNL     1      -4.294  -9.106   9.459  0.00  0.00    +0.019 C 
ATOM     15  C   UNL     1      -4.663 -10.191   8.432  0.00  0.00    +0.085 C 
ENDROOT
BRANCH  10  16
ATOM     16  C   UNL     1      -7.312  -9.740  11.794  0.00  0.00    +0.089 C 
BRANCH  16   6
ATOM      6  N   UNL     1      -6.809  -9.620  13.163  0.00  0.00    -0.299 NA
ATOM      8  N   UNL     1      -6.134 -10.534  15.782  0.00  0.00    -0.327 N 
ATOM     18  C   UNL     1      -5.656 -10.504  13.367  0.00  0.00    +0.103 C 
ATOM     19  C   UNL     1      -7.865  -9.943  14.130  0.00  0.00    +0.103 C 
ATOM     20  C   UNL     1      -5.084 -10.346  14.778  0.00  0.00    +0.120 C 
ATOM     21  C   UNL     1      -7.366  -9.765  15.565  0.00  0.00    +0.120 C 
BRANCH   8  23
ATOM     23  C   UNL     1      -5.786 -10.861  17.098  0.00  0.00    +0.030 A 
ATOM     25  C   UNL     1      -4.622 -11.586  17.351  0.00  0.00    +0.023 A 
ATOM     26  C   UNL     1      -6.600 -10.458  18.156  0.00  0.00    +0.023 A 
ATOM     29  C   UNL     1      -4.272 -11.910  18.662  0.00  0.00    +0.002 A 
ATOM     30  C   UNL     1      -6.250 -10.780  19.467  0.00  0.00    +0.002 A 
ATOM     31  C   UNL     1      -5.087 -11.507  19.721  0.00  0.00    +0.000 A 
ENDBRANCH   8  23
ENDBRANCH  16   6
ENDBRANCH  10  16
BRANCH  11  17
ATOM     17  C   UNL     1      -8.206  -9.140   7.634  0.00  0.00    +0.123 C 
BRANCH  17   7
ATOM      4  O   UNL     1      -9.458  -6.752   6.647  0.00  0.00    -0.270 OA
ATOM      7  N   UNL     1      -9.009  -8.225   8.384  0.00  0.00    -0.310 N 
ATOM     22  C   UNL     1      -9.582  -7.084   7.823  0.00  0.00    +0.244 C 
ATOM     36  H   UNL     1      -9.103  -8.408   9.378  0.00  0.00    +0.149 HD
BRANCH  22  24
ATOM     24  C   UNL     1     -10.368  -6.221   8.741  0.00  0.00    +0.037 A 
ATOM     27  C   UNL     1     -11.271  -6.793   9.636  0.00  0.00    +0.013 A 
ATOM     28  C   UNL     1     -10.201  -4.835   8.708  0.00  0.00    +0.013 A 
ATOM     32  C   UNL     1     -12.009  -5.981  10.497  0.00  0.00    +0.013 A 
ATOM     33  C   UNL     1     -10.939  -4.024   9.569  0.00  0.00    +0.013 A 
ATOM     34  C   UNL     1     -11.843  -4.596  10.464  0.00  0.00    +0.055 A 
BRANCH  34  35
ATOM      1  F   UNL     1     -13.391  -4.427  12.280  0.00  0.00    -0.166 F 
ATOM      2  F   UNL     1     -13.506  -2.917  10.721  0.00  0.00    -0.166 F 
ATOM      3  F   UNL     1     -11.863  -2.894  12.144  0.00  0.00    -0.166 F 
ATOM     35  C   UNL     1     -12.632  -3.728  11.385  0.00  0.00    +0.417 C 
ENDBRANCH  34  35
ENDBRANCH  22  24
ENDBRANCH  17   7
ENDBRANCH  11  17
TORSDOF 7
ENDMDL
MODEL 3
REMARK VINA RESULT:      -7.2     25.002     27.821
REMARK  Name = 40776854
REMARK  7 active torsions:
REMARK  status: ('A' for Active; 'I' for Inactive)
REMARK    1  A    between atoms: N_6  and  C_16
REMARK    2  A    between atoms: N_7  and  C_17
REMARK    3  A    between atoms: N_8  and  C_23
REMARK    4  A    between atoms: C_10  and  C_16
REMARK    5  A    between atoms: C_11  and  C_17
REMARK    6  A    between atoms: C_22  and  C_24
REMARK    7  A    between atoms: C_34  and  C_35
REMARK                            x       y       z     vdW  Elec       q    Type
REMARK                         _______ _______ _______ _____ _____    ______ ____
ROOT
ATOM      5  N   UNL     1      -6.683 -12.829  18.446  0.00  0.00    -0.298 NA
ATOM      9  C   UNL     1      -5.913 -10.346  18.360  0.00  0.00    -0.003 C 
ATOM     10  C   UNL     1      -7.224 -10.544  17.565  0.00  0.00    +0.020 C 
ATOM     11  C   UNL     1      -5.266 -12.750  18.000  0.00  0.00    +0.074 C 
ATOM     12  C   UNL     1      -4.829 -11.283  17.797  0.00  0.00    +0.024 C 
ATOM     13  C   UNL     1      -7.555 -12.054  17.530  0.00  0.00    +0.089 C 
ATOM     14  C   UNL     1      -6.195 -10.791  19.807  0.00  0.00    +0.019 C 
ATOM     15  C   UNL     1      -6.773 -12.219  19.795  0.00  0.00    +0.085 C 
ENDROOT
BRANCH  10  16
ATOM     16  C   UNL     1      -7.175  -9.947  16.162  0.00  0.00    +0.089 C 
BRANCH  16   6
ATOM      6  N   UNL     1      -8.338  -9.095  15.913  0.00  0.00    -0.299 NA
ATOM      8  N   UNL     1     -11.096  -8.359  15.996  0.00  0.00    -0.327 N 
ATOM     18  C   UNL     1      -8.962  -8.691  17.179  0.00  0.00    +0.103 C 
ATOM     19  C   UNL     1      -9.318  -9.796  15.074  0.00  0.00    +0.103 C 
ATOM     20  C   UNL     1     -10.146  -7.754  16.934  0.00  0.00    +0.120 C 
ATOM     21  C   UNL     1     -10.514  -8.894  14.759  0.00  0.00    +0.120 C 
BRANCH   8  23
ATOM     23  C   UNL     1     -12.419  -7.905  15.958  0.00  0.00    +0.030 A 
ATOM     25  C   UNL     1     -12.769  -6.848  15.118  0.00  0.00    +0.023 A 
ATOM     26  C   UNL     1     -13.389  -8.512  16.756  0.00  0.00    +0.023 A 
ATOM     29  C   UNL     1     -14.089  -6.396  15.076  0.00  0.00    +0.002 A 
ATOM     30  C   UNL     1     -14.709  -8.061  16.714  0.00  0.00    +0.002 A 
ATOM     31  C   UNL     1     -15.059  -7.003  15.875  0.00  0.00    +0.000 A 
ENDBRANCH   8  23
ENDBRANCH  16   6
ENDBRANCH  10  16
BRANCH  11  17
ATOM     17  C   UNL     1      -4.997 -13.603  16.758  0.00  0.00    +0.123 C 
BRANCH  17   7
ATOM      4  O   UNL     1      -3.062 -14.039  14.682  0.00  0.00    -0.270 OA
ATOM      7  N   UNL     1      -4.774 -12.777  15.612  0.00  0.00    -0.310 N 
ATOM     22  C   UNL     1      -3.808 -13.064  14.648  0.00  0.00    +0.244 C 
ATOM     36  H   UNL     1      -5.316 -11.921  15.553  0.00  0.00    +0.149 HD
BRANCH  22  24
ATOM     24  C   UNL     1      -3.681 -12.093  13.531  0.00  0.00    +0.037 A 
ATOM     27  C   UNL     1      -2.578 -12.147  12.681  0.00  0.00    +0.013 A 
ATOM     28  C   UNL     1      -4.668 -11.127  13.332  0.00  0.00    +0.013 A 
ATOM     32  C   UNL     1      -2.459 -11.234  11.633  0.00  0.00    +0.013 A 
ATOM     33  C   UNL     1      -4.550 -10.214  12.285  0.00  0.00    +0.013 A 
ATOM     34  C   UNL     1      -3.445 -10.268  11.434  0.00  0.00    +0.055 A 
BRANCH  34  35
ATOM      1  F   UNL     1      -2.055  -8.796  10.161  0.00  0.00    -0.166 F 
ATOM      2  F   UNL     1      -4.121  -8.201  10.475  0.00  0.00    -0.166 F 
ATOM      3  F   UNL     1      -3.647  -9.813   9.096  0.00  0.00    -0.166 F 
ATOM     35  C   UNL     1      -3.318  -9.292  10.314  0.00  0.00    +0.417 C 
ENDBRANCH  34  35
ENDBRANCH  22  24
ENDBRANCH  17   7
ENDBRANCH  11  17
TORSDOF 7
ENDMDL
MODEL 4
REMARK VINA RESULT:      -7.0     33.693     37.137
REMARK  Name = 40776854
REMARK  7 active torsions:
REMARK  status: ('A' for Active; 'I' for Inactive)
REMARK    1  A    between atoms: N_6  and  C_16
REMARK    2  A    between atoms: N_7  and  C_17
REMARK    3  A    between atoms: N_8  and  C_23
REMARK    4  A    between atoms: C_10  and  C_16
REMARK    5  A    between atoms: C_11  and  C_17
REMARK    6  A    between atoms: C_22  and  C_24
REMARK    7  A    between atoms: C_34  and  C_35
REMARK                            x       y       z     vdW  Elec       q    Type
REMARK                         _______ _______ _______ _____ _____    ______ ____
ROOT
ATOM      5  N   UNL     1     -13.407  10.448  35.582  0.00  0.00    -0.298 NA
ATOM      9  C   UNL     1     -11.414   8.816  35.938  0.00  0.00    -0.003 C 
ATOM     10  C   UNL     1     -10.936  10.137  35.294  0.00  0.00    +0.020 C 
ATOM     11  C   UNL     1     -13.722   9.122  34.987  0.00  0.00    +0.074 C 
ATOM     12  C   UNL     1     -12.500   8.179  35.052  0.00  0.00    +0.024 C 
ATOM     13  C   UNL     1     -12.174  11.005  34.974  0.00  0.00    +0.089 C 
ATOM     14  C   UNL     1     -12.076   9.186  37.279  0.00  0.00    +0.019 C 
ATOM     15  C   UNL     1     -13.160  10.252  37.031  0.00  0.00    +0.085 C 
ENDROOT
BRANCH  10  16
ATOM     16  C   UNL     1     -10.064   9.924  34.059  0.00  0.00    +0.089 C 
BRANCH  16   6
ATOM      6  N   UNL     1     -10.764  10.345  32.844  0.00  0.00    -0.299 NA
ATOM      8  N   UNL     1     -11.099  10.758  30.039  0.00  0.00    -0.327 N 
ATOM     18  C   UNL     1     -10.967   9.204  31.944  0.00  0.00    +0.103 C 
ATOM     19  C   UNL     1     -10.008  11.398  32.154  0.00  0.00    +0.103 C 
ATOM     20  C   UNL     1     -11.748   9.620  30.696  0.00  0.00    +0.120 C 
ATOM     21  C   UNL     1     -10.758  11.887  30.913  0.00  0.00    +0.120 C 
BRANCH   8  23
ATOM     23  C   UNL     1     -11.366  11.027  28.692  0.00  0.00    +0.030 A 
ATOM     25  C   UNL     1     -10.998  10.106  27.710  0.00  0.00    +0.023 A 
ATOM     26  C   UNL     1     -12.006  12.212  28.330  0.00  0.00    +0.023 A 
ATOM     29  C   UNL     1     -11.267  10.372  26.367  0.00  0.00    +0.002 A 
ATOM     30  C   UNL     1     -12.276  12.478  26.987  0.00  0.00    +0.002 A 
ATOM     31  C   UNL     1     -11.906  11.558  26.006  0.00  0.00    +0.000 A 
ENDBRANCH   8  23
ENDBRANCH  16   6
ENDBRANCH  10  16
BRANCH  11  17
ATOM     17  C   UNL     1     -14.277   9.237  33.566  0.00  0.00    +0.123 C 
BRANCH  17   7
ATOM      4  O   UNL     1     -16.385   7.289  33.469  0.00  0.00    -0.270 OA
ATOM      7  N   UNL     1     -14.241   7.972  32.900  0.00  0.00    -0.310 N 
ATOM     22  C   UNL     1     -15.314   7.082  32.903  0.00  0.00    +0.244 C 
ATOM     36  H   UNL     1     -13.363   7.711  32.462  0.00  0.00    +0.149 HD
BRANCH  22  24
ATOM     24  C   UNL     1     -15.109   5.797  32.188  0.00  0.00    +0.037 A 
ATOM     27  C   UNL     1     -14.206   4.858  32.684  0.00  0.00    +0.013 A 
ATOM     28  C   UNL     1     -15.822   5.530  31.018  0.00  0.00    +0.013 A 
ATOM     32  C   UNL     1     -14.013   3.652  32.010  0.00  0.00    +0.013 A 
ATOM     33  C   UNL     1     -15.629   4.324  30.344  0.00  0.00    +0.013 A 
ATOM     34  C   UNL     1     -14.725   3.384  30.841  0.00  0.00    +0.055 A 
BRANCH  34  35
ATOM      1  F   UNL     1     -15.099   1.024  30.739  0.00  0.00    -0.166 F 
ATOM      2  F   UNL     1     -13.200   1.770  29.992  0.00  0.00    -0.166 F 
ATOM      3  F   UNL     1     -15.022   2.090  28.852  0.00  0.00    -0.166 F 
ATOM     35  C   UNL     1     -14.519   2.094  30.121  0.00  0.00    +0.417 C 
ENDBRANCH  34  35
ENDBRANCH  22  24
ENDBRANCH  17   7
ENDBRANCH  11  17
TORSDOF 7
ENDMDL
MODEL 5
REMARK VINA RESULT:      -7.0     26.371     29.063
REMARK  Name = 40776854
REMARK  7 active torsions:
REMARK  status: ('A' for Active; 'I' for Inactive)
REMARK    1  A    between atoms: N_6  and  C_16
REMARK    2  A    between atoms: N_7  and  C_17
REMARK    3  A    between atoms: N_8  and  C_23
REMARK    4  A    between atoms: C_10  and  C_16
REMARK    5  A    between atoms: C_11  and  C_17
REMARK    6  A    between atoms: C_22  and  C_24
REMARK    7  A    between atoms: C_34  and  C_35
REMARK                            x       y       z     vdW  Elec       q    Type
REMARK                         _______ _______ _______ _____ _____    ______ ____
ROOT
ATOM      5  N   UNL     1     -10.167 -11.901  17.529  0.00  0.00    -0.298 NA
ATOM      9  C   UNL     1     -12.542 -10.913  17.918  0.00  0.00    -0.003 C 
ATOM     10  C   UNL     1     -11.765 -10.085  16.869  0.00  0.00    +0.020 C 
ATOM     11  C   UNL     1     -10.396 -11.680  18.983  0.00  0.00    +0.074 C 
ATOM     12  C   UNL     1     -11.738 -10.956  19.230  0.00  0.00    +0.024 C 
ATOM     13  C   UNL     1     -10.320 -10.628  16.785  0.00  0.00    +0.089 C 
ATOM     14  C   UNL     1     -12.620 -12.355  17.382  0.00  0.00    +0.019 C 
ATOM     15  C   UNL     1     -11.201 -12.847  17.043  0.00  0.00    +0.085 C 
ENDROOT
BRANCH  10  16
ATOM     16  C   UNL     1     -11.787  -8.585  17.148  0.00  0.00    +0.089 C 
BRANCH  16   6
ATOM      6  N   UNL     1     -11.843  -7.820  15.902  0.00  0.00    -0.299 NA
ATOM      8  N   UNL     1     -12.826  -5.829  14.106  0.00  0.00    -0.327 N 
ATOM     18  C   UNL     1     -11.590  -6.397  16.158  0.00  0.00    +0.103 C 
ATOM     19  C   UNL     1     -13.150  -7.986  15.254  0.00  0.00    +0.103 C 
ATOM     20  C   UNL     1     -11.589  -5.595  14.855  0.00  0.00    +0.120 C 
ATOM     21  C   UNL     1     -13.200  -7.237  13.920  0.00  0.00    +0.120 C 
BRANCH   8  23
ATOM     23  C   UNL     1     -13.237  -4.907  13.137  0.00  0.00    +0.030 A 
ATOM     25  C   UNL     1     -12.426  -4.649  12.032  0.00  0.00    +0.023 A 
ATOM     26  C   UNL     1     -14.459  -4.248  13.273  0.00  0.00    +0.023 A 
ATOM     29  C   UNL     1     -12.835  -3.732  11.063  0.00  0.00    +0.002 A 
ATOM     30  C   UNL     1     -14.869  -3.332  12.305  0.00  0.00    +0.002 A 
ATOM     31  C   UNL     1     -14.058  -3.073  11.200  0.00  0.00    +0.000 A 
ENDBRANCH   8  23
ENDBRANCH  16   6
ENDBRANCH  10  16
BRANCH  11  17
ATOM     17  C   UNL     1      -9.226 -10.957  19.653  0.00  0.00    +0.123 C 
BRANCH  17   7
ATOM      4  O   UNL     1      -6.477 -10.816  20.471  0.00  0.00    -0.270 OA
ATOM      7  N   UNL     1      -8.081 -10.937  18.797  0.00  0.00    -0.310 N 
ATOM     22  C   UNL     1      -6.775 -10.866  19.280  0.00  0.00    +0.244 C 
ATOM     36  H   UNL     1      -8.257 -10.916  17.798  0.00  0.00    +0.149 HD
BRANCH  22  24
ATOM     24  C   UNL     1      -5.695 -10.827  18.261  0.00  0.00    +0.037 A 
ATOM     27  C   UNL     1      -5.907 -10.182  17.043  0.00  0.00    +0.013 A 
ATOM     28  C   UNL     1      -4.467 -11.436  18.524  0.00  0.00    +0.013 A 
ATOM     32  C   UNL     1      -4.893 -10.147  16.087  0.00  0.00    +0.013 A 
ATOM     33  C   UNL     1      -3.453 -11.401  17.567  0.00  0.00    +0.013 A 
ATOM     34  C   UNL     1      -3.665 -10.756  16.348  0.00  0.00    +0.055 A 
BRANCH  34  35
ATOM      1  F   UNL     1      -1.535  -9.909  15.667  0.00  0.00    -0.166 F 
ATOM      2  F   UNL     1      -3.016 -10.260  14.116  0.00  0.00    -0.166 F 
ATOM      3  F   UNL     1      -2.022 -11.938  15.075  0.00  0.00    -0.166 F 
ATOM     35  C   UNL     1      -2.581 -10.718  15.325  0.00  0.00    +0.417 C 
ENDBRANCH  34  35
ENDBRANCH  22  24
ENDBRANCH  17   7
ENDBRANCH  11  17
TORSDOF 7
ENDMDL
MODEL 6
REMARK VINA RESULT:      -6.9     22.485     24.423
REMARK  Name = 40776854
REMARK  7 active torsions:
REMARK  status: ('A' for Active; 'I' for Inactive)
REMARK    1  A    between atoms: N_6  and  C_16
REMARK    2  A    between atoms: N_7  and  C_17
REMARK    3  A    between atoms: N_8  and  C_23
REMARK    4  A    between atoms: C_10  and  C_16
REMARK    5  A    between atoms: C_11  and  C_17
REMARK    6  A    between atoms: C_22  and  C_24
REMARK    7  A    between atoms: C_34  and  C_35
REMARK                            x       y       z     vdW  Elec       q    Type
REMARK                         _______ _______ _______ _____ _____    ______ ____
ROOT
ATOM      5  N   UNL     1      -8.469  -9.456   8.135  0.00  0.00    -0.298 NA
ATOM      9  C   UNL     1      -6.739 -10.988   6.941  0.00  0.00    -0.003 C 
ATOM     10  C   UNL     1      -6.232 -10.571   8.340  0.00  0.00    +0.020 C 
ATOM     11  C   UNL     1      -8.165  -8.922   6.780  0.00  0.00    +0.074 C 
ATOM     12  C   UNL     1      -7.031  -9.727   6.107  0.00  0.00    +0.024 C 
ATOM     13  C   UNL     1      -7.227  -9.552   8.941  0.00  0.00    +0.089 C 
ATOM     14  C   UNL     1      -8.079 -11.719   7.150  0.00  0.00    +0.019 C 
ATOM     15  C   UNL     1      -9.022 -10.823   7.975  0.00  0.00    +0.085 C 
ENDROOT
BRANCH  10  16
ATOM     16  C   UNL     1      -4.807 -10.024   8.327  0.00  0.00    +0.089 C 
BRANCH  16   6
ATOM      6  N   UNL     1      -4.071 -10.448   9.518  0.00  0.00    -0.299 NA
ATOM      8  N   UNL     1      -3.393 -10.476  12.292  0.00  0.00    -0.327 N 
ATOM     18  C   UNL     1      -4.982 -11.049  10.500  0.00  0.00    +0.103 C 
ATOM     19  C   UNL     1      -3.367  -9.310  10.120  0.00  0.00    +0.103 C 
ATOM     20  C   UNL     1      -4.216 -11.549  11.727  0.00  0.00    +0.120 C 
ATOM     21  C   UNL     1      -2.547  -9.752  11.334  0.00  0.00    +0.120 C 
BRANCH   8  23
ATOM     23  C   UNL     1      -2.961 -10.558  13.620  0.00  0.00    +0.030 A 
ATOM     25  C   UNL     1      -1.663 -10.172  13.956  0.00  0.00    +0.023 A 
ATOM     26  C   UNL     1      -3.828 -11.022  14.610  0.00  0.00    +0.023 A 
ATOM     29  C   UNL     1      -1.232 -10.250  15.281  0.00  0.00    +0.002 A 
ATOM     30  C   UNL     1      -3.397 -11.100  15.934  0.00  0.00    +0.002 A 
ATOM     31  C   UNL     1      -2.100 -10.715  16.270  0.00  0.00    +0.000 A 
ENDBRANCH   8  23
ENDBRANCH  16   6
ENDBRANCH  10  16
BRANCH  11  17
ATOM     17  C   UNL     1      -7.865  -7.422   6.798  0.00  0.00    +0.123 C 
BRANCH  17   7
ATOM      4  O   UNL     1     -10.561  -6.496   6.455  0.00  0.00    -0.270 OA
ATOM      7  N   UNL     1      -8.669  -6.753   7.774  0.00  0.00    -0.310 N 
ATOM     22  C   UNL     1      -9.975  -6.335   7.522  0.00  0.00    +0.244 C 
ATOM     36  H   UNL     1      -8.224  -6.534   8.659  0.00  0.00    +0.149 HD
BRANCH  22  24
ATOM     24  C   UNL     1     -10.668  -5.630   8.631  0.00  0.00    +0.037 A 
ATOM     27  C   UNL     1     -10.580  -4.242   8.738  0.00  0.00    +0.013 A 
ATOM     28  C   UNL     1     -11.407  -6.357   9.565  0.00  0.00    +0.013 A 
ATOM     32  C   UNL     1     -11.230  -3.581   9.780  0.00  0.00    +0.013 A 
ATOM     33  C   UNL     1     -12.056  -5.695  10.607  0.00  0.00    +0.013 A 
ATOM     34  C   UNL     1     -11.968  -4.307  10.715  0.00  0.00    +0.055 A 
BRANCH  34  35
ATOM      1  F   UNL     1     -13.726  -2.846  11.420  0.00  0.00    -0.166 F 
ATOM      2  F   UNL     1     -11.842  -2.740  12.497  0.00  0.00    -0.166 F 
ATOM      3  F   UNL     1     -13.166  -4.440  12.780  0.00  0.00    -0.166 F 
ATOM     35  C   UNL     1     -12.663  -3.600  11.829  0.00  0.00    +0.417 C 
ENDBRANCH  34  35
ENDBRANCH  22  24
ENDBRANCH  17   7
ENDBRANCH  11  17
TORSDOF 7
ENDMDL
MODEL 7
REMARK VINA RESULT:      -6.9      5.754      8.709
REMARK  Name = 40776854
REMARK  7 active torsions:
REMARK  status: ('A' for Active; 'I' for Inactive)
REMARK    1  A    between atoms: N_6  and  C_16
REMARK    2  A    between atoms: N_7  and  C_17
REMARK    3  A    between atoms: N_8  and  C_23
REMARK    4  A    between atoms: C_10  and  C_16
REMARK    5  A    between atoms: C_11  and  C_17
REMARK    6  A    between atoms: C_22  and  C_24
REMARK    7  A    between atoms: C_34  and  C_35
REMARK                            x       y       z     vdW  Elec       q    Type
REMARK                         _______ _______ _______ _____ _____    ______ ____
ROOT
ATOM      5  N   UNL     1      12.456   5.026   1.482  0.00  0.00    -0.298 NA
ATOM      9  C   UNL     1      13.908   6.332  -0.236  0.00  0.00    -0.003 C 
ATOM     10  C   UNL     1      14.280   6.726   1.212  0.00  0.00    +0.020 C 
ATOM     11  C   UNL     1      11.583   5.689   0.476  0.00  0.00    +0.074 C 
ATOM     12  C   UNL     1      12.408   6.592  -0.467  0.00  0.00    +0.024 C 
ATOM     13  C   UNL     1      13.293   6.032   2.179  0.00  0.00    +0.089 C 
ATOM     14  C   UNL     1      14.133   4.813  -0.358  0.00  0.00    +0.019 C 
ATOM     15  C   UNL     1      13.358   4.094   0.761  0.00  0.00    +0.085 C 
ENDROOT
BRANCH  10  16
ATOM     16  C   UNL     1      14.318   8.235   1.435  0.00  0.00    +0.089 C 
BRANCH  16   6
ATOM      6  N   UNL     1      15.502   8.623   2.203  0.00  0.00    -0.299 NA
ATOM      8  N   UNL     1      17.695   8.229   3.988  0.00  0.00    -0.327 N 
ATOM     18  C   UNL     1      16.667   7.833   1.786  0.00  0.00    +0.103 C 
ATOM     19  C   UNL     1      15.264   8.444   3.640  0.00  0.00    +0.103 C 
ATOM     20  C   UNL     1      17.925   8.268   2.542  0.00  0.00    +0.120 C 
ATOM     21  C   UNL     1      16.476   8.900   4.457  0.00  0.00    +0.120 C 
BRANCH   8  23
ATOM     23  C   UNL     1      18.785   8.161   4.863  0.00  0.00    +0.030 A 
ATOM     25  C   UNL     1      19.953   7.505   4.472  0.00  0.00    +0.023 A 
ATOM     26  C   UNL     1      18.708   8.755   6.123  0.00  0.00    +0.023 A 
ATOM     29  C   UNL     1      21.042   7.439   5.342  0.00  0.00    +0.002 A 
ATOM     30  C   UNL     1      19.797   8.691   6.992  0.00  0.00    +0.002 A 
ATOM     31  C   UNL     1      20.963   8.033   6.603  0.00  0.00    +0.000 A 
ENDBRANCH   8  23
ENDBRANCH  16   6
ENDBRANCH  10  16
BRANCH  11  17
ATOM     17  C   UNL     1      10.423   6.449   1.122  0.00  0.00    +0.123 C 
BRANCH  17   7
ATOM      4  O   UNL     1       8.594   7.606   3.009  0.00  0.00    -0.270 OA
ATOM      7  N   UNL     1      10.315   6.130   2.512  0.00  0.00    -0.310 N 
ATOM     22  C   UNL     1       9.395   6.744   3.361  0.00  0.00    +0.244 C 
ATOM     36  H   UNL     1      10.989   5.468   2.882  0.00  0.00    +0.149 HD
BRANCH  22  24
ATOM     24  C   UNL     1       9.427   6.322   4.785  0.00  0.00    +0.037 A 
ATOM     27  C   UNL     1       9.072   7.223   5.788  0.00  0.00    +0.013 A 
ATOM     28  C   UNL     1       9.813   5.023   5.118  0.00  0.00    +0.013 A 
ATOM     32  C   UNL     1       9.104   6.827   7.125  0.00  0.00    +0.013 A 
ATOM     33  C   UNL     1       9.845   4.627   6.455  0.00  0.00    +0.013 A 
ATOM     34  C   UNL     1       9.490   5.528   7.459  0.00  0.00    +0.055 A 
BRANCH  34  35
ATOM      1  F   UNL     1      10.645   5.511   9.553  0.00  0.00    -0.166 F 
ATOM      2  F   UNL     1       9.485   3.749   9.034  0.00  0.00    -0.166 F 
ATOM      3  F   UNL     1       8.479   5.583   9.625  0.00  0.00    -0.166 F 
ATOM     35  C   UNL     1       9.524   5.104   8.888  0.00  0.00    +0.417 C 
ENDBRANCH  34  35
ENDBRANCH  22  24
ENDBRANCH  17   7
ENDBRANCH  11  17
TORSDOF 7
ENDMDL
MODEL 8
REMARK VINA RESULT:      -6.7     22.894     24.495
REMARK  Name = 40776854
REMARK  7 active torsions:
REMARK  status: ('A' for Active; 'I' for Inactive)
REMARK    1  A    between atoms: N_6  and  C_16
REMARK    2  A    between atoms: N_7  and  C_17
REMARK    3  A    between atoms: N_8  and  C_23
REMARK    4  A    between atoms: C_10  and  C_16
REMARK    5  A    between atoms: C_11  and  C_17
REMARK    6  A    between atoms: C_22  and  C_24
REMARK    7  A    between atoms: C_34  and  C_35
REMARK                            x       y       z     vdW  Elec       q    Type
REMARK                         _______ _______ _______ _____ _____    ______ ____
ROOT
ATOM      5  N   UNL     1      -9.451  -8.634   8.881  0.00  0.00    -0.298 NA
ATOM      9  C   UNL     1      -8.163  -6.755   7.625  0.00  0.00    -0.003 C 
ATOM     10  C   UNL     1      -8.842  -7.720   6.627  0.00  0.00    +0.020 C 
ATOM     11  C   UNL     1      -8.051  -8.557   9.377  0.00  0.00    +0.074 C 
ATOM     12  C   UNL     1      -7.222  -7.553   8.546  0.00  0.00    +0.024 C 
ATOM     13  C   UNL     1      -9.467  -8.890   7.420  0.00  0.00    +0.089 C 
ATOM     14  C   UNL     1      -9.279  -6.169   8.510  0.00  0.00    +0.019 C 
ATOM     15  C   UNL     1     -10.096  -7.320   9.126  0.00  0.00    +0.085 C 
ENDROOT
BRANCH  10  16
ATOM     16  C   UNL     1      -7.898  -8.221   5.536  0.00  0.00    +0.089 C 
BRANCH  16   6
ATOM      6  N   UNL     1      -8.256  -7.659   4.234  0.00  0.00    -0.299 NA
ATOM      8  N   UNL     1      -9.689  -7.497   1.769  0.00  0.00    -0.327 N 
ATOM     18  C   UNL     1      -9.666  -7.250   4.219  0.00  0.00    +0.103 C 
ATOM     19  C   UNL     1      -8.008  -8.636   3.166  0.00  0.00    +0.103 C 
ATOM     20  C   UNL     1     -10.038  -6.608   2.880  0.00  0.00    +0.120 C 
ATOM     21  C   UNL     1      -8.324  -8.039   1.793  0.00  0.00    +0.120 C 
BRANCH   8  23
ATOM     23  C   UNL     1     -10.308  -7.330   0.525  0.00  0.00    +0.030 A 
ATOM     25  C   UNL     1     -10.071  -8.245  -0.501  0.00  0.00    +0.023 A 
ATOM     26  C   UNL     1     -11.166  -6.251   0.312  0.00  0.00    +0.023 A 
ATOM     29  C   UNL     1     -10.690  -8.081  -1.740  0.00  0.00    +0.002 A 
ATOM     30  C   UNL     1     -11.787  -6.087  -0.927  0.00  0.00    +0.002 A 
ATOM     31  C   UNL     1     -11.548  -7.001  -1.953  0.00  0.00    +0.000 A 
ENDBRANCH   8  23
ENDBRANCH  16   6
ENDBRANCH  10  16
BRANCH  11  17
ATOM     17  C   UNL     1      -7.380  -9.931   9.444  0.00  0.00    +0.123 C 
BRANCH  17   7
ATOM      4  O   UNL     1      -4.701 -10.949   9.270  0.00  0.00    -0.270 OA
ATOM      7  N   UNL     1      -6.414  -9.975  10.497  0.00  0.00    -0.310 N 
ATOM     22  C   UNL     1      -5.129 -10.489  10.325  0.00  0.00    +0.244 C 
ATOM     36  H   UNL     1      -6.722  -9.666  11.413  0.00  0.00    +0.149 HD
BRANCH  22  24
ATOM     24  C   UNL     1      -4.252 -10.489  11.524  0.00  0.00    +0.037 A 
ATOM     27  C   UNL     1      -2.866 -10.450  11.376  0.00  0.00    +0.013 A 
ATOM     28  C   UNL     1      -4.816 -10.528  12.800  0.00  0.00    +0.013 A 
ATOM     32  C   UNL     1      -2.043 -10.451  12.502  0.00  0.00    +0.013 A 
ATOM     33  C   UNL     1      -3.993 -10.530  13.926  0.00  0.00    +0.013 A 
ATOM     34  C   UNL     1      -2.607 -10.491  13.777  0.00  0.00    +0.055 A 
BRANCH  34  35
ATOM      1  F   UNL     1      -2.411 -10.392  16.159  0.00  0.00    -0.166 F 
ATOM      2  F   UNL     1      -0.841  -9.454  14.985  0.00  0.00    -0.166 F 
ATOM      3  F   UNL     1      -0.969 -11.621  15.104  0.00  0.00    -0.166 F 
ATOM     35  C   UNL     1      -1.727 -10.492  14.981  0.00  0.00    +0.417 C 
ENDBRANCH  34  35
ENDBRANCH  22  24
ENDBRANCH  17   7
ENDBRANCH  11  17
TORSDOF 7
ENDMDL
MODEL 9
REMARK VINA RESULT:      -6.7     23.921     25.928
REMARK  Name = 40776854
REMARK  7 active torsions:
REMARK  status: ('A' for Active; 'I' for Inactive)
REMARK    1  A    between atoms: N_6  and  C_16
REMARK    2  A    between atoms: N_7  and  C_17
REMARK    3  A    between atoms: N_8  and  C_23
REMARK    4  A    between atoms: C_10  and  C_16
REMARK    5  A    between atoms: C_11  and  C_17
REMARK    6  A    between atoms: C_22  and  C_24
REMARK    7  A    between atoms: C_34  and  C_35
REMARK                            x       y       z     vdW  Elec       q    Type
REMARK                         _______ _______ _______ _____ _____    ______ ____
ROOT
ATOM      5  N   UNL     1      -1.692 -11.701  14.145  0.00  0.00    -0.298 NA
ATOM      9  C   UNL     1      -3.807 -12.322  12.764  0.00  0.00    -0.003 C 
ATOM     10  C   UNL     1      -3.094 -11.092  12.157  0.00  0.00    +0.020 C 
ATOM     11  C   UNL     1      -2.873 -11.808  15.042  0.00  0.00    +0.074 C 
ATOM     12  C   UNL     1      -4.169 -12.028  14.231  0.00  0.00    +0.024 C 
ATOM     13  C   UNL     1      -1.934 -10.683  13.094  0.00  0.00    +0.089 C 
ATOM     14  C   UNL     1      -2.786 -13.475  12.767  0.00  0.00    +0.019 C 
ATOM     15  C   UNL     1      -1.502 -13.014  13.480  0.00  0.00    +0.085 C 
ENDROOT
BRANCH  10  16
ATOM     16  C   UNL     1      -4.036  -9.922  11.884  0.00  0.00    +0.089 C 
BRANCH  16   6
ATOM      6  N   UNL     1      -4.873 -10.185  10.713  0.00  0.00    -0.299 NA
ATOM      8  N   UNL     1      -5.806  -9.817   8.040  0.00  0.00    -0.327 N 
ATOM     18  C   UNL     1      -4.049 -10.606   9.574  0.00  0.00    +0.103 C 
ATOM     19  C   UNL     1      -5.648  -8.990  10.356  0.00  0.00    +0.103 C 
ATOM     20  C   UNL     1      -4.919 -10.939   8.360  0.00  0.00    +0.120 C 
ATOM     21  C   UNL     1      -6.570  -9.270   9.168  0.00  0.00    +0.120 C 
BRANCH   8  23
ATOM     23  C   UNL     1      -6.360  -9.713   6.759  0.00  0.00    +0.030 A 
ATOM     25  C   UNL     1      -6.175 -10.741   5.834  0.00  0.00    +0.023 A 
ATOM     26  C   UNL     1      -7.100  -8.585   6.407  0.00  0.00    +0.023 A 
ATOM     29  C   UNL     1      -6.729 -10.641   4.557  0.00  0.00    +0.002 A 
ATOM     30  C   UNL     1      -7.655  -8.484   5.132  0.00  0.00    +0.002 A 
ATOM     31  C   UNL     1      -7.469  -9.511   4.206  0.00  0.00    +0.000 A 
ENDBRANCH   8  23
ENDBRANCH  16   6
ENDBRANCH  10  16
BRANCH  11  17
ATOM     17  C   UNL     1      -2.992 -10.616  15.994  0.00  0.00    +0.123 C 
BRANCH  17   7
ATOM      4  O   UNL     1      -4.103 -11.522  18.482  0.00  0.00    -0.270 OA
ATOM      7  N   UNL     1      -4.342 -10.450  16.437  0.00  0.00    -0.310 N 
ATOM     22  C   UNL     1      -4.800 -10.924  17.666  0.00  0.00    +0.244 C 
ATOM     36  H   UNL     1      -4.986 -10.016  15.785  0.00  0.00    +0.149 HD
BRANCH  22  24
ATOM     24  C   UNL     1      -6.236 -10.695  17.968  0.00  0.00    +0.037 A 
ATOM     27  C   UNL     1      -6.824 -11.310  19.073  0.00  0.00    +0.013 A 
ATOM     28  C   UNL     1      -6.997  -9.864  17.145  0.00  0.00    +0.013 A 
ATOM     32  C   UNL     1      -8.172 -11.096  19.355  0.00  0.00    +0.013 A 
ATOM     33  C   UNL     1      -8.346  -9.650  17.427  0.00  0.00    +0.013 A 
ATOM     34  C   UNL     1      -8.934 -10.266  18.533  0.00  0.00    +0.055 A 
BRANCH  34  35
ATOM      1  F   UNL     1     -11.193 -11.037  18.392  0.00  0.00    -0.166 F 
ATOM      2  F   UNL     1     -10.857  -8.894  18.264  0.00  0.00    -0.166 F 
ATOM      3  F   UNL     1     -10.644  -9.921  20.168  0.00  0.00    -0.166 F 
ATOM     35  C   UNL     1     -10.377 -10.036  18.835  0.00  0.00    +0.417 C 
ENDBRANCH  34  35
ENDBRANCH  22  24
ENDBRANCH  17   7
ENDBRANCH  11  17
TORSDOF 7
ENDMDL
MODEL 10
REMARK VINA RESULT:      -6.7     27.697     30.464
REMARK  Name = 40776854
REMARK  7 active torsions:
REMARK  status: ('A' for Active; 'I' for Inactive)
REMARK    1  A    between atoms: N_6  and  C_16
REMARK    2  A    between atoms: N_7  and  C_17
REMARK    3  A    between atoms: N_8  and  C_23
REMARK    4  A    between atoms: C_10  and  C_16
REMARK    5  A    between atoms: C_11  and  C_17
REMARK    6  A    between atoms: C_22  and  C_24
REMARK    7  A    between atoms: C_34  and  C_35
REMARK                            x       y       z     vdW  Elec       q    Type
REMARK                         _______ _______ _______ _____ _____    ______ ____
ROOT
ATOM      5  N   UNL     1      -4.749 -11.743  17.625  0.00  0.00    -0.298 NA
ATOM      9  C   UNL     1      -6.591 -11.315  19.412  0.00  0.00    -0.003 C 
ATOM     10  C   UNL     1      -6.931 -12.556  18.556  0.00  0.00    +0.020 C 
ATOM     11  C   UNL     1      -5.220 -10.334  17.544  0.00  0.00    +0.074 C 
ATOM     12  C   UNL     1      -6.417 -10.093  18.491  0.00  0.00    +0.024 C 
ATOM     13  C   UNL     1      -5.884 -12.677  17.425  0.00  0.00    +0.089 C 
ATOM     14  C   UNL     1      -5.227 -11.587  20.073  0.00  0.00    +0.019 C 
ATOM     15  C   UNL     1      -4.203 -11.965  18.986  0.00  0.00    +0.085 C 
ENDROOT
BRANCH  10  16
ATOM     16  C   UNL     1      -8.354 -12.537  18.004  0.00  0.00    +0.089 C 
BRANCH  16   6
ATOM      6  N   UNL     1      -9.306 -12.092  19.023  0.00  0.00    -0.299 NA
ATOM      8  N   UNL     1     -11.885 -11.556  20.124  0.00  0.00    -0.327 N 
ATOM     18  C   UNL     1     -10.190 -13.196  19.419  0.00  0.00    +0.103 C 
ATOM     19  C   UNL     1     -10.105 -10.966  18.525  0.00  0.00    +0.103 C 
ATOM     20  C   UNL     1     -11.152 -12.759  20.525  0.00  0.00    +0.120 C 
ATOM     21  C   UNL     1     -11.064 -10.456  19.602  0.00  0.00    +0.120 C 
BRANCH   8  23
ATOM     23  C   UNL     1     -13.090 -11.233  20.758  0.00  0.00    +0.030 A 
ATOM     25  C   UNL     1     -13.745 -10.041  20.446  0.00  0.00    +0.023 A 
ATOM     26  C   UNL     1     -13.640 -12.105  21.697  0.00  0.00    +0.023 A 
ATOM     29  C   UNL     1     -14.948  -9.720  21.075  0.00  0.00    +0.002 A 
ATOM     30  C   UNL     1     -14.844 -11.785  22.325  0.00  0.00    +0.002 A 
ATOM     31  C   UNL     1     -15.498 -10.592  22.015  0.00  0.00    +0.000 A 
ENDBRANCH   8  23
ENDBRANCH  16   6
ENDBRANCH  10  16
BRANCH  11  17
ATOM     17  C   UNL     1      -5.534  -9.906  16.109  0.00  0.00    +0.123 C 
BRANCH  17   7
ATOM      4  O   UNL     1      -7.844 -11.014  14.813  0.00  0.00    -0.270 OA
ATOM      7  N   UNL     1      -6.833  -9.314  16.026  0.00  0.00    -0.310 N 
ATOM     22  C   UNL     1      -7.904  -9.923  15.374  0.00  0.00    +0.244 C 
ATOM     36  H   UNL     1      -6.936  -8.383  16.418  0.00  0.00    +0.149 HD
BRANCH  22  24
ATOM     24  C   UNL     1      -9.182  -9.166  15.353  0.00  0.00    +0.037 A 
ATOM     27  C   UNL     1      -9.464  -8.245  16.360  0.00  0.00    +0.013 A 
ATOM     28  C   UNL     1     -10.100  -9.378  14.324  0.00  0.00    +0.013 A 
ATOM     32  C   UNL     1     -10.665  -7.535  16.340  0.00  0.00    +0.013 A 
ATOM     33  C   UNL     1     -11.300  -8.669  14.304  0.00  0.00    +0.013 A 
ATOM     34  C   UNL     1     -11.583  -7.747  15.312  0.00  0.00    +0.055 A 
BRANCH  34  35
ATOM      1  F   UNL     1     -13.296  -6.675  14.033  0.00  0.00    -0.166 F 
ATOM      2  F   UNL     1     -12.784  -5.799  15.954  0.00  0.00    -0.166 F 
ATOM      3  F   UNL     1     -13.908  -7.658  15.867  0.00  0.00    -0.166 F 
ATOM     35  C   UNL     1     -12.867  -6.988  15.291  0.00  0.00    +0.417 C 
ENDBRANCH  34  35
ENDBRANCH  22  24
ENDBRANCH  17   7
ENDBRANCH  11  17
TORSDOF 7
ENDMDL
