MODEL 1
REMARK VINA RESULT:      -6.9      0.000      0.000
REMARK  Name = 45783453
REMARK  8 active torsions:
REMARK  status: ('A' for Active; 'I' for Inactive)
REMARK    1  A    between atoms: O_3  and  C_22
REMARK    2  A    between atoms: O_3  and  C_25
REMARK    3  A    between atoms: O_4  and  C_26
REMARK    4  A    between atoms: O_4  and  C_27
REMARK    5  A    between atoms: N_5  and  C_9
REMARK    6  A    between atoms: C_10  and  C_18
REMARK    7  A    between atoms: C_19  and  C_20
REMARK    8  A    between atoms: C_25  and  C_26
REMARK                            x       y       z     vdW  Elec       q    Type
REMARK                         _______ _______ _______ _____ _____    ______ ____
ROOT
ATOM      2  O   UNL     1      15.960   5.975  18.398  0.00  0.00    -0.336 OA
ATOM      6  N   UNL     1      16.316   7.516  19.983  0.00  0.00    -0.189 NA
ATOM      7  N   UNL     1      17.218   5.688  18.944  0.00  0.00    -0.054 NA
ATOM     18  C   UNL     1      15.499   7.064  19.065  0.00  0.00    +0.245 A 
ATOM     19  C   UNL     1      17.356   6.641  19.872  0.00  0.00    +0.221 A 
ENDROOT
BRANCH  19  20
ATOM      8  N   UNL     1      18.474   7.704  21.657  0.00  0.00    -0.252 NA
ATOM     20  C   UNL     1      18.521   6.746  20.704  0.00  0.00    +0.115 A 
ATOM     21  C   UNL     1      19.599   5.898  20.507  0.00  0.00    +0.077 A 
ATOM     22  C   UNL     1      20.700   6.044  21.342  0.00  0.00    +0.124 A 
ATOM     23  C   UNL     1      19.563   7.816  22.449  0.00  0.00    +0.115 A 
ATOM     24  C   UNL     1      20.691   7.019  22.334  0.00  0.00    +0.065 A 
BRANCH  22   3
ATOM      3  O   UNL     1      21.784   5.235  21.190  0.00  0.00    -0.490 OA
BRANCH   3  25
ATOM     25  C   UNL     1      21.545   3.829  21.140  0.00  0.00    +0.257 C 
BRANCH  25  26
ATOM     26  C   UNL     1      22.742   3.103  21.724  0.00  0.00    +0.200 C 
BRANCH  26   4
ATOM      4  O   UNL     1      23.292   2.243  20.734  0.00  0.00    -0.380 OA
ATOM     27  C   UNL     1      24.194   1.305  21.302  0.00  0.00    +0.194 C 
ENDBRANCH  26   4
ENDBRANCH  25  26
ENDBRANCH   3  25
ENDBRANCH  22   3
ENDBRANCH  19  20
BRANCH  18  10
ATOM      5  N   UNL     1      13.611   8.601  19.582  0.00  0.00    -0.288 NA
ATOM     10  C   UNL     1      14.135   7.579  18.654  0.00  0.00    +0.146 C 
ATOM     11  C   UNL     1      12.749   9.477  18.789  0.00  0.00    +0.085 C 
ATOM     12  C   UNL     1      14.151   8.272  17.279  0.00  0.00    +0.030 C 
ATOM     13  C   UNL     1      13.562   9.654  17.523  0.00  0.00    +0.017 C 
BRANCH   5   9
ATOM      1  O   UNL     1      10.426   7.259  21.966  0.00  0.00    -0.380 OA
ATOM      9  C   UNL     1      12.909   8.030  20.729  0.00  0.00    +0.062 C 
ATOM     14  C   UNL     1      12.157   6.755  20.336  0.00  0.00    +0.047 C 
ATOM     15  C   UNL     1      11.933   9.052  21.320  0.00  0.00    +0.047 C 
ATOM     16  C   UNL     1      11.324   6.248  21.509  0.00  0.00    +0.161 C 
ATOM     17  C   UNL     1      11.113   8.418  22.437  0.00  0.00    +0.161 C 
ENDBRANCH   5   9
ENDBRANCH  18  10
TORSDOF 7
ENDMDL
MODEL 2
REMARK VINA RESULT:      -6.5      1.726      3.275
REMARK  Name = 45783453
REMARK  8 active torsions:
REMARK  status: ('A' for Active; 'I' for Inactive)
REMARK    1  A    between atoms: O_3  and  C_22
REMARK    2  A    between atoms: O_3  and  C_25
REMARK    3  A    between atoms: O_4  and  C_26
REMARK    4  A    between atoms: O_4  and  C_27
REMARK    5  A    between atoms: N_5  and  C_9
REMARK    6  A    between atoms: C_10  and  C_18
REMARK    7  A    between atoms: C_19  and  C_20
REMARK    8  A    between atoms: C_25  and  C_26
REMARK                            x       y       z     vdW  Elec       q    Type
REMARK                         _______ _______ _______ _____ _____    ______ ____
ROOT
ATOM      2  O   UNL     1      14.372   6.680  20.647  0.00  0.00    -0.336 OA
ATOM      6  N   UNL     1      15.657   8.513  20.660  0.00  0.00    -0.189 NA
ATOM      7  N   UNL     1      15.690   6.230  20.797  0.00  0.00    -0.054 NA
ATOM     18  C   UNL     1      14.442   8.034  20.574  0.00  0.00    +0.245 A 
ATOM     19  C   UNL     1      16.388   7.370  20.796  0.00  0.00    +0.221 A 
ENDROOT
BRANCH  19  20
ATOM      8  N   UNL     1      18.348   8.600  21.254  0.00  0.00    -0.252 NA
ATOM     20  C   UNL     1      17.817   7.400  20.928  0.00  0.00    +0.115 A 
ATOM     21  C   UNL     1      18.562   6.250  20.727  0.00  0.00    +0.077 A 
ATOM     22  C   UNL     1      19.942   6.337  20.868  0.00  0.00    +0.124 A 
ATOM     23  C   UNL     1      19.693   8.645  21.383  0.00  0.00    +0.115 A 
ATOM     24  C   UNL     1      20.527   7.553  21.202  0.00  0.00    +0.065 A 
BRANCH  22   3
ATOM      3  O   UNL     1      20.718   5.235  20.681  0.00  0.00    -0.490 OA
BRANCH   3  25
ATOM     25  C   UNL     1      21.888   5.117  21.490  0.00  0.00    +0.257 C 
BRANCH  25  26
ATOM     26  C   UNL     1      21.978   3.701  22.026  0.00  0.00    +0.200 C 
BRANCH  26   4
ATOM      4  O   UNL     1      22.280   2.817  20.954  0.00  0.00    -0.380 OA
ATOM     27  C   UNL     1      23.640   2.409  20.982  0.00  0.00    +0.194 C 
ENDBRANCH  26   4
ENDBRANCH  25  26
ENDBRANCH   3  25
ENDBRANCH  22   3
ENDBRANCH  19  20
BRANCH  18  10
ATOM      5  N   UNL     1      12.328   8.254  19.279  0.00  0.00    -0.288 NA
ATOM     10  C   UNL     1      13.128   8.769  20.408  0.00  0.00    +0.146 C 
ATOM     11  C   UNL     1      10.926   8.484  19.627  0.00  0.00    +0.085 C 
ATOM     12  C   UNL     1      12.208   8.628  21.635  0.00  0.00    +0.030 C 
ATOM     13  C   UNL     1      10.897   8.085  21.088  0.00  0.00    +0.017 C 
BRANCH   5   9
ATOM      1  O   UNL     1      12.983   8.601  15.147  0.00  0.00    -0.380 OA
ATOM      9  C   UNL     1      12.683   8.860  17.998  0.00  0.00    +0.062 C 
ATOM     14  C   UNL     1      11.486   8.869  17.042  0.00  0.00    +0.047 C 
ATOM     15  C   UNL     1      13.856   8.112  17.361  0.00  0.00    +0.047 C 
ATOM     16  C   UNL     1      11.908   9.381  15.669  0.00  0.00    +0.161 C 
ATOM     17  C   UNL     1      14.147   8.666  15.971  0.00  0.00    +0.161 C 
ENDBRANCH   5   9
ENDBRANCH  18  10
TORSDOF 7
ENDMDL
MODEL 3
REMARK VINA RESULT:      -6.4      2.165      3.016
REMARK  Name = 45783453
REMARK  8 active torsions:
REMARK  status: ('A' for Active; 'I' for Inactive)
REMARK    1  A    between atoms: O_3  and  C_22
REMARK    2  A    between atoms: O_3  and  C_25
REMARK    3  A    between atoms: O_4  and  C_26
REMARK    4  A    between atoms: O_4  and  C_27
REMARK    5  A    between atoms: N_5  and  C_9
REMARK    6  A    between atoms: C_10  and  C_18
REMARK    7  A    between atoms: C_19  and  C_20
REMARK    8  A    between atoms: C_25  and  C_26
REMARK                            x       y       z     vdW  Elec       q    Type
REMARK                         _______ _______ _______ _____ _____    ______ ____
ROOT
ATOM      2  O   UNL     1      15.795   5.963  18.119  0.00  0.00    -0.336 OA
ATOM      6  N   UNL     1      16.223   7.318  19.849  0.00  0.00    -0.189 NA
ATOM      7  N   UNL     1      17.043   5.573  18.618  0.00  0.00    -0.054 NA
ATOM     18  C   UNL     1      15.382   6.996  18.899  0.00  0.00    +0.245 A 
ATOM     19  C   UNL     1      17.227   6.419  19.637  0.00  0.00    +0.221 A 
ENDROOT
BRANCH  19  20
ATOM      8  N   UNL     1      19.339   5.482  20.114  0.00  0.00    -0.252 NA
ATOM     20  C   UNL     1      18.401   6.391  20.462  0.00  0.00    +0.115 A 
ATOM     21  C   UNL     1      18.522   7.260  21.534  0.00  0.00    +0.077 A 
ATOM     22  C   UNL     1      19.681   7.191  22.299  0.00  0.00    +0.124 A 
ATOM     23  C   UNL     1      20.451   5.444  20.881  0.00  0.00    +0.115 A 
ATOM     24  C   UNL     1      20.669   6.268  21.973  0.00  0.00    +0.065 A 
BRANCH  22   3
ATOM      3  O   UNL     1      19.848   8.023  23.363  0.00  0.00    -0.490 OA
BRANCH   3  25
ATOM     25  C   UNL     1      20.199   9.377  23.081  0.00  0.00    +0.257 C 
BRANCH  25  26
ATOM     26  C   UNL     1      21.351   9.786  23.979  0.00  0.00    +0.200 C 
BRANCH  26   4
ATOM      4  O   UNL     1      22.347   8.771  23.949  0.00  0.00    -0.380 OA
ATOM     27  C   UNL     1      23.243   8.952  22.863  0.00  0.00    +0.194 C 
ENDBRANCH  26   4
ENDBRANCH  25  26
ENDBRANCH   3  25
ENDBRANCH  22   3
ENDBRANCH  19  20
BRANCH  18  10
ATOM      5  N   UNL     1      13.604   8.612  19.547  0.00  0.00    -0.288 NA
ATOM     10  C   UNL     1      14.038   7.604  18.559  0.00  0.00    +0.146 C 
ATOM     11  C   UNL     1      12.768   9.569  18.823  0.00  0.00    +0.085 C 
ATOM     12  C   UNL     1      14.048   8.355  17.214  0.00  0.00    +0.030 C 
ATOM     13  C   UNL     1      13.548   9.755  17.538  0.00  0.00    +0.017 C 
BRANCH   5   9
ATOM      1  O   UNL     1      10.440   7.191  21.912  0.00  0.00    -0.380 OA
ATOM      9  C   UNL     1      12.909   8.031  20.694  0.00  0.00    +0.062 C 
ATOM     14  C   UNL     1      12.205   6.726  20.308  0.00  0.00    +0.047 C 
ATOM     15  C   UNL     1      11.893   9.026  21.261  0.00  0.00    +0.047 C 
ATOM     16  C   UNL     1      11.376   6.206  21.478  0.00  0.00    +0.161 C 
ATOM     17  C   UNL     1      11.082   8.378  22.377  0.00  0.00    +0.161 C 
ENDBRANCH   5   9
ENDBRANCH  18  10
TORSDOF 7
ENDMDL
MODEL 4
REMARK VINA RESULT:      -6.3      2.231      3.181
REMARK  Name = 45783453
REMARK  8 active torsions:
REMARK  status: ('A' for Active; 'I' for Inactive)
REMARK    1  A    between atoms: O_3  and  C_22
REMARK    2  A    between atoms: O_3  and  C_25
REMARK    3  A    between atoms: O_4  and  C_26
REMARK    4  A    between atoms: O_4  and  C_27
REMARK    5  A    between atoms: N_5  and  C_9
REMARK    6  A    between atoms: C_10  and  C_18
REMARK    7  A    between atoms: C_19  and  C_20
REMARK    8  A    between atoms: C_25  and  C_26
REMARK                            x       y       z     vdW  Elec       q    Type
REMARK                         _______ _______ _______ _____ _____    ______ ____
ROOT
ATOM      2  O   UNL     1      15.899   9.019  20.147  0.00  0.00    -0.336 OA
ATOM      6  N   UNL     1      16.599   6.897  19.999  0.00  0.00    -0.189 NA
ATOM      7  N   UNL     1      17.162   8.984  20.751  0.00  0.00    -0.054 NA
ATOM     18  C   UNL     1      15.643   7.752  19.732  0.00  0.00    +0.245 A 
ATOM     19  C   UNL     1      17.509   7.699  20.624  0.00  0.00    +0.221 A 
ENDROOT
BRANCH  19  20
ATOM      8  N   UNL     1      19.250   6.118  20.443  0.00  0.00    -0.252 NA
ATOM     20  C   UNL     1      18.757   7.184  21.111  0.00  0.00    +0.115 A 
ATOM     21  C   UNL     1      19.380   7.776  22.198  0.00  0.00    +0.077 A 
ATOM     22  C   UNL     1      20.588   7.237  22.627  0.00  0.00    +0.124 A 
ATOM     23  C   UNL     1      20.426   5.621  20.889  0.00  0.00    +0.115 A 
ATOM     24  C   UNL     1      21.128   6.139  21.966  0.00  0.00    +0.065 A 
BRANCH  22   3
ATOM      3  O   UNL     1      21.239   7.782  23.690  0.00  0.00    -0.490 OA
BRANCH   3  25
ATOM     25  C   UNL     1      20.553   7.784  24.942  0.00  0.00    +0.257 C 
BRANCH  25  26
ATOM     26  C   UNL     1      21.071   6.640  25.792  0.00  0.00    +0.200 C 
BRANCH  26   4
ATOM      4  O   UNL     1      20.039   6.210  26.671  0.00  0.00    -0.380 OA
ATOM     27  C   UNL     1      20.550   5.894  27.958  0.00  0.00    +0.194 C 
ENDBRANCH  26   4
ENDBRANCH  25  26
ENDBRANCH   3  25
ENDBRANCH  22   3
ENDBRANCH  19  20
BRANCH  18  10
ATOM      5  N   UNL     1      13.277   8.477  19.471  0.00  0.00    -0.288 NA
ATOM     10  C   UNL     1      14.318   7.524  19.036  0.00  0.00    +0.146 C 
ATOM     11  C   UNL     1      12.371   8.646  18.335  0.00  0.00    +0.085 C 
ATOM     12  C   UNL     1      14.407   7.712  17.510  0.00  0.00    +0.030 C 
ATOM     13  C   UNL     1      13.339   8.743  17.174  0.00  0.00    +0.017 C 
BRANCH   5   9
ATOM      1  O   UNL     1      10.122   7.214  21.936  0.00  0.00    -0.380 OA
ATOM      9  C   UNL     1      12.572   8.049  20.678  0.00  0.00    +0.062 C 
ATOM     14  C   UNL     1      12.004   6.636  20.512  0.00  0.00    +0.047 C 
ATOM     15  C   UNL     1      11.446   9.030  21.013  0.00  0.00    +0.047 C 
ATOM     16  C   UNL     1      11.161   6.258  21.725  0.00  0.00    +0.161 C 
ATOM     17  C   UNL     1      10.634   8.520  22.198  0.00  0.00    +0.161 C 
ENDBRANCH   5   9
ENDBRANCH  18  10
TORSDOF 7
ENDMDL
MODEL 5
REMARK VINA RESULT:      -6.2      2.059      8.921
REMARK  Name = 45783453
REMARK  8 active torsions:
REMARK  status: ('A' for Active; 'I' for Inactive)
REMARK    1  A    between atoms: O_3  and  C_22
REMARK    2  A    between atoms: O_3  and  C_25
REMARK    3  A    between atoms: O_4  and  C_26
REMARK    4  A    between atoms: O_4  and  C_27
REMARK    5  A    between atoms: N_5  and  C_9
REMARK    6  A    between atoms: C_10  and  C_18
REMARK    7  A    between atoms: C_19  and  C_20
REMARK    8  A    between atoms: C_25  and  C_26
REMARK                            x       y       z     vdW  Elec       q    Type
REMARK                         _______ _______ _______ _____ _____    ______ ____
ROOT
ATOM      2  O   UNL     1      18.683   6.042  19.810  0.00  0.00    -0.336 OA
ATOM      6  N   UNL     1      17.422   7.514  20.932  0.00  0.00    -0.189 NA
ATOM      7  N   UNL     1      17.371   5.855  19.357  0.00  0.00    -0.054 NA
ATOM     18  C   UNL     1      18.624   7.035  20.735  0.00  0.00    +0.245 A 
ATOM     19  C   UNL     1      16.687   6.759  20.065  0.00  0.00    +0.221 A 
ENDROOT
BRANCH  19  20
ATOM      8  N   UNL     1      14.571   6.966  21.087  0.00  0.00    -0.252 NA
ATOM     20  C   UNL     1      15.269   6.934  19.930  0.00  0.00    +0.115 A 
ATOM     21  C   UNL     1      14.696   7.060  18.674  0.00  0.00    +0.077 A 
ATOM     22  C   UNL     1      13.318   7.228  18.602  0.00  0.00    +0.124 A 
ATOM     23  C   UNL     1      13.234   7.130  20.977  0.00  0.00    +0.115 A 
ATOM     24  C   UNL     1      12.565   7.264  19.771  0.00  0.00    +0.065 A 
BRANCH  22   3
ATOM      3  O   UNL     1      12.709   7.355  17.392  0.00  0.00    -0.490 OA
BRANCH   3  25
ATOM     25  C   UNL     1      11.725   8.381  17.265  0.00  0.00    +0.257 C 
BRANCH  25  26
ATOM     26  C   UNL     1      12.168   9.360  16.194  0.00  0.00    +0.200 C 
BRANCH  26   4
ATOM      4  O   UNL     1      13.243   8.790  15.459  0.00  0.00    -0.380 OA
ATOM     27  C   UNL     1      14.390   9.627  15.480  0.00  0.00    +0.194 C 
ENDBRANCH  26   4
ENDBRANCH  25  26
ENDBRANCH   3  25
ENDBRANCH  22   3
ENDBRANCH  19  20
BRANCH  18  10
ATOM      5  N   UNL     1      21.105   7.096  20.549  0.00  0.00    -0.288 NA
ATOM     10  C   UNL     1      19.934   7.430  21.384  0.00  0.00    +0.146 C 
ATOM     11  C   UNL     1      22.139   8.079  20.873  0.00  0.00    +0.085 C 
ATOM     12  C   UNL     1      20.045   8.948  21.623  0.00  0.00    +0.030 C 
ATOM     13  C   UNL     1      21.339   9.364  20.937  0.00  0.00    +0.017 C 
BRANCH   5   9
ATOM      1  O   UNL     1      23.363   3.888  22.044  0.00  0.00    -0.380 OA
ATOM      9  C   UNL     1      21.573   5.724  20.737  0.00  0.00    +0.062 C 
ATOM     14  C   UNL     1      21.366   5.265  22.184  0.00  0.00    +0.047 C 
ATOM     15  C   UNL     1      23.052   5.609  20.358  0.00  0.00    +0.047 C 
ATOM     16  C   UNL     1      21.980   3.885  22.395  0.00  0.00    +0.161 C 
ATOM     17  C   UNL     1      23.571   4.210  20.669  0.00  0.00    +0.161 C 
ENDBRANCH   5   9
ENDBRANCH  18  10
TORSDOF 7
ENDMDL
MODEL 6
REMARK VINA RESULT:      -6.1      2.274      9.851
REMARK  Name = 45783453
REMARK  8 active torsions:
REMARK  status: ('A' for Active; 'I' for Inactive)
REMARK    1  A    between atoms: O_3  and  C_22
REMARK    2  A    between atoms: O_3  and  C_25
REMARK    3  A    between atoms: O_4  and  C_26
REMARK    4  A    between atoms: O_4  and  C_27
REMARK    5  A    between atoms: N_5  and  C_9
REMARK    6  A    between atoms: C_10  and  C_18
REMARK    7  A    between atoms: C_19  and  C_20
REMARK    8  A    between atoms: C_25  and  C_26
REMARK                            x       y       z     vdW  Elec       q    Type
REMARK                         _______ _______ _______ _____ _____    ______ ____
ROOT
ATOM      2  O   UNL     1      20.950   6.456  22.965  0.00  0.00    -0.336 OA
ATOM      6  N   UNL     1      20.660   5.907  20.814  0.00  0.00    -0.189 NA
ATOM      7  N   UNL     1      19.585   6.625  22.702  0.00  0.00    -0.054 NA
ATOM     18  C   UNL     1      21.510   6.033  21.802  0.00  0.00    +0.245 A 
ATOM     19  C   UNL     1      19.493   6.282  21.413  0.00  0.00    +0.221 A 
ENDROOT
BRANCH  19  20
ATOM      8  N   UNL     1      18.302   5.844  19.424  0.00  0.00    -0.252 NA
ATOM     20  C   UNL     1      18.251   6.302  20.695  0.00  0.00    +0.115 A 
ATOM     21  C   UNL     1      17.098   6.768  21.306  0.00  0.00    +0.077 A 
ATOM     22  C   UNL     1      15.923   6.765  20.564  0.00  0.00    +0.124 A 
ATOM     23  C   UNL     1      17.140   5.856  18.734  0.00  0.00    +0.115 A 
ATOM     24  C   UNL     1      15.935   6.302  19.253  0.00  0.00    +0.065 A 
BRANCH  22   3
ATOM      3  O   UNL     1      14.764   7.213  21.119  0.00  0.00    -0.490 OA
BRANCH   3  25
ATOM     25  C   UNL     1      13.565   7.016  20.371  0.00  0.00    +0.257 C 
BRANCH  25  26
ATOM     26  C   UNL     1      12.392   6.931  21.329  0.00  0.00    +0.200 C 
BRANCH  26   4
ATOM      4  O   UNL     1      11.185   7.127  20.604  0.00  0.00    -0.380 OA
ATOM     27  C   UNL     1      11.082   8.455  20.112  0.00  0.00    +0.194 C 
ENDBRANCH  26   4
ENDBRANCH  25  26
ENDBRANCH   3  25
ENDBRANCH  22   3
ENDBRANCH  19  20
BRANCH  18  10
ATOM      5  N   UNL     1      23.412   4.734  20.861  0.00  0.00    -0.288 NA
ATOM     10  C   UNL     1      23.001   5.774  21.826  0.00  0.00    +0.146 C 
ATOM     11  C   UNL     1      24.784   5.056  20.465  0.00  0.00    +0.085 C 
ATOM     12  C   UNL     1      23.827   7.015  21.438  0.00  0.00    +0.030 C 
ATOM     13  C   UNL     1      24.713   6.559  20.288  0.00  0.00    +0.017 C 
BRANCH   5   9
ATOM      1  O   UNL     1      24.538   1.120  22.676  0.00  0.00    -0.380 OA
ATOM      9  C   UNL     1      23.298   3.378  21.392  0.00  0.00    +0.062 C 
ATOM     14  C   UNL     1      23.594   3.348  22.895  0.00  0.00    +0.047 C 
ATOM     15  C   UNL     1      24.248   2.433  20.652  0.00  0.00    +0.047 C 
ATOM     16  C   UNL     1      23.600   1.911  23.405  0.00  0.00    +0.161 C 
ATOM     17  C   UNL     1      24.219   1.047  21.287  0.00  0.00    +0.161 C 
ENDBRANCH   5   9
ENDBRANCH  18  10
TORSDOF 7
ENDMDL
MODEL 7
REMARK VINA RESULT:      -6.1     26.724     29.282
REMARK  Name = 45783453
REMARK  8 active torsions:
REMARK  status: ('A' for Active; 'I' for Inactive)
REMARK    1  A    between atoms: O_3  and  C_22
REMARK    2  A    between atoms: O_3  and  C_25
REMARK    3  A    between atoms: O_4  and  C_26
REMARK    4  A    between atoms: O_4  and  C_27
REMARK    5  A    between atoms: N_5  and  C_9
REMARK    6  A    between atoms: C_10  and  C_18
REMARK    7  A    between atoms: C_19  and  C_20
REMARK    8  A    between atoms: C_25  and  C_26
REMARK                            x       y       z     vdW  Elec       q    Type
REMARK                         _______ _______ _______ _____ _____    ______ ____
ROOT
ATOM      2  O   UNL     1      -2.237 -10.525  14.533  0.00  0.00    -0.336 OA
ATOM      6  N   UNL     1      -4.458 -10.810  14.558  0.00  0.00    -0.189 NA
ATOM      7  N   UNL     1      -2.614 -10.529  15.882  0.00  0.00    -0.054 NA
ATOM     18  C   UNL     1      -3.381 -10.695  13.822  0.00  0.00    +0.245 A 
ATOM     19  C   UNL     1      -3.938 -10.702  15.814  0.00  0.00    +0.221 A 
ENDROOT
BRANCH  19  20
ATOM      8  N   UNL     1      -4.217 -11.376  18.057  0.00  0.00    -0.252 NA
ATOM     20  C   UNL     1      -4.769 -10.770  16.982  0.00  0.00    +0.115 A 
ATOM     21  C   UNL     1      -6.046 -10.235  16.964  0.00  0.00    +0.077 A 
ATOM     22  C   UNL     1      -6.807 -10.328  18.123  0.00  0.00    +0.124 A 
ATOM     23  C   UNL     1      -4.987 -11.448  19.166  0.00  0.00    +0.115 A 
ATOM     24  C   UNL     1      -6.275 -10.946  19.250  0.00  0.00    +0.065 A 
BRANCH  22   3
ATOM      3  O   UNL     1      -8.068  -9.818  18.155  0.00  0.00    -0.490 OA
BRANCH   3  25
ATOM     25  C   UNL     1      -8.585  -9.283  16.937  0.00  0.00    +0.257 C 
BRANCH  25  26
ATOM     26  C   UNL     1      -9.531  -8.142  17.260  0.00  0.00    +0.200 C 
BRANCH  26   4
ATOM      4  O   UNL     1      -9.919  -7.504  16.050  0.00  0.00    -0.380 OA
ATOM     27  C   UNL     1     -10.084  -8.442  14.996  0.00  0.00    +0.194 C 
ENDBRANCH  26   4
ENDBRANCH  25  26
ENDBRANCH   3  25
ENDBRANCH  22   3
ENDBRANCH  19  20
BRANCH  18  10
ATOM      5  N   UNL     1      -4.054  -9.692  11.646  0.00  0.00    -0.288 NA
ATOM     10  C   UNL     1      -3.240 -10.727  12.314  0.00  0.00    +0.146 C 
ATOM     11  C   UNL     1      -3.353  -9.348  10.409  0.00  0.00    +0.085 C 
ATOM     12  C   UNL     1      -1.799 -10.453  11.846  0.00  0.00    +0.030 C 
ATOM     13  C   UNL     1      -1.912  -9.288  10.873  0.00  0.00    +0.017 C 
BRANCH   5   9
ATOM      1  O   UNL     1      -8.003  -9.570  10.224  0.00  0.00    -0.380 OA
ATOM      9  C   UNL     1      -5.431 -10.113  11.399  0.00  0.00    +0.062 C 
ATOM     14  C   UNL     1      -5.699 -10.270   9.898  0.00  0.00    +0.047 C 
ATOM     15  C   UNL     1      -6.414  -9.107  12.003  0.00  0.00    +0.047 C 
ATOM     16  C   UNL     1      -7.171 -10.580   9.652  0.00  0.00    +0.161 C 
ATOM     17  C   UNL     1      -7.846  -9.481  11.640  0.00  0.00    +0.161 C 
ENDBRANCH   5   9
ENDBRANCH  18  10
TORSDOF 7
ENDMDL
MODEL 8
REMARK VINA RESULT:      -6.0      5.538      8.788
REMARK  Name = 45783453
REMARK  8 active torsions:
REMARK  status: ('A' for Active; 'I' for Inactive)
REMARK    1  A    between atoms: O_3  and  C_22
REMARK    2  A    between atoms: O_3  and  C_25
REMARK    3  A    between atoms: O_4  and  C_26
REMARK    4  A    between atoms: O_4  and  C_27
REMARK    5  A    between atoms: N_5  and  C_9
REMARK    6  A    between atoms: C_10  and  C_18
REMARK    7  A    between atoms: C_19  and  C_20
REMARK    8  A    between atoms: C_25  and  C_26
REMARK                            x       y       z     vdW  Elec       q    Type
REMARK                         _______ _______ _______ _____ _____    ______ ____
ROOT
ATOM      2  O   UNL     1      10.845   8.475  21.323  0.00  0.00    -0.336 OA
ATOM      6  N   UNL     1      12.699   9.652  21.758  0.00  0.00    -0.189 NA
ATOM      7  N   UNL     1      10.498   9.390  22.324  0.00  0.00    -0.054 NA
ATOM     18  C   UNL     1      12.156   8.695  21.047  0.00  0.00    +0.245 A 
ATOM     19  C   UNL     1      11.645  10.047  22.527  0.00  0.00    +0.221 A 
ENDROOT
BRANCH  19  20
ATOM      8  N   UNL     1      10.711  11.271  24.315  0.00  0.00    -0.252 NA
ATOM     20  C   UNL     1      11.769  11.104  23.489  0.00  0.00    +0.115 A 
ATOM     21  C   UNL     1      12.918  11.877  23.534  0.00  0.00    +0.077 A 
ATOM     22  C   UNL     1      12.985  12.887  24.487  0.00  0.00    +0.124 A 
ATOM     23  C   UNL     1      10.813  12.262  25.228  0.00  0.00    +0.115 A 
ATOM     24  C   UNL     1      11.916  13.091  25.354  0.00  0.00    +0.065 A 
BRANCH  22   3
ATOM      3  O   UNL     1      14.092  13.674  24.572  0.00  0.00    -0.490 OA
BRANCH   3  25
ATOM     25  C   UNL     1      14.948  13.474  25.696  0.00  0.00    +0.257 C 
BRANCH  25  26
ATOM     26  C   UNL     1      15.005  14.754  26.508  0.00  0.00    +0.200 C 
BRANCH  26   4
ATOM      4  O   UNL     1      14.527  14.492  27.821  0.00  0.00    -0.380 OA
ATOM     27  C   UNL     1      14.504  13.100  28.099  0.00  0.00    +0.194 C 
ENDBRANCH  26   4
ENDBRANCH  25  26
ENDBRANCH   3  25
ENDBRANCH  22   3
ENDBRANCH  19  20
BRANCH  18  10
ATOM      5  N   UNL     1      13.676   8.572  19.080  0.00  0.00    -0.288 NA
ATOM     10  C   UNL     1      12.779   7.820  19.980  0.00  0.00    +0.146 C 
ATOM     11  C   UNL     1      14.691   7.624  18.620  0.00  0.00    +0.085 C 
ATOM     12  C   UNL     1      13.662   6.703  20.567  0.00  0.00    +0.030 C 
ATOM     13  C   UNL     1      15.016   6.872  19.894  0.00  0.00    +0.017 C 
BRANCH   5   9
ATOM      1  O   UNL     1      12.116   9.123  15.222  0.00  0.00    -0.380 OA
ATOM      9  C   UNL     1      12.974   9.209  17.968  0.00  0.00    +0.062 C 
ATOM     14  C   UNL     1      11.789   8.356  17.504  0.00  0.00    +0.047 C 
ATOM     15  C   UNL     1      13.933   9.452  16.800  0.00  0.00    +0.047 C 
ATOM     16  C   UNL     1      11.151   8.967  16.261  0.00  0.00    +0.161 C 
ATOM     17  C   UNL     1      13.176  10.002  15.597  0.00  0.00    +0.161 C 
ENDBRANCH   5   9
ENDBRANCH  18  10
TORSDOF 7
ENDMDL
MODEL 9
REMARK VINA RESULT:      -6.0      5.507      9.185
REMARK  Name = 45783453
REMARK  8 active torsions:
REMARK  status: ('A' for Active; 'I' for Inactive)
REMARK    1  A    between atoms: O_3  and  C_22
REMARK    2  A    between atoms: O_3  and  C_25
REMARK    3  A    between atoms: O_4  and  C_26
REMARK    4  A    between atoms: O_4  and  C_27
REMARK    5  A    between atoms: N_5  and  C_9
REMARK    6  A    between atoms: C_10  and  C_18
REMARK    7  A    between atoms: C_19  and  C_20
REMARK    8  A    between atoms: C_25  and  C_26
REMARK                            x       y       z     vdW  Elec       q    Type
REMARK                         _______ _______ _______ _____ _____    ______ ____
ROOT
ATOM      2  O   UNL     1      10.973   8.198  21.800  0.00  0.00    -0.336 OA
ATOM      6  N   UNL     1      12.363   9.931  21.519  0.00  0.00    -0.189 NA
ATOM      7  N   UNL     1      10.547   9.187  22.695  0.00  0.00    -0.054 NA
ATOM     18  C   UNL     1      12.046   8.716  21.147  0.00  0.00    +0.245 A 
ATOM     19  C   UNL     1      11.417  10.177  22.470  0.00  0.00    +0.221 A 
ENDROOT
BRANCH  19  20
ATOM      8  N   UNL     1      10.620  11.428  24.305  0.00  0.00    -0.252 NA
ATOM     20  C   UNL     1      11.367  11.424  23.178  0.00  0.00    +0.115 A 
ATOM     21  C   UNL     1      12.058  12.527  22.700  0.00  0.00    +0.077 A 
ATOM     22  C   UNL     1      11.975  13.709  23.426  0.00  0.00    +0.124 A 
ATOM     23  C   UNL     1      10.564  12.596  24.983  0.00  0.00    +0.115 A 
ATOM     24  C   UNL     1      11.216  13.754  24.590  0.00  0.00    +0.065 A 
BRANCH  22   3
ATOM      3  O   UNL     1      12.634  14.820  22.999  0.00  0.00    -0.490 OA
BRANCH   3  25
ATOM     25  C   UNL     1      13.754  14.620  22.137  0.00  0.00    +0.257 C 
BRANCH  25  26
ATOM     26  C   UNL     1      13.653  15.577  20.964  0.00  0.00    +0.200 C 
BRANCH  26   4
ATOM      4  O   UNL     1      12.430  15.343  20.278  0.00  0.00    -0.380 OA
ATOM     27  C   UNL     1      12.528  14.228  19.404  0.00  0.00    +0.194 C 
ENDBRANCH  26   4
ENDBRANCH  25  26
ENDBRANCH   3  25
ENDBRANCH  22   3
ENDBRANCH  19  20
BRANCH  18  10
ATOM      5  N   UNL     1      13.600   8.574  19.209  0.00  0.00    -0.288 NA
ATOM     10  C   UNL     1      12.698   7.828  20.109  0.00  0.00    +0.146 C 
ATOM     11  C   UNL     1      14.635   7.631  18.785  0.00  0.00    +0.085 C 
ATOM     12  C   UNL     1      13.585   6.735  20.733  0.00  0.00    +0.030 C 
ATOM     13  C   UNL     1      14.948   6.908  20.079  0.00  0.00    +0.017 C 
BRANCH   5   9
ATOM      1  O   UNL     1      12.052   9.003  15.330  0.00  0.00    -0.380 OA
ATOM      9  C   UNL     1      12.909   9.179  18.073  0.00  0.00    +0.062 C 
ATOM     14  C   UNL     1      11.711   8.328  17.640  0.00  0.00    +0.047 C 
ATOM     15  C   UNL     1      13.874   9.362  16.898  0.00  0.00    +0.047 C 
ATOM     16  C   UNL     1      11.084   8.902  16.374  0.00  0.00    +0.161 C 
ATOM     17  C   UNL     1      13.126   9.878  15.674  0.00  0.00    +0.161 C 
ENDBRANCH   5   9
ENDBRANCH  18  10
TORSDOF 7
ENDMDL
MODEL 10
REMARK VINA RESULT:      -5.9     27.147     29.523
REMARK  Name = 45783453
REMARK  8 active torsions:
REMARK  status: ('A' for Active; 'I' for Inactive)
REMARK    1  A    between atoms: O_3  and  C_22
REMARK    2  A    between atoms: O_3  and  C_25
REMARK    3  A    between atoms: O_4  and  C_26
REMARK    4  A    between atoms: O_4  and  C_27
REMARK    5  A    between atoms: N_5  and  C_9
REMARK    6  A    between atoms: C_10  and  C_18
REMARK    7  A    between atoms: C_19  and  C_20
REMARK    8  A    between atoms: C_25  and  C_26
REMARK                            x       y       z     vdW  Elec       q    Type
REMARK                         _______ _______ _______ _____ _____    ______ ____
ROOT
ATOM      2  O   UNL     1      -5.474  -9.928  13.679  0.00  0.00    -0.336 OA
ATOM      6  N   UNL     1      -4.040 -11.185  14.852  0.00  0.00    -0.189 NA
ATOM      7  N   UNL     1      -5.955  -9.941  14.994  0.00  0.00    -0.054 NA
ATOM     18  C   UNL     1      -4.346 -10.684  13.682  0.00  0.00    +0.245 A 
ATOM     19  C   UNL     1      -5.056 -10.703  15.625  0.00  0.00    +0.221 A 
ENDROOT
BRANCH  19  20
ATOM      8  N   UNL     1      -4.039 -11.555  17.576  0.00  0.00    -0.252 NA
ATOM     20  C   UNL     1      -5.143 -11.001  17.026  0.00  0.00    +0.115 A 
ATOM     21  C   UNL     1      -6.304 -10.720  17.729  0.00  0.00    +0.077 A 
ATOM     22  C   UNL     1      -6.333 -11.029  19.084  0.00  0.00    +0.124 A 
ATOM     23  C   UNL     1      -4.106 -11.841  18.895  0.00  0.00    +0.115 A 
ATOM     24  C   UNL     1      -5.218 -11.601  19.687  0.00  0.00    +0.065 A 
BRANCH  22   3
ATOM      3  O   UNL     1      -7.450 -10.773  19.818  0.00  0.00    -0.490 OA
BRANCH   3  25
ATOM     25  C   UNL     1      -8.593 -11.590  19.570  0.00  0.00    +0.257 C 
BRANCH  25  26
ATOM     26  C   UNL     1      -9.821 -10.706  19.471  0.00  0.00    +0.200 C 
BRANCH  26   4
ATOM      4  O   UNL     1     -10.146 -10.514  18.100  0.00  0.00    -0.380 OA
ATOM     27  C   UNL     1      -9.911  -9.174  17.691  0.00  0.00    +0.194 C 
ENDBRANCH  26   4
ENDBRANCH  25  26
ENDBRANCH   3  25
ENDBRANCH  22   3
ENDBRANCH  19  20
BRANCH  18  10
ATOM      5  N   UNL     1      -3.806  -9.652  11.483  0.00  0.00    -0.288 NA
ATOM     10  C   UNL     1      -3.626 -10.828  12.358  0.00  0.00    +0.146 C 
ATOM     11  C   UNL     1      -2.605  -9.566  10.652  0.00  0.00    +0.085 C 
ATOM     12  C   UNL     1      -2.100 -10.962  12.522  0.00  0.00    +0.030 C 
ATOM     13  C   UNL     1      -1.509  -9.858  11.656  0.00  0.00    +0.017 C 
BRANCH   5   9
ATOM      1  O   UNL     1      -6.325  -9.356   8.137  0.00  0.00    -0.380 OA
ATOM      9  C   UNL     1      -5.026  -9.713  10.681  0.00  0.00    +0.062 C 
ATOM     14  C   UNL     1      -4.884 -10.722   9.537  0.00  0.00    +0.047 C 
ATOM     15  C   UNL     1      -5.365  -8.330  10.119  0.00  0.00    +0.047 C 
ATOM     16  C   UNL     1      -6.111 -10.676   8.634  0.00  0.00    +0.161 C 
ATOM     17  C   UNL     1      -6.566  -8.417   9.185  0.00  0.00    +0.161 C 
ENDBRANCH   5   9
ENDBRANCH  18  10
TORSDOF 7
ENDMDL
