REMARK  Name = 75537080
REMARK  4 active torsions:
REMARK  status: ('A' for Active; 'I' for Inactive)
REMARK    1  A    between atoms: N_4  and  C_12
REMARK    2  A    between atoms: N_5  and  C_13
REMARK    3  A    between atoms: C_12  and  C_14
REMARK    4  A    between atoms: C_13  and  C_15
REMARK                            x       y       z     vdW  Elec       q    Type
REMARK                         _______ _______ _______ _____ _____    ______ ____
ROOT
ATOM      2  O   UNL     1       1.713   2.453   1.420  0.00  0.00    -0.252 OA
ATOM      3  N   UNL     1      -0.033   1.463   0.200  0.00  0.00    -0.278 N 
ATOM      4  N   UNL     1      -2.311  -0.102  -0.324  0.00  0.00    -0.295 NA
ATOM      5  N   UNL     1       2.023   1.475  -0.704  0.00  0.00    -0.279 N 
ATOM      6  C   UNL     1      -0.216   0.912  -1.126  0.00  0.00    +0.109 C 
ATOM      7  C   UNL     1      -1.058  -0.363  -1.061  0.00  0.00    +0.109 C 
ATOM      8  C   UNL     1       1.210   0.714  -1.636  0.00  0.00    +0.133 C 
ATOM      9  C   UNL     1      -1.183   1.623   1.067  0.00  0.00    +0.125 C 
ATOM     10  C   UNL     1      -2.027   0.346   1.055  0.00  0.00    +0.104 C 
ATOM     11  C   UNL     1       1.286   1.875   0.430  0.00  0.00    +0.305 C 
ENDROOT
BRANCH   4  12
ATOM     12  C   UNL     1      -3.151  -1.299  -0.308  0.00  0.00    +0.119 C 
BRANCH  12  14
ATOM     14  C   UNL     1      -4.601  -0.963  -0.084  0.00  0.00    -0.033 A 
ATOM     16  C   UNL     1      -5.434  -0.710  -1.174  0.00  0.00    +0.005 A 
ATOM     17  C   UNL     1      -5.112  -0.905   1.212  0.00  0.00    +0.005 A 
ATOM     20  C   UNL     1      -6.778  -0.399  -0.967  0.00  0.00    +0.000 A 
ATOM     21  C   UNL     1      -6.456  -0.594   1.419  0.00  0.00    +0.000 A 
ATOM     24  C   UNL     1      -7.289  -0.341   0.329  0.00  0.00    +0.000 A 
ENDBRANCH  12  14
ENDBRANCH   4  12
BRANCH   5  13
ATOM     13  C   UNL     1       3.447   1.644  -0.889  0.00  0.00    +0.144 C 
BRANCH  13  15
ATOM      1  F   UNL     1       6.344  -2.841   0.912  0.00  0.00    -0.205 F 
ATOM     15  C   UNL     1       4.221   0.446  -0.408  0.00  0.00    -0.030 A 
ATOM     18  C   UNL     1       4.664   0.386   0.914  0.00  0.00    +0.008 A 
ATOM     19  C   UNL     1       4.495  -0.605  -1.283  0.00  0.00    +0.008 A 
ATOM     22  C   UNL     1       5.381  -0.724   1.359  0.00  0.00    +0.038 A 
ATOM     23  C   UNL     1       5.212  -1.715  -0.837  0.00  0.00    +0.038 A 
ATOM     25  C   UNL     1       5.655  -1.775   0.484  0.00  0.00    +0.123 A 
ENDBRANCH  13  15
ENDBRANCH   5  13
TORSDOF 4
