MODEL 1
REMARK VINA RESULT:      -8.5      0.000      0.000
REMARK  Name = 26761934
REMARK  6 active torsions:
REMARK  status: ('A' for Active; 'I' for Inactive)
REMARK    1  A    between atoms: O_4  and  C_29
REMARK    2  A    between atoms: N_6  and  C_16
REMARK    3  A    between atoms: C_11  and  C_17
REMARK    4  A    between atoms: C_16  and  C_18
REMARK    5  A    between atoms: C_22  and  C_26
REMARK    6  A    between atoms: C_25  and  C_29
REMARK                            x       y       z     vdW  Elec       q    Type
REMARK                         _______ _______ _______ _____ _____    ______ ____
ROOT
ATOM      6  N   UNL     1      12.844   8.517  19.459  0.00  0.00    -0.281 NA
ATOM      7  N   UNL     1      10.721   9.113  16.426  0.00  0.00    -0.347 N 
ATOM      8  N   UNL     1      12.662   9.121  15.318  0.00  0.00    -0.240 NA
ATOM     11  C   UNL     1      13.944   7.848  18.682  0.00  0.00    +0.152 C 
ATOM     12  C   UNL     1      14.159   8.494  17.268  0.00  0.00    +0.086 C 
ATOM     13  C   UNL     1      11.530   8.440  18.758  0.00  0.00    +0.140 C 
ATOM     14  C   UNL     1      11.683   8.781  17.329  0.00  0.00    +0.053 A 
ATOM     15  C   UNL     1      12.860   8.785  16.627  0.00  0.00    +0.065 A 
ATOM     19  C   UNL     1      11.361   9.309  15.227  0.00  0.00    +0.197 A 
ATOM     33  H   UNL     1       9.727   9.195  16.597  0.00  0.00    +0.167 HD
ENDROOT
BRANCH  11  17
ATOM      3  O   UNL     1      15.673   9.003  19.984  0.00  0.00    -0.336 OA
ATOM      9  N   UNL     1      16.150   6.861  19.540  0.00  0.00    -0.190 NA
ATOM     10  N   UNL     1      16.921   8.752  20.570  0.00  0.00    -0.056 NA
ATOM     17  C   UNL     1      15.290   7.838  19.400  0.00  0.00    +0.245 A 
ATOM     22  C   UNL     1      17.133   7.469  20.264  0.00  0.00    +0.202 A 
BRANCH  22  26
ATOM      1 CL   UNL     1      21.004   6.965  23.622  0.00  0.00    -0.081 Cl
ATOM      2  F   UNL     1      21.718   4.725  21.817  0.00  0.00    -0.204 F 
ATOM     26  C   UNL     1      18.316   6.764  20.668  0.00  0.00    +0.024 A 
ATOM     27  C   UNL     1      19.006   7.159  21.813  0.00  0.00    +0.034 A 
ATOM     28  C   UNL     1      18.775   5.684  19.915  0.00  0.00    +0.014 A 
ATOM     30  C   UNL     1      20.156   6.474  22.206  0.00  0.00    +0.077 A 
ATOM     31  C   UNL     1      19.925   4.998  20.307  0.00  0.00    +0.040 A 
ATOM     32  C   UNL     1      20.615   5.394  21.453  0.00  0.00    +0.142 A 
ENDBRANCH  22  26
ENDBRANCH  11  17
BRANCH   6  16
ATOM     16  C   UNL     1      12.680   7.944  20.802  0.00  0.00    +0.120 C 
BRANCH  16  18
ATOM     18  C   UNL     1      12.228   8.976  21.801  0.00  0.00    -0.033 A 
ATOM     20  C   UNL     1      10.975   8.861  22.404  0.00  0.00    +0.006 A 
ATOM     21  C   UNL     1      13.062  10.047  22.122  0.00  0.00    +0.006 A 
ATOM     23  C   UNL     1      10.557   9.818  23.328  0.00  0.00    +0.015 A 
ATOM     24  C   UNL     1      12.643  11.003  23.047  0.00  0.00    +0.015 A 
ATOM     25  C   UNL     1      11.390  10.889  23.651  0.00  0.00    +0.059 A 
BRANCH  25  29
ATOM      5  O   UNL     1      11.500  12.118  25.700  0.00  0.00    -0.245 OA
ATOM     29  C   UNL     1      10.955  11.885  24.616  0.00  0.00    +0.337 C 
BRANCH  29   4
ATOM      4  O   UNL     1       9.851  12.564  24.202  0.00  0.00    -0.477 OA
ATOM     34  H   UNL     1       9.780  12.586  23.224  0.00  0.00    +0.295 HD
ENDBRANCH  29   4
ENDBRANCH  25  29
ENDBRANCH  16  18
ENDBRANCH   6  16
TORSDOF 6
ENDMDL
MODEL 2
REMARK VINA RESULT:      -8.3      4.683      7.797
REMARK  Name = 26761934
REMARK  6 active torsions:
REMARK  status: ('A' for Active; 'I' for Inactive)
REMARK    1  A    between atoms: O_4  and  C_29
REMARK    2  A    between atoms: N_6  and  C_16
REMARK    3  A    between atoms: C_11  and  C_17
REMARK    4  A    between atoms: C_16  and  C_18
REMARK    5  A    between atoms: C_22  and  C_26
REMARK    6  A    between atoms: C_25  and  C_29
REMARK                            x       y       z     vdW  Elec       q    Type
REMARK                         _______ _______ _______ _____ _____    ______ ____
ROOT
ATOM      6  N   UNL     1      14.372   7.478  19.237  0.00  0.00    -0.281 NA
ATOM      7  N   UNL     1      11.880   6.678  21.922  0.00  0.00    -0.347 N 
ATOM      8  N   UNL     1      10.564   8.136  20.855  0.00  0.00    -0.240 NA
ATOM     11  C   UNL     1      13.319   7.839  18.226  0.00  0.00    +0.152 C 
ATOM     12  C   UNL     1      12.089   8.569  18.874  0.00  0.00    +0.086 C 
ATOM     13  C   UNL     1      13.850   6.565  20.295  0.00  0.00    +0.140 C 
ATOM     14  C   UNL     1      12.541   7.037  20.788  0.00  0.00    +0.053 A 
ATOM     15  C   UNL     1      11.714   7.923  20.149  0.00  0.00    +0.065 A 
ATOM     19  C   UNL     1      10.692   7.367  21.917  0.00  0.00    +0.197 A 
ATOM     33  H   UNL     1      12.194   6.027  22.630  0.00  0.00    +0.167 HD
ENDROOT
BRANCH  11  17
ATOM      3  O   UNL     1      13.752   8.181  15.835  0.00  0.00    -0.336 OA
ATOM      9  N   UNL     1      14.345   9.914  17.124  0.00  0.00    -0.190 NA
ATOM     10  N   UNL     1      14.274   9.150  14.969  0.00  0.00    -0.056 NA
ATOM     17  C   UNL     1      13.831   8.711  17.084  0.00  0.00    +0.245 A 
ATOM     22  C   UNL     1      14.601  10.141  15.804  0.00  0.00    +0.202 A 
BRANCH  22  26
ATOM      1 CL   UNL     1      18.538  12.545  13.515  0.00  0.00    -0.081 Cl
ATOM      2  F   UNL     1      16.848  14.920  14.049  0.00  0.00    -0.204 F 
ATOM     26  C   UNL     1      15.185  11.371  15.350  0.00  0.00    +0.024 A 
ATOM     27  C   UNL     1      16.432  11.364  14.727  0.00  0.00    +0.034 A 
ATOM     28  C   UNL     1      14.503  12.574  15.533  0.00  0.00    +0.014 A 
ATOM     30  C   UNL     1      16.998  12.559  14.285  0.00  0.00    +0.077 A 
ATOM     31  C   UNL     1      15.069  13.771  15.092  0.00  0.00    +0.040 A 
ATOM     32  C   UNL     1      16.317  13.763  14.468  0.00  0.00    +0.142 A 
ENDBRANCH  22  26
ENDBRANCH  11  17
BRANCH   6  16
ATOM     16  C   UNL     1      15.544   6.842  18.620  0.00  0.00    +0.120 C 
BRANCH  16  18
ATOM     18  C   UNL     1      16.723   6.812  19.555  0.00  0.00    -0.033 A 
ATOM     20  C   UNL     1      16.829   7.759  20.574  0.00  0.00    +0.006 A 
ATOM     21  C   UNL     1      17.710   5.839  19.402  0.00  0.00    +0.006 A 
ATOM     23  C   UNL     1      17.922   7.732  21.440  0.00  0.00    +0.015 A 
ATOM     24  C   UNL     1      18.803   5.812  20.269  0.00  0.00    +0.015 A 
ATOM     25  C   UNL     1      18.909   6.758  21.288  0.00  0.00    +0.059 A 
BRANCH  25  29
ATOM      5  O   UNL     1      21.225   6.915  21.866  0.00  0.00    -0.245 OA
ATOM     29  C   UNL     1      20.048   6.729  22.192  0.00  0.00    +0.337 C 
BRANCH  29   4
ATOM      4  O   UNL     1      19.686   6.467  23.478  0.00  0.00    -0.477 OA
ATOM     34  H   UNL     1      18.727   6.280  23.557  0.00  0.00    +0.295 HD
ENDBRANCH  29   4
ENDBRANCH  25  29
ENDBRANCH  16  18
ENDBRANCH   6  16
TORSDOF 6
ENDMDL
MODEL 3
REMARK VINA RESULT:      -8.0      4.154      7.888
REMARK  Name = 26761934
REMARK  6 active torsions:
REMARK  status: ('A' for Active; 'I' for Inactive)
REMARK    1  A    between atoms: O_4  and  C_29
REMARK    2  A    between atoms: N_6  and  C_16
REMARK    3  A    between atoms: C_11  and  C_17
REMARK    4  A    between atoms: C_16  and  C_18
REMARK    5  A    between atoms: C_22  and  C_26
REMARK    6  A    between atoms: C_25  and  C_29
REMARK                            x       y       z     vdW  Elec       q    Type
REMARK                         _______ _______ _______ _____ _____    ______ ____
ROOT
ATOM      6  N   UNL     1      16.240   7.153  20.192  0.00  0.00    -0.281 NA
ATOM      7  N   UNL     1      19.710   5.741  20.009  0.00  0.00    -0.347 N 
ATOM      8  N   UNL     1      20.297   7.573  21.148  0.00  0.00    -0.240 NA
ATOM     11  C   UNL     1      16.506   7.909  21.464  0.00  0.00    +0.152 C 
ATOM     12  C   UNL     1      17.963   8.492  21.523  0.00  0.00    +0.086 C 
ATOM     13  C   UNL     1      17.165   5.994  20.020  0.00  0.00    +0.140 C 
ATOM     14  C   UNL     1      18.555   6.391  20.319  0.00  0.00    +0.053 A 
ATOM     15  C   UNL     1      18.939   7.503  21.022  0.00  0.00    +0.065 A 
ATOM     19  C   UNL     1      20.734   6.494  20.530  0.00  0.00    +0.197 A 
ATOM     33  H   UNL     1      19.803   4.873  19.499  0.00  0.00    +0.167 HD
ENDROOT
BRANCH  11  17
ATOM      3  O   UNL     1      15.485  10.028  20.767  0.00  0.00    -0.336 OA
ATOM      9  N   UNL     1      14.726   9.254  22.726  0.00  0.00    -0.190 NA
ATOM     10  N   UNL     1      14.537  10.959  21.212  0.00  0.00    -0.056 NA
ATOM     17  C   UNL     1      15.534   9.057  21.716  0.00  0.00    +0.245 A 
ATOM     22  C   UNL     1      14.135  10.432  22.373  0.00  0.00    +0.202 A 
BRANCH  22  26
ATOM      1 CL   UNL     1      13.064  13.482  26.381  0.00  0.00    -0.081 Cl
ATOM      2  F   UNL     1      10.282  12.849  25.577  0.00  0.00    -0.204 F 
ATOM     26  C   UNL     1      13.145  11.057  23.202  0.00  0.00    +0.024 A 
ATOM     27  C   UNL     1      13.537  11.870  24.265  0.00  0.00    +0.034 A 
ATOM     28  C   UNL     1      11.790  10.851  22.944  0.00  0.00    +0.014 A 
ATOM     30  C   UNL     1      12.574  12.477  25.070  0.00  0.00    +0.077 A 
ATOM     31  C   UNL     1      10.826  11.459  23.749  0.00  0.00    +0.040 A 
ATOM     32  C   UNL     1      11.219  12.272  24.813  0.00  0.00    +0.142 A 
ENDBRANCH  22  26
ENDBRANCH  11  17
BRANCH   6  16
ATOM     16  C   UNL     1      14.861   6.653  20.117  0.00  0.00    +0.120 C 
BRANCH  16  18
ATOM     18  C   UNL     1      14.081   7.321  19.016  0.00  0.00    -0.033 A 
ATOM     20  C   UNL     1      12.750   7.684  19.225  0.00  0.00    +0.006 A 
ATOM     21  C   UNL     1      14.689   7.577  17.787  0.00  0.00    +0.006 A 
ATOM     23  C   UNL     1      12.028   8.302  18.205  0.00  0.00    +0.015 A 
ATOM     24  C   UNL     1      13.967   8.196  16.768  0.00  0.00    +0.015 A 
ATOM     25  C   UNL     1      12.636   8.559  16.976  0.00  0.00    +0.059 A 
BRANCH  25  29
ATOM      5  O   UNL     1      10.700   8.985  15.636  0.00  0.00    -0.245 OA
ATOM     29  C   UNL     1      11.884   9.206  15.913  0.00  0.00    +0.337 C 
BRANCH  29   4
ATOM      4  O   UNL     1      12.630  10.111  15.222  0.00  0.00    -0.477 OA
ATOM     34  H   UNL     1      12.725   9.862  14.278  0.00  0.00    +0.295 HD
ENDBRANCH  29   4
ENDBRANCH  25  29
ENDBRANCH  16  18
ENDBRANCH   6  16
TORSDOF 6
ENDMDL
MODEL 4
REMARK VINA RESULT:      -7.5      4.390      7.947
REMARK  Name = 26761934
REMARK  6 active torsions:
REMARK  status: ('A' for Active; 'I' for Inactive)
REMARK    1  A    between atoms: O_4  and  C_29
REMARK    2  A    between atoms: N_6  and  C_16
REMARK    3  A    between atoms: C_11  and  C_17
REMARK    4  A    between atoms: C_16  and  C_18
REMARK    5  A    between atoms: C_22  and  C_26
REMARK    6  A    between atoms: C_25  and  C_29
REMARK                            x       y       z     vdW  Elec       q    Type
REMARK                         _______ _______ _______ _____ _____    ______ ____
ROOT
ATOM      6  N   UNL     1      16.813   7.137  20.356  0.00  0.00    -0.281 NA
ATOM      7  N   UNL     1      20.509   6.501  20.373  0.00  0.00    -0.347 N 
ATOM      8  N   UNL     1      20.657   8.565  21.216  0.00  0.00    -0.240 NA
ATOM     11  C   UNL     1      16.875   8.115  21.497  0.00  0.00    +0.152 C 
ATOM     12  C   UNL     1      18.170   9.002  21.458  0.00  0.00    +0.086 C 
ATOM     13  C   UNL     1      17.970   6.194  20.359  0.00  0.00    +0.140 C 
ATOM     14  C   UNL     1      19.234   6.923  20.587  0.00  0.00    +0.053 A 
ATOM     15  C   UNL     1      19.350   8.185  21.109  0.00  0.00    +0.065 A 
ATOM     19  C   UNL     1      21.332   7.527  20.768  0.00  0.00    +0.197 A 
ATOM     33  H   UNL     1      20.801   5.606  20.001  0.00  0.00    +0.167 HD
ENDROOT
BRANCH  11  17
ATOM      3  O   UNL     1      14.756   8.777  22.541  0.00  0.00    -0.336 OA
ATOM      9  N   UNL     1      15.379  10.091  20.839  0.00  0.00    -0.190 NA
ATOM     10  N   UNL     1      13.759   9.754  22.418  0.00  0.00    -0.056 NA
ATOM     17  C   UNL     1      15.671   9.050  21.575  0.00  0.00    +0.245 A 
ATOM     22  C   UNL     1      14.198  10.490  21.393  0.00  0.00    +0.202 A 
BRANCH  22  26
ATOM      1 CL   UNL     1      13.583  14.017  17.692  0.00  0.00    -0.081 Cl
ATOM      2  F   UNL     1      11.408  14.914  19.494  0.00  0.00    -0.204 F 
ATOM     26  C   UNL     1      13.482  11.631  20.899  0.00  0.00    +0.024 A 
ATOM     27  C   UNL     1      13.838  12.205  19.679  0.00  0.00    +0.034 A 
ATOM     28  C   UNL     1      12.429  12.166  21.641  0.00  0.00    +0.014 A 
ATOM     30  C   UNL     1      13.141  13.313  19.200  0.00  0.00    +0.077 A 
ATOM     31  C   UNL     1      11.731  13.275  21.162  0.00  0.00    +0.040 A 
ATOM     32  C   UNL     1      12.087  13.849  19.941  0.00  0.00    +0.142 A 
ENDBRANCH  22  26
ENDBRANCH  11  17
BRANCH   6  16
ATOM     16  C   UNL     1      15.577   6.344  20.366  0.00  0.00    +0.120 C 
BRANCH  16  18
ATOM     18  C   UNL     1      14.510   6.959  19.499  0.00  0.00    -0.033 A 
ATOM     20  C   UNL     1      14.850   7.529  18.272  0.00  0.00    +0.006 A 
ATOM     21  C   UNL     1      13.182   6.961  19.925  0.00  0.00    +0.006 A 
ATOM     23  C   UNL     1      13.862   8.099  17.471  0.00  0.00    +0.015 A 
ATOM     24  C   UNL     1      12.193   7.530  19.122  0.00  0.00    +0.015 A 
ATOM     25  C   UNL     1      12.533   8.100  17.895  0.00  0.00    +0.059 A 
BRANCH  25  29
ATOM      5  O   UNL     1      10.294   8.442  17.125  0.00  0.00    -0.245 OA
ATOM     29  C   UNL     1      11.502   8.693  17.058  0.00  0.00    +0.337 C 
BRANCH  29   4
ATOM      4  O   UNL     1      12.007   9.582  16.160  0.00  0.00    -0.477 OA
ATOM     34  H   UNL     1      12.016   9.217  15.250  0.00  0.00    +0.295 HD
ENDBRANCH  29   4
ENDBRANCH  25  29
ENDBRANCH  16  18
ENDBRANCH   6  16
TORSDOF 6
ENDMDL
MODEL 5
REMARK VINA RESULT:      -7.4      3.300      6.044
REMARK  Name = 26761934
REMARK  6 active torsions:
REMARK  status: ('A' for Active; 'I' for Inactive)
REMARK    1  A    between atoms: O_4  and  C_29
REMARK    2  A    between atoms: N_6  and  C_16
REMARK    3  A    between atoms: C_11  and  C_17
REMARK    4  A    between atoms: C_16  and  C_18
REMARK    5  A    between atoms: C_22  and  C_26
REMARK    6  A    between atoms: C_25  and  C_29
REMARK                            x       y       z     vdW  Elec       q    Type
REMARK                         _______ _______ _______ _____ _____    ______ ____
ROOT
ATOM      6  N   UNL     1      13.683  12.095  21.601  0.00  0.00    -0.281 NA
ATOM      7  N   UNL     1      10.895  13.028  23.929  0.00  0.00    -0.347 N 
ATOM      8  N   UNL     1      11.933  11.687  25.386  0.00  0.00    -0.240 NA
ATOM     11  C   UNL     1      14.659  11.829  22.714  0.00  0.00    +0.152 C 
ATOM     12  C   UNL     1      13.975  11.179  23.969  0.00  0.00    +0.086 C 
ATOM     13  C   UNL     1      12.593  13.025  22.016  0.00  0.00    +0.140 C 
ATOM     14  C   UNL     1      12.058  12.641  23.338  0.00  0.00    +0.053 A 
ATOM     15  C   UNL     1      12.678  11.828  24.250  0.00  0.00    +0.065 A 
ATOM     19  C   UNL     1      10.865  12.426  25.164  0.00  0.00    +0.197 A 
ATOM     33  H   UNL     1      10.190  13.641  23.543  0.00  0.00    +0.167 HD
ENDROOT
BRANCH  11  17
ATOM      3  O   UNL     1      17.073  11.472  22.464  0.00  0.00    -0.336 OA
ATOM      9  N   UNL     1      15.825   9.726  21.825  0.00  0.00    -0.190 NA
ATOM     10  N   UNL     1      17.972  10.488  22.032  0.00  0.00    -0.056 NA
ATOM     17  C   UNL     1      15.832  10.942  22.309  0.00  0.00    +0.245 A 
ATOM     22  C   UNL     1      17.159   9.490  21.671  0.00  0.00    +0.202 A 
BRANCH  22  26
ATOM      1 CL   UNL     1      20.929   5.986  21.520  0.00  0.00    -0.081 Cl
ATOM      2  F   UNL     1      19.045   4.657  19.658  0.00  0.00    -0.204 F 
ATOM     26  C   UNL     1      17.650   8.245  21.154  0.00  0.00    +0.024 A 
ATOM     27  C   UNL     1      18.904   7.774  21.541  0.00  0.00    +0.034 A 
ATOM     28  C   UNL     1      16.871   7.505  20.265  0.00  0.00    +0.014 A 
ATOM     30  C   UNL     1      19.380   6.563  21.039  0.00  0.00    +0.077 A 
ATOM     31  C   UNL     1      17.346   6.293  19.762  0.00  0.00    +0.040 A 
ATOM     32  C   UNL     1      18.601   5.823  20.149  0.00  0.00    +0.142 A 
ENDBRANCH  22  26
ENDBRANCH  11  17
BRANCH   6  16
ATOM     16  C   UNL     1      14.334  12.656  20.410  0.00  0.00    +0.120 C 
BRANCH  16  18
ATOM     18  C   UNL     1      14.007  11.868  19.169  0.00  0.00    -0.033 A 
ATOM     20  C   UNL     1      13.382  10.625  19.277  0.00  0.00    +0.006 A 
ATOM     21  C   UNL     1      14.329  12.381  17.913  0.00  0.00    +0.006 A 
ATOM     23  C   UNL     1      13.079   9.896  18.127  0.00  0.00    +0.015 A 
ATOM     24  C   UNL     1      14.026  11.651  16.763  0.00  0.00    +0.015 A 
ATOM     25  C   UNL     1      13.401  10.408  16.870  0.00  0.00    +0.059 A 
BRANCH  25  29
ATOM      5  O   UNL     1      13.526   8.528  15.396  0.00  0.00    -0.245 OA
ATOM     29  C   UNL     1      13.084   9.649  15.672  0.00  0.00    +0.337 C 
BRANCH  29   4
ATOM      4  O   UNL     1      12.224  10.308  14.848  0.00  0.00    -0.477 OA
ATOM     34  H   UNL     1      12.697  10.819  14.158  0.00  0.00    +0.295 HD
ENDBRANCH  29   4
ENDBRANCH  25  29
ENDBRANCH  16  18
ENDBRANCH   6  16
TORSDOF 6
ENDMDL
MODEL 6
REMARK VINA RESULT:      -7.3     15.346     20.237
REMARK  Name = 26761934
REMARK  6 active torsions:
REMARK  status: ('A' for Active; 'I' for Inactive)
REMARK    1  A    between atoms: O_4  and  C_29
REMARK    2  A    between atoms: N_6  and  C_16
REMARK    3  A    between atoms: C_11  and  C_17
REMARK    4  A    between atoms: C_16  and  C_18
REMARK    5  A    between atoms: C_22  and  C_26
REMARK    6  A    between atoms: C_25  and  C_29
REMARK                            x       y       z     vdW  Elec       q    Type
REMARK                         _______ _______ _______ _____ _____    ______ ____
ROOT
ATOM      6  N   UNL     1       9.916   5.680   4.745  0.00  0.00    -0.281 NA
ATOM      7  N   UNL     1      10.149   3.945   8.061  0.00  0.00    -0.347 N 
ATOM      8  N   UNL     1       9.332   5.854   8.889  0.00  0.00    -0.240 NA
ATOM     11  C   UNL     1       8.789   6.576   5.179  0.00  0.00    +0.152 C 
ATOM     12  C   UNL     1       8.922   7.026   6.677  0.00  0.00    +0.086 C 
ATOM     13  C   UNL     1       9.987   4.429   5.555  0.00  0.00    +0.140 C 
ATOM     14  C   UNL     1       9.851   4.734   6.993  0.00  0.00    +0.053 A 
ATOM     15  C   UNL     1       9.346   5.892   7.524  0.00  0.00    +0.065 A 
ATOM     19  C   UNL     1       9.818   4.665   9.183  0.00  0.00    +0.197 A 
ATOM     33  H   UNL     1      10.533   3.010   8.039  0.00  0.00    +0.167 HD
ENDROOT
BRANCH  11  17
ATOM      3  O   UNL     1       9.669   8.713   4.355  0.00  0.00    -0.336 OA
ATOM      9  N   UNL     1       7.639   8.198   3.560  0.00  0.00    -0.190 NA
ATOM     10  N   UNL     1       9.301   9.769   3.509  0.00  0.00    -0.056 NA
ATOM     17  C   UNL     1       8.634   7.832   4.327  0.00  0.00    +0.245 A 
ATOM     22  C   UNL     1       8.093   9.391   3.080  0.00  0.00    +0.202 A 
BRANCH  22  26
ATOM      1 CL   UNL     1       4.103   9.696  -0.160  0.00  0.00    -0.081 Cl
ATOM      2  F   UNL     1       5.088  12.477  -0.443  0.00  0.00    -0.204 F 
ATOM     26  C   UNL     1       7.316  10.183   2.171  0.00  0.00    +0.024 A 
ATOM     27  C   UNL     1       6.216   9.623   1.522  0.00  0.00    +0.034 A 
ATOM     28  C   UNL     1       7.660  11.514   1.936  0.00  0.00    +0.014 A 
ATOM     30  C   UNL     1       5.461  10.392   0.638  0.00  0.00    +0.077 A 
ATOM     31  C   UNL     1       6.904  12.285   1.053  0.00  0.00    +0.040 A 
ATOM     32  C   UNL     1       5.804  11.724   0.404  0.00  0.00    +0.142 A 
ENDBRANCH  22  26
ENDBRANCH  11  17
BRANCH   6  16
ATOM     16  C   UNL     1       9.816   5.303   3.328  0.00  0.00    +0.120 C 
BRANCH  16  18
ATOM     18  C   UNL     1      11.149   4.890   2.763  0.00  0.00    -0.033 A 
ATOM     20  C   UNL     1      12.205   5.801   2.731  0.00  0.00    +0.006 A 
ATOM     21  C   UNL     1      11.327   3.597   2.270  0.00  0.00    +0.006 A 
ATOM     23  C   UNL     1      13.440   5.418   2.206  0.00  0.00    +0.015 A 
ATOM     24  C   UNL     1      12.561   3.215   1.747  0.00  0.00    +0.015 A 
ATOM     25  C   UNL     1      13.618   4.125   1.715  0.00  0.00    +0.059 A 
BRANCH  25  29
ATOM      5  O   UNL     1      15.272   3.892   0.001  0.00  0.00    -0.245 OA
ATOM     29  C   UNL     1      14.906   3.725   1.170  0.00  0.00    +0.337 C 
BRANCH  29   4
ATOM      4  O   UNL     1      15.701   3.126   2.097  0.00  0.00    -0.477 OA
ATOM     34  H   UNL     1      15.515   2.166   2.174  0.00  0.00    +0.295 HD
ENDBRANCH  29   4
ENDBRANCH  25  29
ENDBRANCH  16  18
ENDBRANCH   6  16
TORSDOF 6
ENDMDL
MODEL 7
REMARK VINA RESULT:      -7.2     28.399     30.455
REMARK  Name = 26761934
REMARK  6 active torsions:
REMARK  status: ('A' for Active; 'I' for Inactive)
REMARK    1  A    between atoms: O_4  and  C_29
REMARK    2  A    between atoms: N_6  and  C_16
REMARK    3  A    between atoms: C_11  and  C_17
REMARK    4  A    between atoms: C_16  and  C_18
REMARK    5  A    between atoms: C_22  and  C_26
REMARK    6  A    between atoms: C_25  and  C_29
REMARK                            x       y       z     vdW  Elec       q    Type
REMARK                         _______ _______ _______ _____ _____    ______ ____
ROOT
ATOM      6  N   UNL     1      -5.882 -10.824  15.818  0.00  0.00    -0.281 NA
ATOM      7  N   UNL     1      -2.485 -10.295  14.321  0.00  0.00    -0.347 N 
ATOM      8  N   UNL     1      -1.733 -10.710  16.384  0.00  0.00    -0.240 NA
ATOM     11  C   UNL     1      -5.375 -11.739  16.899  0.00  0.00    +0.152 C 
ATOM     12  C   UNL     1      -3.963 -11.310  17.435  0.00  0.00    +0.086 C 
ATOM     13  C   UNL     1      -4.975 -10.791  14.635  0.00  0.00    +0.140 C 
ATOM     14  C   UNL     1      -3.568 -10.653  15.062  0.00  0.00    +0.053 A 
ATOM     15  C   UNL     1      -3.082 -10.909  16.318  0.00  0.00    +0.065 A 
ATOM     19  C   UNL     1      -1.401 -10.345  15.163  0.00  0.00    +0.197 A 
ATOM     33  H   UNL     1      -2.473 -10.046  13.340  0.00  0.00    +0.167 HD
ENDROOT
BRANCH  11  17
ATOM      3  O   UNL     1      -6.023 -11.081  19.171  0.00  0.00    -0.336 OA
ATOM      9  N   UNL     1      -7.369 -12.616  18.250  0.00  0.00    -0.190 NA
ATOM     10  N   UNL     1      -7.006 -11.363  20.129  0.00  0.00    -0.056 NA
ATOM     17  C   UNL     1      -6.312 -11.861  18.096  0.00  0.00    +0.245 A 
ATOM     22  C   UNL     1      -7.761 -12.277  19.511  0.00  0.00    +0.202 A 
BRANCH  22  26
ATOM      1 CL   UNL     1     -12.746 -11.907  20.748  0.00  0.00    -0.081 Cl
ATOM      2  F   UNL     1     -12.224 -14.587  21.901  0.00  0.00    -0.204 F 
ATOM     26  C   UNL     1      -8.914 -12.869  20.127  0.00  0.00    +0.024 A 
ATOM     27  C   UNL     1     -10.128 -12.183  20.139  0.00  0.00    +0.034 A 
ATOM     28  C   UNL     1      -8.821 -14.131  20.712  0.00  0.00    +0.014 A 
ATOM     30  C   UNL     1     -11.249 -12.758  20.737  0.00  0.00    +0.077 A 
ATOM     31  C   UNL     1      -9.942 -14.708  21.310  0.00  0.00    +0.040 A 
ATOM     32  C   UNL     1     -11.156 -14.021  21.322  0.00  0.00    +0.142 A 
ENDBRANCH  22  26
ENDBRANCH  11  17
BRANCH   6  16
ATOM     16  C   UNL     1      -7.225 -11.198  15.355  0.00  0.00    +0.120 C 
BRANCH  16  18
ATOM     18  C   UNL     1      -8.208 -10.069  15.514  0.00  0.00    -0.033 A 
ATOM     20  C   UNL     1      -9.086  -9.757  14.476  0.00  0.00    +0.006 A 
ATOM     21  C   UNL     1      -8.239  -9.333  16.698  0.00  0.00    +0.006 A 
ATOM     23  C   UNL     1      -9.996  -8.710  14.623  0.00  0.00    +0.015 A 
ATOM     24  C   UNL     1      -9.149  -8.287  16.846  0.00  0.00    +0.015 A 
ATOM     25  C   UNL     1     -10.028  -7.975  15.808  0.00  0.00    +0.059 A 
BRANCH  25  29
ATOM      5  O   UNL     1     -12.155  -7.005  16.317  0.00  0.00    -0.245 OA
ATOM     29  C   UNL     1     -10.977  -6.885  15.963  0.00  0.00    +0.337 C 
BRANCH  29   4
ATOM      4  O   UNL     1     -10.432  -5.673  15.671  0.00  0.00    -0.477 OA
ATOM     34  H   UNL     1     -10.807  -5.291  14.850  0.00  0.00    +0.295 HD
ENDBRANCH  29   4
ENDBRANCH  25  29
ENDBRANCH  16  18
ENDBRANCH   6  16
TORSDOF 6
ENDMDL
MODEL 8
REMARK VINA RESULT:      -7.2     14.967     18.708
REMARK  Name = 26761934
REMARK  6 active torsions:
REMARK  status: ('A' for Active; 'I' for Inactive)
REMARK    1  A    between atoms: O_4  and  C_29
REMARK    2  A    between atoms: N_6  and  C_16
REMARK    3  A    between atoms: C_11  and  C_17
REMARK    4  A    between atoms: C_16  and  C_18
REMARK    5  A    between atoms: C_22  and  C_26
REMARK    6  A    between atoms: C_25  and  C_29
REMARK                            x       y       z     vdW  Elec       q    Type
REMARK                         _______ _______ _______ _____ _____    ______ ____
ROOT
ATOM      6  N   UNL     1       9.646   7.254   6.279  0.00  0.00    -0.281 NA
ATOM      7  N   UNL     1       8.711   5.856   9.631  0.00  0.00    -0.347 N 
ATOM      8  N   UNL     1       9.741   4.004   8.921  0.00  0.00    -0.240 NA
ATOM     11  C   UNL     1      10.850   6.365   6.132  0.00  0.00    +0.152 C 
ATOM     12  C   UNL     1      10.615   4.932   6.728  0.00  0.00    +0.086 C 
ATOM     13  C   UNL     1       9.260   7.449   7.707  0.00  0.00    +0.140 C 
ATOM     14  C   UNL     1       9.270   6.161   8.429  0.00  0.00    +0.053 A 
ATOM     15  C   UNL     1       9.900   5.016   8.018  0.00  0.00    +0.065 A 
ATOM     19  C   UNL     1       9.023   4.543   9.885  0.00  0.00    +0.197 A 
ATOM     33  H   UNL     1       8.175   6.472  10.228  0.00  0.00    +0.167 HD
ENDROOT
BRANCH  11  17
ATOM      3  O   UNL     1      12.413   6.926   4.326  0.00  0.00    -0.336 OA
ATOM      9  N   UNL     1      10.831   5.454   3.736  0.00  0.00    -0.190 NA
ATOM     10  N   UNL     1      12.653   6.613   2.981  0.00  0.00    -0.056 NA
ATOM     17  C   UNL     1      11.324   6.200   4.691  0.00  0.00    +0.245 A 
ATOM     22  C   UNL     1      11.680   5.740   2.707  0.00  0.00    +0.202 A 
BRANCH  22  26
ATOM      1 CL   UNL     1       9.079   5.468  -1.729  0.00  0.00    -0.081 Cl
ATOM      2  F   UNL     1      11.107   3.383  -2.302  0.00  0.00    -0.204 F 
ATOM     26  C   UNL     1      11.528   5.135   1.415  0.00  0.00    +0.024 A 
ATOM     27  C   UNL     1      10.498   5.545   0.568  0.00  0.00    +0.034 A 
ATOM     28  C   UNL     1      12.411   4.136   1.005  0.00  0.00    +0.014 A 
ATOM     30  C   UNL     1      10.351   4.957  -0.688  0.00  0.00    +0.077 A 
ATOM     31  C   UNL     1      12.265   3.547  -0.251  0.00  0.00    +0.040 A 
ATOM     32  C   UNL     1      11.235   3.958  -1.098  0.00  0.00    +0.142 A 
ENDBRANCH  22  26
ENDBRANCH  11  17
BRANCH   6  16
ATOM     16  C   UNL     1       9.850   8.577   5.675  0.00  0.00    +0.120 C 
BRANCH  16  18
ATOM     18  C   UNL     1       8.754   8.925   4.703  0.00  0.00    -0.033 A 
ATOM     20  C   UNL     1       7.651   9.664   5.132  0.00  0.00    +0.006 A 
ATOM     21  C   UNL     1       8.841   8.508   3.375  0.00  0.00    +0.006 A 
ATOM     23  C   UNL     1       6.636   9.986   4.232  0.00  0.00    +0.015 A 
ATOM     24  C   UNL     1       7.826   8.831   2.475  0.00  0.00    +0.015 A 
ATOM     25  C   UNL     1       6.723   9.570   2.904  0.00  0.00    +0.059 A 
BRANCH  25  29
ATOM      5  O   UNL     1       5.829  10.199   0.775  0.00  0.00    -0.245 OA
ATOM     29  C   UNL     1       5.665   9.907   1.964  0.00  0.00    +0.337 C 
BRANCH  29   4
ATOM      4  O   UNL     1       4.430   9.871   2.535  0.00  0.00    -0.477 OA
ATOM     34  H   UNL     1       3.863   9.176   2.137  0.00  0.00    +0.295 HD
ENDBRANCH  29   4
ENDBRANCH  25  29
ENDBRANCH  16  18
ENDBRANCH   6  16
TORSDOF 6
ENDMDL
MODEL 9
REMARK VINA RESULT:      -7.2     14.173     17.356
REMARK  Name = 26761934
REMARK  6 active torsions:
REMARK  status: ('A' for Active; 'I' for Inactive)
REMARK    1  A    between atoms: O_4  and  C_29
REMARK    2  A    between atoms: N_6  and  C_16
REMARK    3  A    between atoms: C_11  and  C_17
REMARK    4  A    between atoms: C_16  and  C_18
REMARK    5  A    between atoms: C_22  and  C_26
REMARK    6  A    between atoms: C_25  and  C_29
REMARK                            x       y       z     vdW  Elec       q    Type
REMARK                         _______ _______ _______ _____ _____    ______ ____
ROOT
ATOM      6  N   UNL     1      12.008   6.487   4.822  0.00  0.00    -0.281 NA
ATOM      7  N   UNL     1       9.504   4.805   7.051  0.00  0.00    -0.347 N 
ATOM      8  N   UNL     1      10.825   5.496   8.717  0.00  0.00    -0.240 NA
ATOM     11  C   UNL     1      12.429   7.477   5.872  0.00  0.00    +0.152 C 
ATOM     12  C   UNL     1      12.445   6.853   7.313  0.00  0.00    +0.086 C 
ATOM     13  C   UNL     1      10.635   5.955   5.065  0.00  0.00    +0.140 C 
ATOM     14  C   UNL     1      10.467   5.582   6.484  0.00  0.00    +0.053 A 
ATOM     15  C   UNL     1      11.259   5.998   7.523  0.00  0.00    +0.065 A 
ATOM     19  C   UNL     1       9.763   4.784   8.400  0.00  0.00    +0.197 A 
ATOM     33  H   UNL     1       8.742   4.338   6.578  0.00  0.00    +0.167 HD
ENDROOT
BRANCH  11  17
ATOM      3  O   UNL     1      13.817   9.440   5.383  0.00  0.00    -0.336 OA
ATOM      9  N   UNL     1      14.977   7.535   5.592  0.00  0.00    -0.190 NA
ATOM     10  N   UNL     1      15.162   9.778   5.182  0.00  0.00    -0.056 NA
ATOM     17  C   UNL     1      13.798   8.102   5.619  0.00  0.00    +0.245 A 
ATOM     22  C   UNL     1      15.782   8.603   5.320  0.00  0.00    +0.202 A 
BRANCH  22  26
ATOM      1 CL   UNL     1      20.418   8.771   7.554  0.00  0.00    -0.081 Cl
ATOM      2  F   UNL     1      21.296   8.049   4.816  0.00  0.00    -0.204 F 
ATOM     26  C   UNL     1      17.204   8.461   5.195  0.00  0.00    +0.024 A 
ATOM     27  C   UNL     1      18.026   8.662   6.303  0.00  0.00    +0.034 A 
ATOM     28  C   UNL     1      17.765   8.123   3.963  0.00  0.00    +0.014 A 
ATOM     30  C   UNL     1      19.408   8.524   6.181  0.00  0.00    +0.077 A 
ATOM     31  C   UNL     1      19.147   7.985   3.840  0.00  0.00    +0.040 A 
ATOM     32  C   UNL     1      19.969   8.185   4.950  0.00  0.00    +0.142 A 
ENDBRANCH  22  26
ENDBRANCH  11  17
BRANCH   6  16
ATOM     16  C   UNL     1      12.043   7.058   3.469  0.00  0.00    +0.120 C 
BRANCH  16  18
ATOM     18  C   UNL     1      12.959   6.285   2.557  0.00  0.00    -0.033 A 
ATOM     20  C   UNL     1      12.571   5.034   2.078  0.00  0.00    +0.006 A 
ATOM     21  C   UNL     1      14.194   6.819   2.193  0.00  0.00    +0.006 A 
ATOM     23  C   UNL     1      13.419   4.317   1.234  0.00  0.00    +0.015 A 
ATOM     24  C   UNL     1      15.042   6.103   1.349  0.00  0.00    +0.015 A 
ATOM     25  C   UNL     1      14.655   4.852   0.869  0.00  0.00    +0.059 A 
BRANCH  25  29
ATOM      5  O   UNL     1      15.431   4.034  -1.241  0.00  0.00    -0.245 OA
ATOM     29  C   UNL     1      15.539   4.106  -0.012  0.00  0.00    +0.337 C 
BRANCH  29   4
ATOM      4  O   UNL     1      16.533   3.468   0.664  0.00  0.00    -0.477 OA
ATOM     34  H   UNL     1      17.413   3.638   0.266  0.00  0.00    +0.295 HD
ENDBRANCH  29   4
ENDBRANCH  25  29
ENDBRANCH  16  18
ENDBRANCH   6  16
TORSDOF 6
ENDMDL
MODEL 10
REMARK VINA RESULT:      -7.1     26.607     28.153
REMARK  Name = 26761934
REMARK  6 active torsions:
REMARK  status: ('A' for Active; 'I' for Inactive)
REMARK    1  A    between atoms: O_4  and  C_29
REMARK    2  A    between atoms: N_6  and  C_16
REMARK    3  A    between atoms: C_11  and  C_17
REMARK    4  A    between atoms: C_16  and  C_18
REMARK    5  A    between atoms: C_22  and  C_26
REMARK    6  A    between atoms: C_25  and  C_29
REMARK                            x       y       z     vdW  Elec       q    Type
REMARK                         _______ _______ _______ _____ _____    ______ ____
ROOT
ATOM      6  N   UNL     1     -11.897   8.192  19.322  0.00  0.00    -0.281 NA
ATOM      7  N   UNL     1     -11.057   8.032  15.671  0.00  0.00    -0.347 N 
ATOM      8  N   UNL     1     -11.620  10.195  15.653  0.00  0.00    -0.240 NA
ATOM     11  C   UNL     1     -11.581   9.658  19.434  0.00  0.00    +0.152 C 
ATOM     12  C   UNL     1     -11.991  10.461  18.149  0.00  0.00    +0.086 C 
ATOM     13  C   UNL     1     -11.188   7.547  18.179  0.00  0.00    +0.140 C 
ATOM     14  C   UNL     1     -11.296   8.380  16.964  0.00  0.00    +0.053 A 
ATOM     15  C   UNL     1     -11.632   9.708  16.929  0.00  0.00    +0.065 A 
ATOM     19  C   UNL     1     -11.266   9.161  14.917  0.00  0.00    +0.197 A 
ATOM     33  H   UNL     1     -10.776   7.123  15.326  0.00  0.00    +0.167 HD
ENDROOT
BRANCH  11  17
ATOM      3  O   UNL     1     -13.531  10.694  20.502  0.00  0.00    -0.336 OA
ATOM      9  N   UNL     1     -11.705  10.643  21.798  0.00  0.00    -0.190 NA
ATOM     10  N   UNL     1     -13.897  11.293  21.715  0.00  0.00    -0.056 NA
ATOM     17  C   UNL     1     -12.226  10.340  20.636  0.00  0.00    +0.245 A 
ATOM     22  C   UNL     1     -12.767  11.226  22.425  0.00  0.00    +0.202 A 
BRANCH  22  26
ATOM      1 CL   UNL     1     -11.005  10.604  27.224  0.00  0.00    -0.081 Cl
ATOM      2  F   UNL     1     -12.387  13.197  27.615  0.00  0.00    -0.204 F 
ATOM     26  C   UNL     1     -12.667  11.730  23.765  0.00  0.00    +0.024 A 
ATOM     27  C   UNL     1     -11.968  11.009  24.732  0.00  0.00    +0.034 A 
ATOM     28  C   UNL     1     -13.268  12.943  24.099  0.00  0.00    +0.014 A 
ATOM     30  C   UNL     1     -11.871  11.499  26.033  0.00  0.00    +0.077 A 
ATOM     31  C   UNL     1     -13.171  13.435  25.401  0.00  0.00    +0.040 A 
ATOM     32  C   UNL     1     -12.472  12.712  26.368  0.00  0.00    +0.142 A 
ENDBRANCH  22  26
ENDBRANCH  11  17
BRANCH   6  16
ATOM     16  C   UNL     1     -11.559   7.452  20.546  0.00  0.00    +0.120 C 
BRANCH  16  18
ATOM     18  C   UNL     1     -12.737   6.680  21.077  0.00  0.00    -0.033 A 
ATOM     20  C   UNL     1     -14.034   7.054  20.722  0.00  0.00    +0.006 A 
ATOM     21  C   UNL     1     -12.532   5.591  21.924  0.00  0.00    +0.006 A 
ATOM     23  C   UNL     1     -15.125   6.338  21.215  0.00  0.00    +0.015 A 
ATOM     24  C   UNL     1     -13.623   4.875  22.416  0.00  0.00    +0.015 A 
ATOM     25  C   UNL     1     -14.920   5.248  22.061  0.00  0.00    +0.059 A 
BRANCH  25  29
ATOM      5  O   UNL     1     -17.199   4.949  22.725  0.00  0.00    -0.245 OA
ATOM     29  C   UNL     1     -16.057   4.501  22.574  0.00  0.00    +0.337 C 
BRANCH  29   4
ATOM      4  O   UNL     1     -15.739   3.215  22.884  0.00  0.00    -0.477 OA
ATOM     34  H   UNL     1     -15.512   3.113  23.833  0.00  0.00    +0.295 HD
ENDBRANCH  29   4
ENDBRANCH  25  29
ENDBRANCH  16  18
ENDBRANCH   6  16
TORSDOF 6
ENDMDL
