REMARK  Name = 7674736
REMARK  7 active torsions:
REMARK  status: ('A' for Active; 'I' for Inactive)
REMARK    1  A    between atoms: S_1  and  N_9
REMARK    2  A    between atoms: S_1  and  C_20
REMARK    3  A    between atoms: O_8  and  C_30
REMARK    4  A    between atoms: O_8  and  C_31
REMARK    5  A    between atoms: C_20  and  C_23
REMARK    6  A    between atoms: C_21  and  C_24
REMARK    7  A    between atoms: C_23  and  C_25
REMARK                            x       y       z     vdW  Elec       q    Type
REMARK                         _______ _______ _______ _____ _____    ______ ____
ROOT
ATOM      7  O   UNL     1      -0.876   0.918  -1.740  0.00  0.00    -0.267 OA
ATOM      9  N   UNL     1       3.760  -0.170  -0.265  0.00  0.00    -0.180 NA
ATOM     10  N   UNL     1       1.052   1.437  -0.535  0.00  0.00    -0.311 N 
ATOM     11  C   UNL     1       3.314   1.849  -1.664  0.00  0.00    +0.025 C 
ATOM     12  C   UNL     1       3.126   1.995   0.780  0.00  0.00    +0.052 C 
ATOM     13  C   UNL     1       3.590   2.747  -0.465  0.00  0.00    +0.017 C 
ATOM     14  C   UNL     1       4.090   0.528  -1.540  0.00  0.00    +0.114 C 
ATOM     15  C   UNL     1       3.945   0.701   0.935  0.00  0.00    +0.118 C 
ATOM     16  C   UNL     1       1.801   1.631  -1.785  0.00  0.00    +0.130 C 
ATOM     17  C   UNL     1       1.645   1.678   0.706  0.00  0.00    +0.026 A 
ATOM     18  C   UNL     1       0.910   1.607   1.828  0.00  0.00    +0.022 A 
ATOM     19  C   UNL     1      -0.311   1.103  -0.661  0.00  0.00    +0.259 A 
ATOM     21  C   UNL     1      -1.100   0.995   0.616  0.00  0.00    +0.047 A 
ATOM     22  C   UNL     1      -0.481   1.254   1.778  0.00  0.00    +0.015 A 
ENDROOT
BRANCH  21  24
ATOM     24  C   UNL     1      -2.521   0.607   0.605  0.00  0.00    -0.012 A 
ATOM     26  C   UNL     1      -3.512   1.584   0.510  0.00  0.00    +0.012 A 
ATOM     27  C   UNL     1      -2.877  -0.740   0.691  0.00  0.00    +0.012 A 
ATOM     28  C   UNL     1      -4.857   1.216   0.500  0.00  0.00    +0.046 A 
ATOM     29  C   UNL     1      -4.222  -1.108   0.681  0.00  0.00    +0.046 A 
ATOM     30  C   UNL     1      -5.212  -0.131   0.585  0.00  0.00    +0.130 A 
BRANCH  30   8
ATOM      8  O   UNL     1      -6.525  -0.490   0.576  0.00  0.00    -0.406 OA
BRANCH   8  31
ATOM      2  F   UNL     1      -6.267  -1.163  -1.594  0.00  0.00    -0.133 F 
ATOM      3  F   UNL     1      -8.273  -1.052  -0.736  0.00  0.00    -0.133 F 
ATOM      4  F   UNL     1      -6.922  -2.642  -0.088  0.00  0.00    -0.133 F 
ATOM     31  C   UNL     1      -6.982  -1.347  -0.464  0.00  0.00    +0.575 C 
ENDBRANCH   8  31
ENDBRANCH  30   8
ENDBRANCH  21  24
BRANCH   9   1
ATOM      1  S   UNL     1       4.356  -1.767  -0.119  0.00  0.00    +0.032 S 
ATOM      5  O   UNL     1       4.259  -2.421  -1.406  0.00  0.00    -0.158 OA
ATOM      6  O   UNL     1       3.805  -2.363   1.079  0.00  0.00    -0.158 OA
BRANCH   1  20
ATOM     20  C   UNL     1       6.066  -1.406   0.185  0.00  0.00    +0.185 C 
BRANCH  20  23
ATOM     23  C   UNL     1       6.878  -2.678   0.363  0.00  0.00    +0.021 C 
ATOM     25  C   UNL     1       8.339  -2.371   0.643  0.00  0.00    +0.005 C 
ENDBRANCH  20  23
ENDBRANCH   1  20
ENDBRANCH   9   1
TORSDOF 6
