MODEL 1
REMARK VINA RESULT:      -7.0      0.000      0.000
REMARK  Name = 75536038
REMARK  5 active torsions:
REMARK  status: ('A' for Active; 'I' for Inactive)
REMARK    1  A    between atoms: O_3  and  C_23
REMARK    2  A    between atoms: O_3  and  C_24
REMARK    3  A    between atoms: N_6  and  C_16
REMARK    4  A    between atoms: C_22  and  C_23
REMARK    5  A    between atoms: C_24  and  C_25
REMARK                            x       y       z     vdW  Elec       q    Type
REMARK                         _______ _______ _______ _____ _____    ______ ____
ROOT
ATOM      1  O   UNL     1      16.934   9.092  21.925  0.00  0.00    -0.273 OA
ATOM      2  O   UNL     1      17.451   5.546  18.966  0.00  0.00    -0.252 OA
ATOM      5  N   UNL     1      18.839   6.561  20.523  0.00  0.00    -0.267 N 
ATOM      6  N   UNL     1      16.758   7.371  20.308  0.00  0.00    -0.193 N 
ATOM      7  N   UNL     1      22.531   6.432  20.380  0.00  0.00    -0.347 N 
ATOM      8  N   UNL     1      22.395   8.515  21.181  0.00  0.00    -0.240 NA
ATOM      9  C   UNL     1      18.763   7.584  21.554  0.00  0.00    +0.171 C 
ATOM     10  C   UNL     1      19.870   8.643  21.407  0.00  0.00    +0.089 C 
ATOM     11  C   UNL     1      20.065   5.772  20.328  0.00  0.00    +0.165 C 
ATOM     12  C   UNL     1      21.148   7.966  21.070  0.00  0.00    +0.066 A 
ATOM     13  C   UNL     1      21.206   6.682  20.574  0.00  0.00    +0.056 A 
ATOM     14  C   UNL     1      17.367   8.127  21.307  0.00  0.00    +0.248 C 
ATOM     15  C   UNL     1      17.642   6.403  19.818  0.00  0.00    +0.317 C 
ATOM     17  C   UNL     1      23.206   7.565  20.760  0.00  0.00    +0.197 A 
ATOM     26  H   UNL     1      22.943   5.578  20.027  0.00  0.00    +0.167 HD
ENDROOT
BRANCH   6  16
ATOM     16  C   UNL     1      15.420   7.568  19.839  0.00  0.00    +0.045 A 
ATOM     18  C   UNL     1      14.402   6.709  20.252  0.00  0.00    +0.025 A 
ATOM     19  C   UNL     1      15.135   8.618  18.967  0.00  0.00    +0.025 A 
ATOM     20  C   UNL     1      13.099   6.900  19.794  0.00  0.00    +0.017 A 
ATOM     21  C   UNL     1      13.831   8.810  18.509  0.00  0.00    +0.017 A 
ATOM     22  C   UNL     1      12.814   7.951  18.922  0.00  0.00    +0.059 A 
BRANCH  22  23
ATOM      4  O   UNL     1      10.524   8.583  19.138  0.00  0.00    -0.245 OA
ATOM     23  C   UNL     1      11.454   8.149  18.444  0.00  0.00    +0.339 C 
BRANCH  23   3
ATOM      3  O   UNL     1      11.326   7.795  17.129  0.00  0.00    -0.461 OA
BRANCH   3  24
ATOM     24  C   UNL     1      10.761   8.772  16.249  0.00  0.00    +0.229 C 
ATOM     25  C   UNL     1      11.878   9.469  15.503  0.00  0.00    +0.048 C 
ENDBRANCH   3  24
ENDBRANCH  23   3
ENDBRANCH  22  23
ENDBRANCH   6  16
TORSDOF 4
ENDMDL
MODEL 2
REMARK VINA RESULT:      -6.5      3.055      8.690
REMARK  Name = 75536038
REMARK  5 active torsions:
REMARK  status: ('A' for Active; 'I' for Inactive)
REMARK    1  A    between atoms: O_3  and  C_23
REMARK    2  A    between atoms: O_3  and  C_24
REMARK    3  A    between atoms: N_6  and  C_16
REMARK    4  A    between atoms: C_22  and  C_23
REMARK    5  A    between atoms: C_24  and  C_25
REMARK                            x       y       z     vdW  Elec       q    Type
REMARK                         _______ _______ _______ _____ _____    ______ ____
ROOT
ATOM      1  O   UNL     1      18.110   8.360  22.107  0.00  0.00    -0.273 OA
ATOM      2  O   UNL     1      17.519   5.458  18.526  0.00  0.00    -0.252 OA
ATOM      5  N   UNL     1      16.129   6.937  19.649  0.00  0.00    -0.267 N 
ATOM      6  N   UNL     1      18.256   6.789  20.343  0.00  0.00    -0.193 N 
ATOM      7  N   UNL     1      12.443   6.648  19.711  0.00  0.00    -0.347 N 
ATOM      8  N   UNL     1      12.659   7.410  21.802  0.00  0.00    -0.240 NA
ATOM      9  C   UNL     1      16.219   7.948  20.690  0.00  0.00    +0.171 C 
ATOM     10  C   UNL     1      15.176   7.735  21.802  0.00  0.00    +0.089 C 
ATOM     11  C   UNL     1      14.870   6.709  18.922  0.00  0.00    +0.165 C 
ATOM     12  C   UNL     1      13.878   7.361  21.187  0.00  0.00    +0.066 A 
ATOM     13  C   UNL     1      13.772   6.890  19.896  0.00  0.00    +0.056 A 
ATOM     14  C   UNL     1      17.651   7.747  21.153  0.00  0.00    +0.248 C 
ATOM     15  C   UNL     1      17.342   6.284  19.413  0.00  0.00    +0.317 C 
ATOM     17  C   UNL     1      11.815   6.976  20.887  0.00  0.00    +0.197 A 
ATOM     26  H   UNL     1      12.000   6.297  18.873  0.00  0.00    +0.167 HD
ENDROOT
BRANCH   6  16
ATOM     16  C   UNL     1      19.620   6.370  20.458  0.00  0.00    +0.045 A 
ATOM     18  C   UNL     1      19.931   5.011  20.503  0.00  0.00    +0.025 A 
ATOM     19  C   UNL     1      20.639   7.321  20.527  0.00  0.00    +0.025 A 
ATOM     20  C   UNL     1      21.259   4.603  20.616  0.00  0.00    +0.017 A 
ATOM     21  C   UNL     1      21.968   6.912  20.641  0.00  0.00    +0.017 A 
ATOM     22  C   UNL     1      22.278   5.553  20.685  0.00  0.00    +0.059 A 
BRANCH  22  23
ATOM      4  O   UNL     1      24.486   5.625  21.585  0.00  0.00    -0.245 OA
ATOM     23  C   UNL     1      23.664   5.126  20.804  0.00  0.00    +0.339 C 
BRANCH  23   3
ATOM      3  O   UNL     1      23.950   4.102  19.943  0.00  0.00    -0.461 OA
BRANCH   3  24
ATOM     24  C   UNL     1      24.959   3.175  20.354  0.00  0.00    +0.229 C 
ATOM     25  C   UNL     1      24.295   1.889  20.799  0.00  0.00    +0.048 C 
ENDBRANCH   3  24
ENDBRANCH  23   3
ENDBRANCH  22  23
ENDBRANCH   6  16
TORSDOF 4
ENDMDL
MODEL 3
REMARK VINA RESULT:      -6.4     15.641     19.515
REMARK  Name = 75536038
REMARK  5 active torsions:
REMARK  status: ('A' for Active; 'I' for Inactive)
REMARK    1  A    between atoms: O_3  and  C_23
REMARK    2  A    between atoms: O_3  and  C_24
REMARK    3  A    between atoms: N_6  and  C_16
REMARK    4  A    between atoms: C_22  and  C_23
REMARK    5  A    between atoms: C_24  and  C_25
REMARK                            x       y       z     vdW  Elec       q    Type
REMARK                         _______ _______ _______ _____ _____    ______ ____
ROOT
ATOM      1  O   UNL     1       9.884   6.992   1.168  0.00  0.00    -0.273 OA
ATOM      2  O   UNL     1      12.587   3.330   2.107  0.00  0.00    -0.252 OA
ATOM      5  N   UNL     1      11.849   4.328   0.148  0.00  0.00    -0.267 N 
ATOM      6  N   UNL     1      11.190   5.244   2.086  0.00  0.00    -0.193 N 
ATOM      7  N   UNL     1      11.628   2.571  -3.098  0.00  0.00    -0.347 N 
ATOM      8  N   UNL     1       9.807   3.837  -3.387  0.00  0.00    -0.240 NA
ATOM      9  C   UNL     1      11.103   5.506  -0.267  0.00  0.00    +0.171 C 
ATOM     10  C   UNL     1       9.949   5.159  -1.225  0.00  0.00    +0.089 C 
ATOM     11  C   UNL     1      12.463   3.433  -0.845  0.00  0.00    +0.165 C 
ATOM     12  C   UNL     1      10.418   4.146  -2.204  0.00  0.00    +0.066 A 
ATOM     13  C   UNL     1      11.543   3.375  -2.001  0.00  0.00    +0.056 A 
ATOM     14  C   UNL     1      10.638   6.032   1.079  0.00  0.00    +0.248 C 
ATOM     15  C   UNL     1      11.938   4.198   1.536  0.00  0.00    +0.317 C 
ATOM     17  C   UNL     1      10.561   2.886  -3.902  0.00  0.00    +0.197 A 
ATOM     26  H   UNL     1      12.338   1.876  -3.288  0.00  0.00    +0.167 HD
ENDROOT
BRANCH   6  16
ATOM     16  C   UNL     1      11.003   5.466   3.488  0.00  0.00    +0.045 A 
ATOM     18  C   UNL     1      10.082   4.697   4.200  0.00  0.00    +0.025 A 
ATOM     19  C   UNL     1      11.741   6.452   4.142  0.00  0.00    +0.025 A 
ATOM     20  C   UNL     1       9.899   4.914   5.565  0.00  0.00    +0.017 A 
ATOM     21  C   UNL     1      11.558   6.669   5.508  0.00  0.00    +0.017 A 
ATOM     22  C   UNL     1      10.638   5.900   6.219  0.00  0.00    +0.059 A 
BRANCH  22  23
ATOM      4  O   UNL     1      10.119   7.211   8.143  0.00  0.00    -0.245 OA
ATOM     23  C   UNL     1      10.446   6.126   7.644  0.00  0.00    +0.339 C 
BRANCH  23   3
ATOM      3  O   UNL     1      10.672   4.988   8.368  0.00  0.00    -0.461 OA
BRANCH   3  24
ATOM     24  C   UNL     1       9.519   4.265   8.813  0.00  0.00    +0.229 C 
ATOM     25  C   UNL     1       9.263   4.594  10.268  0.00  0.00    +0.048 C 
ENDBRANCH   3  24
ENDBRANCH  23   3
ENDBRANCH  22  23
ENDBRANCH   6  16
TORSDOF 4
ENDMDL
MODEL 4
REMARK VINA RESULT:      -6.3      1.069      2.097
REMARK  Name = 75536038
REMARK  5 active torsions:
REMARK  status: ('A' for Active; 'I' for Inactive)
REMARK    1  A    between atoms: O_3  and  C_23
REMARK    2  A    between atoms: O_3  and  C_24
REMARK    3  A    between atoms: N_6  and  C_16
REMARK    4  A    between atoms: C_22  and  C_23
REMARK    5  A    between atoms: C_24  and  C_25
REMARK                            x       y       z     vdW  Elec       q    Type
REMARK                         _______ _______ _______ _____ _____    ______ ____
ROOT
ATOM      1  O   UNL     1      17.440   9.158  21.988  0.00  0.00    -0.273 OA
ATOM      2  O   UNL     1      17.747   5.429  19.231  0.00  0.00    -0.252 OA
ATOM      5  N   UNL     1      19.234   6.522  20.635  0.00  0.00    -0.267 N 
ATOM      6  N   UNL     1      17.151   7.342  20.496  0.00  0.00    -0.193 N 
ATOM      7  N   UNL     1      22.910   6.341  20.279  0.00  0.00    -0.347 N 
ATOM      8  N   UNL     1      22.840   8.471  20.954  0.00  0.00    -0.240 NA
ATOM      9  C   UNL     1      19.230   7.608  21.603  0.00  0.00    +0.171 C 
ATOM     10  C   UNL     1      20.335   8.643  21.324  0.00  0.00    +0.089 C 
ATOM     11  C   UNL     1      20.440   5.709  20.416  0.00  0.00    +0.165 C 
ATOM     12  C   UNL     1      21.584   7.932  20.953  0.00  0.00    +0.066 A 
ATOM     13  C   UNL     1      21.601   6.618  20.536  0.00  0.00    +0.056 A 
ATOM     14  C   UNL     1      17.826   8.151  21.407  0.00  0.00    +0.248 C 
ATOM     15  C   UNL     1      17.996   6.336  20.015  0.00  0.00    +0.317 C 
ATOM     17  C   UNL     1      23.616   7.488  20.545  0.00  0.00    +0.197 A 
ATOM     26  H   UNL     1      23.293   5.462  19.956  0.00  0.00    +0.167 HD
ENDROOT
BRANCH   6  16
ATOM     16  C   UNL     1      15.789   7.526  20.097  0.00  0.00    +0.045 A 
ATOM     18  C   UNL     1      15.434   8.621  19.310  0.00  0.00    +0.025 A 
ATOM     19  C   UNL     1      14.816   6.609  20.496  0.00  0.00    +0.025 A 
ATOM     20  C   UNL     1      14.107   8.800  18.922  0.00  0.00    +0.017 A 
ATOM     21  C   UNL     1      13.488   6.789  20.108  0.00  0.00    +0.017 A 
ATOM     22  C   UNL     1      13.134   7.884  19.321  0.00  0.00    +0.059 A 
BRANCH  22  23
ATOM      4  O   UNL     1      11.383   8.286  17.752  0.00  0.00    -0.245 OA
ATOM     23  C   UNL     1      11.749   8.073  18.915  0.00  0.00    +0.339 C 
BRANCH  23   3
ATOM      3  O   UNL     1      10.897   7.986  19.982  0.00  0.00    -0.461 OA
BRANCH   3  24
ATOM     24  C   UNL     1      10.957   9.043  20.945  0.00  0.00    +0.229 C 
ATOM     25  C   UNL     1      10.777   8.459  22.330  0.00  0.00    +0.048 C 
ENDBRANCH   3  24
ENDBRANCH  23   3
ENDBRANCH  22  23
ENDBRANCH   6  16
TORSDOF 4
ENDMDL
MODEL 5
REMARK VINA RESULT:      -6.3      1.979      3.217
REMARK  Name = 75536038
REMARK  5 active torsions:
REMARK  status: ('A' for Active; 'I' for Inactive)
REMARK    1  A    between atoms: O_3  and  C_23
REMARK    2  A    between atoms: O_3  and  C_24
REMARK    3  A    between atoms: N_6  and  C_16
REMARK    4  A    between atoms: C_22  and  C_23
REMARK    5  A    between atoms: C_24  and  C_25
REMARK                            x       y       z     vdW  Elec       q    Type
REMARK                         _______ _______ _______ _____ _____    ______ ____
ROOT
ATOM      1  O   UNL     1      18.715   4.916  19.660  0.00  0.00    -0.273 OA
ATOM      2  O   UNL     1      18.228   8.954  21.908  0.00  0.00    -0.252 OA
ATOM      5  N   UNL     1      20.021   7.539  21.507  0.00  0.00    -0.267 N 
ATOM      6  N   UNL     1      18.028   6.944  20.669  0.00  0.00    -0.193 N 
ATOM      7  N   UNL     1      23.062   7.427  23.608  0.00  0.00    -0.347 N 
ATOM      8  N   UNL     1      23.003   5.238  23.156  0.00  0.00    -0.240 NA
ATOM      9  C   UNL     1      20.315   6.331  20.752  0.00  0.00    +0.171 C 
ATOM     10  C   UNL     1      20.983   5.249  21.618  0.00  0.00    +0.089 C 
ATOM     11  C   UNL     1      21.084   8.260  22.225  0.00  0.00    +0.165 C 
ATOM     12  C   UNL     1      21.996   5.887  22.497  0.00  0.00    +0.066 A 
ATOM     13  C   UNL     1      22.009   7.239  22.763  0.00  0.00    +0.056 A 
ATOM     14  C   UNL     1      18.925   5.954  20.274  0.00  0.00    +0.248 C 
ATOM     15  C   UNL     1      18.681   7.926  21.422  0.00  0.00    +0.317 C 
ATOM     17  C   UNL     1      23.628   6.194  23.815  0.00  0.00    +0.197 A 
ATOM     26  H   UNL     1      23.372   8.304  24.007  0.00  0.00    +0.167 HD
ENDROOT
BRANCH   6  16
ATOM     16  C   UNL     1      16.630   6.946  20.361  0.00  0.00    +0.045 A 
ATOM     18  C   UNL     1      15.688   6.938  21.389  0.00  0.00    +0.025 A 
ATOM     19  C   UNL     1      16.209   6.956  19.030  0.00  0.00    +0.025 A 
ATOM     20  C   UNL     1      14.327   6.939  21.089  0.00  0.00    +0.017 A 
ATOM     21  C   UNL     1      14.847   6.958  18.730  0.00  0.00    +0.017 A 
ATOM     22  C   UNL     1      13.906   6.949  19.759  0.00  0.00    +0.059 A 
BRANCH  22  23
ATOM      4  O   UNL     1      12.020   7.037  18.302  0.00  0.00    -0.245 OA
ATOM     23  C   UNL     1      12.485   6.950  19.447  0.00  0.00    +0.339 C 
BRANCH  23   3
ATOM      3  O   UNL     1      11.722   6.844  20.577  0.00  0.00    -0.461 OA
BRANCH   3  24
ATOM     24  C   UNL     1      10.826   7.925  20.856  0.00  0.00    +0.229 C 
ATOM     25  C   UNL     1      10.715   8.098  22.356  0.00  0.00    +0.048 C 
ENDBRANCH   3  24
ENDBRANCH  23   3
ENDBRANCH  22  23
ENDBRANCH   6  16
TORSDOF 4
ENDMDL
MODEL 6
REMARK VINA RESULT:      -6.1     26.602     29.266
REMARK  Name = 75536038
REMARK  5 active torsions:
REMARK  status: ('A' for Active; 'I' for Inactive)
REMARK    1  A    between atoms: O_3  and  C_23
REMARK    2  A    between atoms: O_3  and  C_24
REMARK    3  A    between atoms: N_6  and  C_16
REMARK    4  A    between atoms: C_22  and  C_23
REMARK    5  A    between atoms: C_24  and  C_25
REMARK                            x       y       z     vdW  Elec       q    Type
REMARK                         _______ _______ _______ _____ _____    ______ ____
ROOT
ATOM      1  O   UNL     1     -11.429   8.467  17.190  0.00  0.00    -0.273 OA
ATOM      2  O   UNL     1     -12.390  11.307  20.741  0.00  0.00    -0.252 OA
ATOM      5  N   UNL     1     -11.512  11.622  18.617  0.00  0.00    -0.267 N 
ATOM      6  N   UNL     1     -12.070   9.531  19.206  0.00  0.00    -0.193 N 
ATOM      7  N   UNL     1      -9.391  14.500  17.675  0.00  0.00    -0.347 N 
ATOM      8  N   UNL     1      -8.342  12.999  16.392  0.00  0.00    -0.240 NA
ATOM      9  C   UNL     1     -11.265  10.850  17.410  0.00  0.00    +0.171 C 
ATOM     10  C   UNL     1      -9.817  11.000  16.908  0.00  0.00    +0.089 C 
ATOM     11  C   UNL     1     -11.268  13.072  18.652  0.00  0.00    +0.165 C 
ATOM     12  C   UNL     1      -9.407  12.422  17.024  0.00  0.00    +0.066 A 
ATOM     13  C   UNL     1     -10.068  13.327  17.825  0.00  0.00    +0.056 A 
ATOM     14  C   UNL     1     -11.597   9.452  17.898  0.00  0.00    +0.248 C 
ATOM     15  C   UNL     1     -12.029  10.853  19.663  0.00  0.00    +0.317 C 
ATOM     17  C   UNL     1      -8.360  14.251  16.803  0.00  0.00    +0.197 A 
ATOM     26  H   UNL     1      -9.602  15.385  18.117  0.00  0.00    +0.167 HD
ENDROOT
BRANCH   6  16
ATOM     16  C   UNL     1     -12.519   8.412  19.978  0.00  0.00    +0.045 A 
ATOM     18  C   UNL     1     -13.880   8.235  20.224  0.00  0.00    +0.025 A 
ATOM     19  C   UNL     1     -11.594   7.500  20.487  0.00  0.00    +0.025 A 
ATOM     20  C   UNL     1     -14.317   7.146  20.977  0.00  0.00    +0.017 A 
ATOM     21  C   UNL     1     -12.031   6.411  21.240  0.00  0.00    +0.017 A 
ATOM     22  C   UNL     1     -13.392   6.234  21.486  0.00  0.00    +0.059 A 
BRANCH  22  23
ATOM      4  O   UNL     1     -13.193   4.562  23.174  0.00  0.00    -0.245 OA
ATOM     23  C   UNL     1     -13.850   5.098  22.272  0.00  0.00    +0.339 C 
BRANCH  23   3
ATOM      3  O   UNL     1     -15.099   4.693  21.890  0.00  0.00    -0.461 OA
BRANCH   3  24
ATOM     24  C   UNL     1     -16.123   4.725  22.890  0.00  0.00    +0.229 C 
ATOM     25  C   UNL     1     -16.490   3.306  23.266  0.00  0.00    +0.048 C 
ENDBRANCH   3  24
ENDBRANCH  23   3
ENDBRANCH  22  23
ENDBRANCH   6  16
TORSDOF 4
ENDMDL
MODEL 7
REMARK VINA RESULT:      -6.1     16.401     19.986
REMARK  Name = 75536038
REMARK  5 active torsions:
REMARK  status: ('A' for Active; 'I' for Inactive)
REMARK    1  A    between atoms: O_3  and  C_23
REMARK    2  A    between atoms: O_3  and  C_24
REMARK    3  A    between atoms: N_6  and  C_16
REMARK    4  A    between atoms: C_22  and  C_23
REMARK    5  A    between atoms: C_24  and  C_25
REMARK                            x       y       z     vdW  Elec       q    Type
REMARK                         _______ _______ _______ _____ _____    ______ ____
ROOT
ATOM      1  O   UNL     1      14.001   3.786   1.544  0.00  0.00    -0.273 OA
ATOM      2  O   UNL     1       9.644   4.764   0.257  0.00  0.00    -0.252 OA
ATOM      5  N   UNL     1      11.486   3.876  -0.836  0.00  0.00    -0.267 N 
ATOM      6  N   UNL     1      11.728   4.415   1.327  0.00  0.00    -0.193 N 
ATOM      7  N   UNL     1      11.955   3.991  -4.502  0.00  0.00    -0.347 N 
ATOM      8  N   UNL     1      14.113   4.249  -3.977  0.00  0.00    -0.240 NA
ATOM      9  C   UNL     1      12.838   3.438  -0.525  0.00  0.00    +0.171 C 
ATOM     10  C   UNL     1      13.886   4.075  -1.455  0.00  0.00    +0.089 C 
ATOM     11  C   UNL     1      10.925   3.698  -2.185  0.00  0.00    +0.165 C 
ATOM     12  C   UNL     1      13.366   4.075  -2.846  0.00  0.00    +0.066 A 
ATOM     13  C   UNL     1      12.029   3.918  -3.143  0.00  0.00    +0.056 A 
ATOM     14  C   UNL     1      12.952   3.890   0.920  0.00  0.00    +0.248 C 
ATOM     15  C   UNL     1      10.816   4.411   0.267  0.00  0.00    +0.317 C 
ATOM     17  C   UNL     1      13.234   4.191  -4.958  0.00  0.00    +0.197 A 
ATOM     26  H   UNL     1      11.121   3.912  -5.070  0.00  0.00    +0.167 HD
ENDROOT
BRANCH   6  16
ATOM     16  C   UNL     1      11.450   4.904   2.643  0.00  0.00    +0.045 A 
ATOM     18  C   UNL     1      10.617   4.180   3.495  0.00  0.00    +0.025 A 
ATOM     19  C   UNL     1      12.011   6.107   3.073  0.00  0.00    +0.025 A 
ATOM     20  C   UNL     1      10.344   4.657   4.777  0.00  0.00    +0.017 A 
ATOM     21  C   UNL     1      11.739   6.584   4.356  0.00  0.00    +0.017 A 
ATOM     22  C   UNL     1      10.906   5.859   5.207  0.00  0.00    +0.059 A 
BRANCH  22  23
ATOM      4  O   UNL     1      11.290   7.220   7.128  0.00  0.00    -0.245 OA
ATOM     23  C   UNL     1      10.621   6.357   6.544  0.00  0.00    +0.339 C 
BRANCH  23   3
ATOM      3  O   UNL     1       9.518   5.750   7.082  0.00  0.00    -0.461 OA
BRANCH   3  24
ATOM     24  C   UNL     1       9.436   5.708   8.510  0.00  0.00    +0.229 C 
ATOM     25  C   UNL     1       9.548   4.269   8.968  0.00  0.00    +0.048 C 
ENDBRANCH   3  24
ENDBRANCH  23   3
ENDBRANCH  22  23
ENDBRANCH   6  16
TORSDOF 4
ENDMDL
MODEL 8
REMARK VINA RESULT:      -6.1     27.578     29.483
REMARK  Name = 75536038
REMARK  5 active torsions:
REMARK  status: ('A' for Active; 'I' for Inactive)
REMARK    1  A    between atoms: O_3  and  C_23
REMARK    2  A    between atoms: O_3  and  C_24
REMARK    3  A    between atoms: N_6  and  C_16
REMARK    4  A    between atoms: C_22  and  C_23
REMARK    5  A    between atoms: C_24  and  C_25
REMARK                            x       y       z     vdW  Elec       q    Type
REMARK                         _______ _______ _______ _____ _____    ______ ____
ROOT
ATOM      1  O   UNL     1     -11.578  10.717  20.907  0.00  0.00    -0.273 OA
ATOM      2  O   UNL     1     -11.385   7.691  17.384  0.00  0.00    -0.252 OA
ATOM      5  N   UNL     1     -10.663   9.877  17.674  0.00  0.00    -0.267 N 
ATOM      6  N   UNL     1     -11.687   8.888  19.407  0.00  0.00    -0.193 N 
ATOM      7  N   UNL     1     -10.084  12.236  14.887  0.00  0.00    -0.347 N 
ATOM      8  N   UNL     1     -10.866  13.756  16.329  0.00  0.00    -0.240 NA
ATOM      9  C   UNL     1     -10.575  10.869  18.733  0.00  0.00    +0.171 C 
ATOM     10  C   UNL     1     -11.192  12.218  18.321  0.00  0.00    +0.089 C 
ATOM     11  C   UNL     1     -10.096  10.139  16.341  0.00  0.00    +0.165 C 
ATOM     12  C   UNL     1     -10.794  12.528  16.925  0.00  0.00    +0.066 A 
ATOM     13  C   UNL     1     -10.318  11.572  16.053  0.00  0.00    +0.056 A 
ATOM     14  C   UNL     1     -11.338  10.165  19.840  0.00  0.00    +0.248 C 
ATOM     15  C   UNL     1     -11.278   8.691  18.083  0.00  0.00    +0.317 C 
ATOM     17  C   UNL     1     -10.429  13.548  15.102  0.00  0.00    +0.197 A 
ATOM     26  H   UNL     1      -9.724  11.845  14.026  0.00  0.00    +0.167 HD
ENDROOT
BRANCH   6  16
ATOM     16  C   UNL     1     -12.381   7.920  20.201  0.00  0.00    +0.045 A 
ATOM     18  C   UNL     1     -11.674   6.894  20.827  0.00  0.00    +0.025 A 
ATOM     19  C   UNL     1     -13.766   8.002  20.347  0.00  0.00    +0.025 A 
ATOM     20  C   UNL     1     -12.350   5.951  21.599  0.00  0.00    +0.017 A 
ATOM     21  C   UNL     1     -14.443   7.058  21.120  0.00  0.00    +0.017 A 
ATOM     22  C   UNL     1     -13.735   6.033  21.745  0.00  0.00    +0.059 A 
BRANCH  22  23
ATOM      4  O   UNL     1     -14.086   4.684  23.681  0.00  0.00    -0.245 OA
ATOM     23  C   UNL     1     -14.440   5.048  22.551  0.00  0.00    +0.339 C 
BRANCH  23   3
ATOM      3  O   UNL     1     -15.547   4.568  21.905  0.00  0.00    -0.461 OA
BRANCH   3  24
ATOM     24  C   UNL     1     -16.713   4.341  22.703  0.00  0.00    +0.229 C 
ATOM     25  C   UNL     1     -17.442   5.654  22.894  0.00  0.00    +0.048 C 
ENDBRANCH   3  24
ENDBRANCH  23   3
ENDBRANCH  22  23
ENDBRANCH   6  16
TORSDOF 4
ENDMDL
MODEL 9
REMARK VINA RESULT:      -6.0     27.172     30.020
REMARK  Name = 75536038
REMARK  5 active torsions:
REMARK  status: ('A' for Active; 'I' for Inactive)
REMARK    1  A    between atoms: O_3  and  C_23
REMARK    2  A    between atoms: O_3  and  C_24
REMARK    3  A    between atoms: N_6  and  C_16
REMARK    4  A    between atoms: C_22  and  C_23
REMARK    5  A    between atoms: C_24  and  C_25
REMARK                            x       y       z     vdW  Elec       q    Type
REMARK                         _______ _______ _______ _____ _____    ______ ____
ROOT
ATOM      1  O   UNL     1     -12.974  10.002  21.776  0.00  0.00    -0.273 OA
ATOM      2  O   UNL     1     -11.583   6.953  18.556  0.00  0.00    -0.252 OA
ATOM      5  N   UNL     1     -10.959   9.120  19.101  0.00  0.00    -0.267 N 
ATOM      6  N   UNL     1     -12.575   8.169  20.331  0.00  0.00    -0.193 N 
ATOM      7  N   UNL     1      -9.332  11.448  16.733  0.00  0.00    -0.347 N 
ATOM      8  N   UNL     1     -10.547  12.996  17.794  0.00  0.00    -0.240 NA
ATOM      9  C   UNL     1     -11.239  10.115  20.123  0.00  0.00    +0.171 C 
ATOM     10  C   UNL     1     -11.625  11.478  19.520  0.00  0.00    +0.089 C 
ATOM     11  C   UNL     1      -9.935   9.359  18.071  0.00  0.00    +0.165 C 
ATOM     12  C   UNL     1     -10.733  11.770  18.369  0.00  0.00    +0.066 A 
ATOM     13  C   UNL     1      -9.997  10.797  17.728  0.00  0.00    +0.056 A 
ATOM     14  C   UNL     1     -12.374   9.438  20.869  0.00  0.00    +0.248 C 
ATOM     15  C   UNL     1     -11.714   7.954  19.250  0.00  0.00    +0.317 C 
ATOM     17  C   UNL     1      -9.697  12.769  16.813  0.00  0.00    +0.197 A 
ATOM     26  H   UNL     1      -8.692  11.042  16.063  0.00  0.00    +0.167 HD
ENDROOT
BRANCH   6  16
ATOM     16  C   UNL     1     -13.538   7.225  20.810  0.00  0.00    +0.045 A 
ATOM     18  C   UNL     1     -14.884   7.372  20.477  0.00  0.00    +0.025 A 
ATOM     19  C   UNL     1     -13.130   6.157  21.610  0.00  0.00    +0.025 A 
ATOM     20  C   UNL     1     -15.823   6.453  20.944  0.00  0.00    +0.017 A 
ATOM     21  C   UNL     1     -14.070   5.237  22.077  0.00  0.00    +0.017 A 
ATOM     22  C   UNL     1     -15.415   5.385  21.744  0.00  0.00    +0.059 A 
BRANCH  22  23
ATOM      4  O   UNL     1     -17.617   4.517  22.043  0.00  0.00    -0.245 OA
ATOM     23  C   UNL     1     -16.396   4.427  22.231  0.00  0.00    +0.339 C 
BRANCH  23   3
ATOM      3  O   UNL     1     -15.802   3.409  22.927  0.00  0.00    -0.461 OA
BRANCH   3  24
ATOM     24  C   UNL     1     -16.476   2.952  24.104  0.00  0.00    +0.229 C 
ATOM     25  C   UNL     1     -16.070   3.822  25.274  0.00  0.00    +0.048 C 
ENDBRANCH   3  24
ENDBRANCH  23   3
ENDBRANCH  22  23
ENDBRANCH   6  16
TORSDOF 4
ENDMDL
MODEL 10
REMARK VINA RESULT:      -5.9      2.891      8.572
REMARK  Name = 75536038
REMARK  5 active torsions:
REMARK  status: ('A' for Active; 'I' for Inactive)
REMARK    1  A    between atoms: O_3  and  C_23
REMARK    2  A    between atoms: O_3  and  C_24
REMARK    3  A    between atoms: N_6  and  C_16
REMARK    4  A    between atoms: C_22  and  C_23
REMARK    5  A    between atoms: C_24  and  C_25
REMARK                            x       y       z     vdW  Elec       q    Type
REMARK                         _______ _______ _______ _____ _____    ______ ____
ROOT
ATOM      1  O   UNL     1      16.957   6.279  18.754  0.00  0.00    -0.273 OA
ATOM      2  O   UNL     1      14.986   8.583  22.276  0.00  0.00    -0.252 OA
ATOM      5  N   UNL     1      14.173   7.587  20.345  0.00  0.00    -0.267 N 
ATOM      6  N   UNL     1      16.382   7.474  20.715  0.00  0.00    -0.193 N 
ATOM      7  N   UNL     1      10.980   8.528  18.735  0.00  0.00    -0.347 N 
ATOM      8  N   UNL     1      12.090   8.109  16.839  0.00  0.00    -0.240 NA
ATOM      9  C   UNL     1      14.661   6.770  19.246  0.00  0.00    +0.171 C 
ATOM     10  C   UNL     1      14.281   7.351  17.872  0.00  0.00    +0.089 C 
ATOM     11  C   UNL     1      12.742   7.906  20.474  0.00  0.00    +0.165 C 
ATOM     12  C   UNL     1      12.879   7.837  17.922  0.00  0.00    +0.066 A 
ATOM     13  C   UNL     1      12.217   8.091  19.104  0.00  0.00    +0.056 A 
ATOM     14  C   UNL     1      16.154   6.792  19.523  0.00  0.00    +0.248 C 
ATOM     15  C   UNL     1      15.180   7.966  21.236  0.00  0.00    +0.317 C 
ATOM     17  C   UNL     1      10.953   8.522  17.362  0.00  0.00    +0.197 A 
ATOM     26  H   UNL     1      10.225   8.803  19.348  0.00  0.00    +0.167 HD
ENDROOT
BRANCH   6  16
ATOM     16  C   UNL     1      17.669   7.660  21.314  0.00  0.00    +0.045 A 
ATOM     18  C   UNL     1      18.173   8.947  21.499  0.00  0.00    +0.025 A 
ATOM     19  C   UNL     1      18.420   6.553  21.710  0.00  0.00    +0.025 A 
ATOM     20  C   UNL     1      19.427   9.127  22.081  0.00  0.00    +0.017 A 
ATOM     21  C   UNL     1      19.674   6.734  22.293  0.00  0.00    +0.017 A 
ATOM     22  C   UNL     1      20.178   8.021  22.478  0.00  0.00    +0.059 A 
BRANCH  22  23
ATOM      4  O   UNL     1      22.385   8.916  22.607  0.00  0.00    -0.245 OA
ATOM     23  C   UNL     1      21.487   8.210  23.085  0.00  0.00    +0.339 C 
BRANCH  23   3
ATOM      3  O   UNL     1      21.605   7.509  24.254  0.00  0.00    -0.461 OA
BRANCH   3  24
ATOM     24  C   UNL     1      21.197   8.178  25.452  0.00  0.00    +0.229 C 
ATOM     25  C   UNL     1      20.215   7.298  26.197  0.00  0.00    +0.048 C 
ENDBRANCH   3  24
ENDBRANCH  23   3
ENDBRANCH  22  23
ENDBRANCH   6  16
TORSDOF 4
ENDMDL
