REMARK  Name = 11865833
REMARK  13 active torsions:
REMARK  status: ('A' for Active; 'I' for Inactive)
REMARK    1  A    between atoms: N_7  and  C_12
REMARK    2  A    between atoms: N_8  and  C_22
REMARK    3  A    between atoms: N_9  and  C_27
REMARK    4  A    between atoms: C_11  and  C_16
REMARK    5  A    between atoms: C_15  and  C_17
REMARK    6  A    between atoms: C_17  and  C_18
REMARK    7  A    between atoms: C_18  and  C_19
REMARK    8  A    between atoms: C_18  and  C_20
REMARK    9  A    between atoms: C_18  and  C_21
REMARK   10  A    between atoms: C_22  and  C_24
REMARK   11  A    between atoms: C_22  and  C_25
REMARK   12  A    between atoms: C_24  and  C_26
REMARK   13  A    between atoms: C_27  and  C_29
REMARK                            x       y       z     vdW  Elec       q    Type
REMARK                         _______ _______ _______ _____ _____    ______ ____
ROOT
ATOM      2  O   UNL     1      -1.338   1.632  -1.419  0.00  0.00    -0.276 OA
ATOM      6  N   UNL     1       0.065   2.075   0.368  0.00  0.00    -0.288 N 
ATOM     11  C   UNL     1       0.644   0.739   0.459  0.00  0.00    +0.182 C 
ATOM     12  C   UNL     1       1.872   0.899   1.355  0.00  0.00    +0.105 C 
ATOM     13  C   UNL     1       1.513   2.096   2.241  0.00  0.00    +0.043 C 
ATOM     14  C   UNL     1       0.681   2.987   1.328  0.00  0.00    +0.110 C 
ATOM     15  C   UNL     1      -0.836   2.429  -0.624  0.00  0.00    +0.217 C 
ENDROOT
BRANCH  12   7
ATOM      4  O   UNL     1       3.780  -1.034   0.382  0.00  0.00    -0.253 OA
ATOM      7  N   UNL     1       3.055   1.163   0.571  0.00  0.00    -0.294 N 
ATOM      9  N   UNL     1       4.980   0.694  -0.595  0.00  0.00    -0.296 N 
ATOM     23  C   UNL     1       3.925   0.164   0.142  0.00  0.00    +0.300 C 
ATOM     33  H   UNL     1       3.230   2.115   0.262  0.00  0.00    +0.151 HD
ATOM     35  H   UNL     1       5.006   1.696  -0.759  0.00  0.00    +0.151 HD
BRANCH   9  27
ATOM     27  C   UNL     1       6.029  -0.123  -1.160  0.00  0.00    +0.132 C 
BRANCH  27  29
ATOM     29  C   UNL     1       5.630  -0.546  -2.535  0.00  0.00    -0.016 C 
ATOM     32  C   UNL     1       5.518  -1.823  -2.919  0.00  0.00    +0.005 C 
ENDBRANCH  27  29
ENDBRANCH   9  27
ENDBRANCH  12   7
BRANCH  11  16
ATOM      3  O   UNL     1      -1.199   0.309   1.915  0.00  0.00    -0.274 OA
ATOM      8  N   UNL     1      -0.303  -1.450   0.681  0.00  0.00    -0.302 N 
ATOM     16  C   UNL     1      -0.393  -0.134   1.100  0.00  0.00    +0.236 C 
ATOM     34  H   UNL     1       0.458  -1.717   0.063  0.00  0.00    +0.150 HD
BRANCH   8  22
ATOM     22  C   UNL     1      -1.174  -2.496   1.168  0.00  0.00    +0.163 C 
BRANCH  22  25
ATOM      5  O   UNL     1       0.663  -3.138   2.624  0.00  0.00    -0.274 OA
ATOM     10  N   UNL     1      -1.487  -3.367   3.401  0.00  0.00    -0.328 N 
ATOM     25  C   UNL     1      -0.549  -3.041   2.444  0.00  0.00    +0.231 C 
ATOM     36  H   UNL     1      -1.203  -3.728   4.305  0.00  0.00    +0.145 HD
ATOM     37  H   UNL     1      -2.485  -3.278   3.240  0.00  0.00    +0.145 HD
ENDBRANCH  22  25
BRANCH  22  24
ATOM     24  C   UNL     1      -1.362  -3.620   0.142  0.00  0.00    +0.074 C 
BRANCH  24  26
ATOM      1  S   UNL     1      -3.728  -4.261  -1.181  0.00  0.00    -0.102 S 
ATOM     26  C   UNL     1      -2.363  -3.258  -0.930  0.00  0.00    -0.008 A 
ATOM     28  C   UNL     1      -2.346  -2.182  -1.790  0.00  0.00    +0.011 A 
ATOM     30  C   UNL     1      -3.469  -2.180  -2.666  0.00  0.00    +0.008 A 
ATOM     31  C   UNL     1      -4.302  -3.255  -2.443  0.00  0.00    +0.045 A 
ENDBRANCH  24  26
ENDBRANCH  22  24
ENDBRANCH   8  22
ENDBRANCH  11  16
BRANCH  15  17
ATOM     17  C   UNL     1      -1.198   3.892  -0.683  0.00  0.00    +0.102 C 
BRANCH  17  18
ATOM     18  C   UNL     1      -2.693   4.149  -0.427  0.00  0.00    -0.029 C 
ATOM     19  C   UNL     1      -3.010   5.654  -0.449  0.00  0.00    +0.011 C 
ATOM     20  C   UNL     1      -3.567   3.428  -1.468  0.00  0.00    +0.011 C 
ATOM     21  C   UNL     1      -3.036   3.596   0.969  0.00  0.00    +0.011 C 
ENDBRANCH  17  18
ENDBRANCH  15  17
TORSDOF 10
