REMARK  Name = 45360943
REMARK  11 active torsions:
REMARK  status: ('A' for Active; 'I' for Inactive)
REMARK    1  A    between atoms: O_3  and  C_36
REMARK    2  A    between atoms: O_3  and  C_37
REMARK    3  A    between atoms: N_4  and  C_17
REMARK    4  A    between atoms: N_5  and  C_19
REMARK    5  A    between atoms: N_7  and  C_25
REMARK    6  A    between atoms: N_9  and  C_28
REMARK    7  A    between atoms: C_14  and  C_18
REMARK    8  A    between atoms: C_17  and  C_20
REMARK    9  A    between atoms: C_18  and  C_21
REMARK   10  A    between atoms: C_21  and  C_22
REMARK   11  A    between atoms: C_28  and  C_31
REMARK                            x       y       z     vdW  Elec       q    Type
REMARK                         _______ _______ _______ _____ _____    ______ ____
ROOT
ATOM      1  O   UNL     1       2.211  -1.179  -1.460  0.00  0.00    -0.274 OA
ATOM      4  N   UNL     1       3.664   0.144   0.392  0.00  0.00    -0.283 NA
ATOM      5  N   UNL     1       0.465   1.899   0.110  0.00  0.00    -0.296 NA
ATOM      6  N   UNL     1       0.217  -0.936  -0.364  0.00  0.00    -0.312 N 
ATOM     10  C   UNL     1       1.695   1.496   0.827  0.00  0.00    +0.084 C 
ATOM     11  C   UNL     1       2.215   0.039   0.647  0.00  0.00    +0.161 C 
ATOM     12  C   UNL     1       2.937   2.327   0.454  0.00  0.00    +0.036 C 
ATOM     13  C   UNL     1       4.092   1.448   0.884  0.00  0.00    +0.087 C 
ATOM     14  C   UNL     1      -0.760   1.159   0.524  0.00  0.00    +0.074 C 
ATOM     15  C   UNL     1       1.577  -0.736  -0.503  0.00  0.00    +0.232 C 
ATOM     16  C   UNL     1      -0.570  -0.359   0.707  0.00  0.00    +0.123 C 
ATOM     19  C   UNL     1       0.246   3.351   0.221  0.00  0.00    +0.105 C 
ATOM     38  H   UNL     1      -0.265  -1.465  -1.084  0.00  0.00    +0.149 HD
ENDROOT
BRANCH   4  17
ATOM     17  C   UNL     1       4.434  -0.944   0.982  0.00  0.00    +0.159 C 
BRANCH  17  20
ATOM      7  N   UNL     1       6.413  -1.131  -0.553  0.00  0.00    -0.330 N 
ATOM      8  N   UNL     1       6.831  -0.430   1.514  0.00  0.00    -0.231 NA
ATOM     20  C   UNL     1       5.899  -0.825   0.676  0.00  0.00    +0.125 A 
ATOM     23  C   UNL     1       7.767  -0.918  -0.505  0.00  0.00    +0.069 A 
ATOM     24  C   UNL     1       8.003  -0.482   0.795  0.00  0.00    +0.089 A 
ATOM     25  C   UNL     1       5.666  -1.594  -1.701  0.00  0.00    +0.150 C 
ATOM     26  C   UNL     1       8.775  -1.067  -1.459  0.00  0.00    +0.028 A 
ATOM     27  C   UNL     1       9.316  -0.170   1.185  0.00  0.00    +0.030 A 
ATOM     29  C   UNL     1      10.076  -0.752  -1.054  0.00  0.00    +0.002 A 
ATOM     30  C   UNL     1      10.344  -0.311   0.245  0.00  0.00    +0.002 A 
ENDBRANCH  17  20
ENDBRANCH   4  17
BRANCH  14  18
ATOM     18  C   UNL     1      -1.889   1.365  -0.507  0.00  0.00    +0.029 C 
BRANCH  18  21
ATOM     21  C   UNL     1      -3.248   1.158   0.137  0.00  0.00    +0.097 C 
BRANCH  21  22
ATOM      2  O   UNL     1      -4.191   1.646  -2.039  0.00  0.00    -0.276 OA
ATOM      9  N   UNL     1      -5.617   1.164  -0.272  0.00  0.00    -0.311 N 
ATOM     22  C   UNL     1      -4.375   1.354  -0.860  0.00  0.00    +0.213 C 
ATOM     39  H   UNL     1      -5.670   0.985   0.727  0.00  0.00    +0.149 HD
BRANCH   9  28
ATOM     28  C   UNL     1      -6.850   1.296  -1.013  0.00  0.00    +0.139 C 
BRANCH  28  31
ATOM     31  C   UNL     1      -7.930   0.406  -0.469  0.00  0.00    -0.030 A 
ATOM     32  C   UNL     1      -7.899  -0.964  -0.725  0.00  0.00    +0.009 A 
ATOM     33  C   UNL     1      -8.964   0.951   0.292  0.00  0.00    +0.009 A 
ATOM     34  C   UNL     1      -8.903  -1.791  -0.219  0.00  0.00    +0.046 A 
ATOM     35  C   UNL     1      -9.968   0.125   0.797  0.00  0.00    +0.046 A 
ATOM     36  C   UNL     1      -9.938  -1.246   0.541  0.00  0.00    +0.120 A 
BRANCH  36   3
ATOM      3  O   UNL     1     -10.916  -2.052   1.035  0.00  0.00    -0.495 OA
ATOM     37  C   UNL     1     -10.823  -3.444   0.737  0.00  0.00    +0.277 C 
ENDBRANCH  36   3
ENDBRANCH  28  31
ENDBRANCH   9  28
ENDBRANCH  21  22
ENDBRANCH  18  21
ENDBRANCH  14  18
TORSDOF 8
