MODEL 1
REMARK VINA RESULT:      -7.6      0.000      0.000
REMARK  Name = 26743424
REMARK  11 active torsions:
REMARK  status: ('A' for Active; 'I' for Inactive)
REMARK    1  A    between atoms: O_5  and  C_30
REMARK    2  A    between atoms: N_7  and  C_12
REMARK    3  A    between atoms: N_8  and  C_21
REMARK    4  A    between atoms: C_10  and  C_13
REMARK    5  A    between atoms: C_16  and  C_18
REMARK    6  A    between atoms: C_17  and  C_20
REMARK    7  A    between atoms: C_19  and  C_22
REMARK    8  A    between atoms: C_22  and  C_23
REMARK    9  A    between atoms: C_23  and  C_26
REMARK   10  A    between atoms: C_26  and  C_30
REMARK   11  A    between atoms: C_29  and  C_31
REMARK                            x       y       z     vdW  Elec       q    Type
REMARK                         _______ _______ _______ _____ _____    ______ ____
ROOT
ATOM      8  N   UNL     1      20.249   6.354  21.020  0.00  0.00    -0.236 N 
ATOM      9  N   UNL     1      20.421   7.475  21.739  0.00  0.00    -0.171 NA
ATOM     13  C   UNL     1      18.318   7.361  20.854  0.00  0.00    +0.003 A 
ATOM     16  C   UNL     1      19.006   6.238  20.468  0.00  0.00    +0.046 A 
ATOM     17  C   UNL     1      19.238   8.087  21.635  0.00  0.00    +0.064 A 
ATOM     18  C   UNL     1      18.592   5.089  19.636  0.00  0.00    +0.066 C 
ATOM     20  C   UNL     1      19.031   9.382  22.307  0.00  0.00    +0.068 C 
ENDROOT
BRANCH   8  21
ATOM     21  C   UNL     1      21.298   5.441  20.898  0.00  0.00    +0.066 A 
ATOM     24  C   UNL     1      22.532   5.857  20.401  0.00  0.00    +0.028 A 
ATOM     25  C   UNL     1      21.109   4.110  21.271  0.00  0.00    +0.028 A 
ATOM     27  C   UNL     1      23.578   4.943  20.276  0.00  0.00    +0.014 A 
ATOM     28  C   UNL     1      22.155   3.196  21.147  0.00  0.00    +0.014 A 
ATOM     29  C   UNL     1      23.389   3.612  20.649  0.00  0.00    +0.055 A 
BRANCH  29  31
ATOM      1  F   UNL     1      24.130   1.338  20.719  0.00  0.00    -0.166 F 
ATOM      2  F   UNL     1      25.517   2.866  21.406  0.00  0.00    -0.166 F 
ATOM      3  F   UNL     1      25.098   2.645  19.283  0.00  0.00    -0.166 F 
ATOM     31  C   UNL     1      24.508   2.635  20.515  0.00  0.00    +0.417 C 
ENDBRANCH  29  31
ENDBRANCH   8  21
BRANCH  13  10
ATOM     10  C   UNL     1      16.894   7.734  20.515  0.00  0.00    +0.047 C 
ATOM     11  C   UNL     1      16.309   6.912  19.348  0.00  0.00    +0.039 C 
ATOM     12  C   UNL     1      14.822   6.723  19.671  0.00  0.00    +0.097 C 
ATOM     14  C   UNL     1      15.901   7.484  21.614  0.00  0.00    -0.021 C 
ATOM     15  C   UNL     1      14.773   6.938  21.148  0.00  0.00    -0.009 C 
BRANCH  12   7
ATOM      4  O   UNL     1      11.966   6.628  19.427  0.00  0.00    -0.276 OA
ATOM      7  N   UNL     1      13.986   7.700  19.025  0.00  0.00    -0.309 N 
ATOM     19  C   UNL     1      12.606   7.566  18.957  0.00  0.00    +0.213 C 
ATOM     32  H   UNL     1      14.424   8.495  18.567  0.00  0.00    +0.149 HD
BRANCH  19  22
ATOM     22  C   UNL     1      11.967   8.717  18.198  0.00  0.00    +0.096 C 
BRANCH  22  23
ATOM     23  C   UNL     1      11.084   8.270  17.035  0.00  0.00    +0.020 C 
BRANCH  23  26
ATOM     26  C   UNL     1      11.118   9.256  15.866  0.00  0.00    +0.121 C 
BRANCH  26  30
ATOM      6  O   UNL     1      13.367   8.557  15.247  0.00  0.00    -0.251 OA
ATOM     30  C   UNL     1      12.515   9.433  15.317  0.00  0.00    +0.305 C 
BRANCH  30   5
ATOM      5  O   UNL     1      12.726  10.707  14.895  0.00  0.00    -0.481 OA
ATOM     33  H   UNL     1      13.424  10.754  14.208  0.00  0.00    +0.295 HD
ENDBRANCH  30   5
ENDBRANCH  26  30
ENDBRANCH  23  26
ENDBRANCH  22  23
ENDBRANCH  19  22
ENDBRANCH  12   7
ENDBRANCH  13  10
TORSDOF 9
ENDMDL
MODEL 2
REMARK VINA RESULT:      -7.4      6.356     10.499
REMARK  Name = 26743424
REMARK  11 active torsions:
REMARK  status: ('A' for Active; 'I' for Inactive)
REMARK    1  A    between atoms: O_5  and  C_30
REMARK    2  A    between atoms: N_7  and  C_12
REMARK    3  A    between atoms: N_8  and  C_21
REMARK    4  A    between atoms: C_10  and  C_13
REMARK    5  A    between atoms: C_16  and  C_18
REMARK    6  A    between atoms: C_17  and  C_20
REMARK    7  A    between atoms: C_19  and  C_22
REMARK    8  A    between atoms: C_22  and  C_23
REMARK    9  A    between atoms: C_23  and  C_26
REMARK   10  A    between atoms: C_26  and  C_30
REMARK   11  A    between atoms: C_29  and  C_31
REMARK                            x       y       z     vdW  Elec       q    Type
REMARK                         _______ _______ _______ _____ _____    ______ ____
ROOT
ATOM      8  N   UNL     1      17.403   7.454  20.833  0.00  0.00    -0.236 N 
ATOM      9  N   UNL     1      17.931   8.172  21.838  0.00  0.00    -0.171 NA
ATOM     13  C   UNL     1      19.454   6.714  20.959  0.00  0.00    +0.003 A 
ATOM     16  C   UNL     1      18.274   6.566  20.272  0.00  0.00    +0.046 A 
ATOM     17  C   UNL     1      19.184   7.715  21.911  0.00  0.00    +0.064 A 
ATOM     18  C   UNL     1      17.912   5.672  19.154  0.00  0.00    +0.066 C 
ATOM     20  C   UNL     1      20.101   8.273  22.921  0.00  0.00    +0.068 C 
ENDROOT
BRANCH   8  21
ATOM     21  C   UNL     1      16.075   7.662  20.457  0.00  0.00    +0.066 A 
ATOM     24  C   UNL     1      15.106   6.705  20.758  0.00  0.00    +0.028 A 
ATOM     25  C   UNL     1      15.718   8.826  19.777  0.00  0.00    +0.028 A 
ATOM     27  C   UNL     1      13.780   6.913  20.378  0.00  0.00    +0.014 A 
ATOM     28  C   UNL     1      14.392   9.034  19.398  0.00  0.00    +0.014 A 
ATOM     29  C   UNL     1      13.423   8.077  19.697  0.00  0.00    +0.055 A 
BRANCH  29  31
ATOM      1  F   UNL     1      11.623   9.608  19.328  0.00  0.00    -0.166 F 
ATOM      2  F   UNL     1      11.120   7.635  20.094  0.00  0.00    -0.166 F 
ATOM      3  F   UNL     1      11.729   7.881  18.020  0.00  0.00    -0.166 F 
ATOM     31  C   UNL     1      12.005   8.297  19.292  0.00  0.00    +0.417 C 
ENDBRANCH  29  31
ENDBRANCH   8  21
BRANCH  13  10
ATOM     10  C   UNL     1      20.749   5.966  20.742  0.00  0.00    +0.047 C 
ATOM     11  C   UNL     1      21.970   6.896  20.583  0.00  0.00    +0.039 C 
ATOM     12  C   UNL     1      23.148   6.155  21.228  0.00  0.00    +0.097 C 
ATOM     14  C   UNL     1      21.163   5.082  21.883  0.00  0.00    -0.021 C 
ATOM     15  C   UNL     1      22.471   5.185  22.140  0.00  0.00    -0.009 C 
BRANCH  12   7
ATOM      4  O   UNL     1      25.996   5.820  21.268  0.00  0.00    -0.276 OA
ATOM      7  N   UNL     1      23.937   5.427  20.270  0.00  0.00    -0.309 N 
ATOM     19  C   UNL     1      25.317   5.321  20.374  0.00  0.00    +0.213 C 
ATOM     32  H   UNL     1      23.473   5.011  19.467  0.00  0.00    +0.149 HD
BRANCH  19  22
ATOM     22  C   UNL     1      25.907   4.526  19.221  0.00  0.00    +0.096 C 
BRANCH  22  23
ATOM     23  C   UNL     1      25.517   3.050  19.229  0.00  0.00    +0.020 C 
BRANCH  23  26
ATOM     26  C   UNL     1      25.563   2.443  20.633  0.00  0.00    +0.121 C 
BRANCH  26  30
ATOM      6  O   UNL     1      24.057   1.056  21.950  0.00  0.00    -0.251 OA
ATOM     30  C   UNL     1      24.234   1.846  21.033  0.00  0.00    +0.305 C 
BRANCH  30   5
ATOM      5  O   UNL     1      23.226   2.299  20.241  0.00  0.00    -0.481 OA
ATOM     33  H   UNL     1      22.426   2.526  20.760  0.00  0.00    +0.295 HD
ENDBRANCH  30   5
ENDBRANCH  26  30
ENDBRANCH  23  26
ENDBRANCH  22  23
ENDBRANCH  19  22
ENDBRANCH  12   7
ENDBRANCH  13  10
TORSDOF 9
ENDMDL
MODEL 3
REMARK VINA RESULT:      -7.1     28.469     30.421
REMARK  Name = 26743424
REMARK  11 active torsions:
REMARK  status: ('A' for Active; 'I' for Inactive)
REMARK    1  A    between atoms: O_5  and  C_30
REMARK    2  A    between atoms: N_7  and  C_12
REMARK    3  A    between atoms: N_8  and  C_21
REMARK    4  A    between atoms: C_10  and  C_13
REMARK    5  A    between atoms: C_16  and  C_18
REMARK    6  A    between atoms: C_17  and  C_20
REMARK    7  A    between atoms: C_19  and  C_22
REMARK    8  A    between atoms: C_22  and  C_23
REMARK    9  A    between atoms: C_23  and  C_26
REMARK   10  A    between atoms: C_26  and  C_30
REMARK   11  A    between atoms: C_29  and  C_31
REMARK                            x       y       z     vdW  Elec       q    Type
REMARK                         _______ _______ _______ _____ _____    ______ ____
ROOT
ATOM      8  N   UNL     1      -4.693 -10.610  13.882  0.00  0.00    -0.236 N 
ATOM      9  N   UNL     1      -3.442 -10.471  13.412  0.00  0.00    -0.171 NA
ATOM     13  C   UNL     1      -4.988 -10.332  11.736  0.00  0.00    +0.003 A 
ATOM     16  C   UNL     1      -5.656 -10.534  12.918  0.00  0.00    +0.046 A 
ATOM     17  C   UNL     1      -3.628 -10.302  12.100  0.00  0.00    +0.064 A 
ATOM     18  C   UNL     1      -7.100 -10.661  13.203  0.00  0.00    +0.066 C 
ATOM     20  C   UNL     1      -2.461 -10.113  11.221  0.00  0.00    +0.068 C 
ENDROOT
BRANCH   8  21
ATOM     21  C   UNL     1      -4.901 -10.808  15.248  0.00  0.00    +0.066 A 
ATOM     24  C   UNL     1      -5.348  -9.756  16.046  0.00  0.00    +0.028 A 
ATOM     25  C   UNL     1      -4.658 -12.059  15.814  0.00  0.00    +0.028 A 
ATOM     27  C   UNL     1      -5.551  -9.955  17.412  0.00  0.00    +0.014 A 
ATOM     28  C   UNL     1      -4.862 -12.258  17.179  0.00  0.00    +0.014 A 
ATOM     29  C   UNL     1      -5.307 -11.206  17.978  0.00  0.00    +0.055 A 
BRANCH  29  31
ATOM      1  F   UNL     1      -4.399 -11.803  20.109  0.00  0.00    -0.166 F 
ATOM      2  F   UNL     1      -6.454 -12.385  19.696  0.00  0.00    -0.166 F 
ATOM      3  F   UNL     1      -5.966 -10.302  20.093  0.00  0.00    -0.166 F 
ATOM     31  C   UNL     1      -5.525 -11.418  19.439  0.00  0.00    +0.417 C 
ENDBRANCH  29  31
ENDBRANCH   8  21
BRANCH  13  10
ATOM     10  C   UNL     1      -5.581 -10.179  10.354  0.00  0.00    +0.047 C 
ATOM     11  C   UNL     1      -4.834  -9.149   9.481  0.00  0.00    +0.039 C 
ATOM     12  C   UNL     1      -4.902  -9.687   8.046  0.00  0.00    +0.097 C 
ATOM     14  C   UNL     1      -5.527 -11.418   9.507  0.00  0.00    -0.021 C 
ATOM     15  C   UNL     1      -5.162 -11.144   8.250  0.00  0.00    -0.009 C 
BRANCH  12   7
ATOM      4  O   UNL     1      -5.764 -10.490   5.432  0.00  0.00    -0.276 OA
ATOM      7  N   UNL     1      -5.985  -9.117   7.290  0.00  0.00    -0.309 N 
ATOM     19  C   UNL     1      -6.329  -9.576   6.026  0.00  0.00    +0.213 C 
ATOM     32  H   UNL     1      -6.490  -8.324   7.678  0.00  0.00    +0.149 HD
BRANCH  19  22
ATOM     22  C   UNL     1      -7.485  -8.785   5.438  0.00  0.00    +0.096 C 
BRANCH  22  23
ATOM     23  C   UNL     1      -8.594  -8.479   6.442  0.00  0.00    +0.020 C 
BRANCH  23  26
ATOM     26  C   UNL     1      -8.854  -6.978   6.583  0.00  0.00    +0.121 C 
BRANCH  26  30
ATOM      6  O   UNL     1      -9.243  -6.145   8.837  0.00  0.00    -0.251 OA
ATOM     30  C   UNL     1      -8.464  -6.464   7.950  0.00  0.00    +0.305 C 
BRANCH  30   5
ATOM      5  O   UNL     1      -7.114  -6.397   8.089  0.00  0.00    -0.481 OA
ATOM     33  H   UNL     1      -6.813  -5.489   8.302  0.00  0.00    +0.295 HD
ENDBRANCH  30   5
ENDBRANCH  26  30
ENDBRANCH  23  26
ENDBRANCH  22  23
ENDBRANCH  19  22
ENDBRANCH  12   7
ENDBRANCH  13  10
TORSDOF 9
ENDMDL
MODEL 4
REMARK VINA RESULT:      -7.0      1.438      2.118
REMARK  Name = 26743424
REMARK  11 active torsions:
REMARK  status: ('A' for Active; 'I' for Inactive)
REMARK    1  A    between atoms: O_5  and  C_30
REMARK    2  A    between atoms: N_7  and  C_12
REMARK    3  A    between atoms: N_8  and  C_21
REMARK    4  A    between atoms: C_10  and  C_13
REMARK    5  A    between atoms: C_16  and  C_18
REMARK    6  A    between atoms: C_17  and  C_20
REMARK    7  A    between atoms: C_19  and  C_22
REMARK    8  A    between atoms: C_22  and  C_23
REMARK    9  A    between atoms: C_23  and  C_26
REMARK   10  A    between atoms: C_26  and  C_30
REMARK   11  A    between atoms: C_29  and  C_31
REMARK                            x       y       z     vdW  Elec       q    Type
REMARK                         _______ _______ _______ _____ _____    ______ ____
ROOT
ATOM      8  N   UNL     1      21.160   5.621  21.765  0.00  0.00    -0.236 N 
ATOM      9  N   UNL     1      21.251   6.669  22.600  0.00  0.00    -0.171 NA
ATOM     13  C   UNL     1      19.357   6.773  21.326  0.00  0.00    +0.003 A 
ATOM     16  C   UNL     1      20.044   5.636  20.980  0.00  0.00    +0.046 A 
ATOM     17  C   UNL     1      20.147   7.370  22.327  0.00  0.00    +0.064 A 
ATOM     18  C   UNL     1      19.737   4.585  19.988  0.00  0.00    +0.066 C 
ATOM     20  C   UNL     1      19.885   8.622  23.059  0.00  0.00    +0.068 C 
ENDROOT
BRANCH   8  21
ATOM     21  C   UNL     1      22.160   4.648  21.765  0.00  0.00    +0.066 A 
ATOM     24  C   UNL     1      22.213   3.700  22.786  0.00  0.00    +0.028 A 
ATOM     25  C   UNL     1      23.110   4.626  20.743  0.00  0.00    +0.028 A 
ATOM     27  C   UNL     1      23.216   2.731  22.787  0.00  0.00    +0.014 A 
ATOM     28  C   UNL     1      24.113   3.656  20.744  0.00  0.00    +0.014 A 
ATOM     29  C   UNL     1      24.166   2.709  21.766  0.00  0.00    +0.055 A 
BRANCH  29  31
ATOM      1  F   UNL     1      26.354   2.038  21.070  0.00  0.00    -0.166 F 
ATOM      2  F   UNL     1      24.830   0.494  21.213  0.00  0.00    -0.166 F 
ATOM      3  F   UNL     1      25.688   1.353  23.018  0.00  0.00    -0.166 F 
ATOM     31  C   UNL     1      25.238   1.673  21.768  0.00  0.00    +0.417 C 
ENDBRANCH  29  31
ENDBRANCH   8  21
BRANCH  13  10
ATOM     10  C   UNL     1      18.049   7.271  20.758  0.00  0.00    +0.047 C 
ATOM     11  C   UNL     1      16.816   6.551  21.343  0.00  0.00    +0.039 C 
ATOM     12  C   UNL     1      15.706   7.607  21.412  0.00  0.00    +0.097 C 
ATOM     14  C   UNL     1      17.746   8.713  21.049  0.00  0.00    -0.021 C 
ATOM     15  C   UNL     1      16.468   8.891  21.399  0.00  0.00    -0.009 C 
BRANCH  12   7
ATOM      4  O   UNL     1      12.890   7.064  21.441  0.00  0.00    -0.276 OA
ATOM      7  N   UNL     1      14.831   7.567  20.271  0.00  0.00    -0.309 N 
ATOM     19  C   UNL     1      13.475   7.295  20.386  0.00  0.00    +0.213 C 
ATOM     32  H   UNL     1      15.226   7.703  19.344  0.00  0.00    +0.149 HD
BRANCH  19  22
ATOM     22  C   UNL     1      12.787   7.285  19.031  0.00  0.00    +0.096 C 
BRANCH  22  23
ATOM     23  C   UNL     1      13.402   8.255  18.024  0.00  0.00    +0.020 C 
BRANCH  23  26
ATOM     26  C   UNL     1      12.405   9.316  17.554  0.00  0.00    +0.121 C 
BRANCH  26  30
ATOM      6  O   UNL     1      10.578   8.405  16.227  0.00  0.00    -0.251 OA
ATOM     30  C   UNL     1      11.695   8.900  16.286  0.00  0.00    +0.305 C 
BRANCH  30   5
ATOM      5  O   UNL     1      12.455   9.148  15.187  0.00  0.00    -0.481 OA
ATOM     33  H   UNL     1      13.260   8.589  15.166  0.00  0.00    +0.295 HD
ENDBRANCH  30   5
ENDBRANCH  26  30
ENDBRANCH  23  26
ENDBRANCH  22  23
ENDBRANCH  19  22
ENDBRANCH  12   7
ENDBRANCH  13  10
TORSDOF 9
ENDMDL
MODEL 5
REMARK VINA RESULT:      -6.9      2.434      3.562
REMARK  Name = 26743424
REMARK  11 active torsions:
REMARK  status: ('A' for Active; 'I' for Inactive)
REMARK    1  A    between atoms: O_5  and  C_30
REMARK    2  A    between atoms: N_7  and  C_12
REMARK    3  A    between atoms: N_8  and  C_21
REMARK    4  A    between atoms: C_10  and  C_13
REMARK    5  A    between atoms: C_16  and  C_18
REMARK    6  A    between atoms: C_17  and  C_20
REMARK    7  A    between atoms: C_19  and  C_22
REMARK    8  A    between atoms: C_22  and  C_23
REMARK    9  A    between atoms: C_23  and  C_26
REMARK   10  A    between atoms: C_26  and  C_30
REMARK   11  A    between atoms: C_29  and  C_31
REMARK                            x       y       z     vdW  Elec       q    Type
REMARK                         _______ _______ _______ _____ _____    ______ ____
ROOT
ATOM      8  N   UNL     1      22.006   4.734  22.783  0.00  0.00    -0.236 N 
ATOM      9  N   UNL     1      21.860   5.584  23.813  0.00  0.00    -0.171 NA
ATOM     13  C   UNL     1      20.509   6.151  22.061  0.00  0.00    +0.003 A 
ATOM     16  C   UNL     1      21.219   5.030  21.708  0.00  0.00    +0.046 A 
ATOM     17  C   UNL     1      20.944   6.447  23.366  0.00  0.00    +0.064 A 
ATOM     18  C   UNL     1      21.215   4.234  20.464  0.00  0.00    +0.066 C 
ATOM     20  C   UNL     1      20.510   7.556  24.234  0.00  0.00    +0.068 C 
ENDROOT
BRANCH   8  21
ATOM     21  C   UNL     1      22.904   3.670  22.885  0.00  0.00    +0.066 A 
ATOM     24  C   UNL     1      24.132   3.726  22.228  0.00  0.00    +0.028 A 
ATOM     25  C   UNL     1      22.568   2.548  23.643  0.00  0.00    +0.028 A 
ATOM     27  C   UNL     1      25.025   2.660  22.328  0.00  0.00    +0.014 A 
ATOM     28  C   UNL     1      23.462   1.482  23.743  0.00  0.00    +0.014 A 
ATOM     29  C   UNL     1      24.690   1.537  23.085  0.00  0.00    +0.055 A 
BRANCH  29  31
ATOM      1  F   UNL     1      25.772  -0.320  22.037  0.00  0.00    -0.166 F 
ATOM      2  F   UNL     1      25.282  -0.507  24.147  0.00  0.00    -0.166 F 
ATOM      3  F   UNL     1      26.918   0.779  23.514  0.00  0.00    -0.166 F 
ATOM     31  C   UNL     1      25.646   0.398  23.192  0.00  0.00    +0.417 C 
ENDBRANCH  29  31
ENDBRANCH   8  21
BRANCH  13  10
ATOM     10  C   UNL     1      19.491   6.898  21.231  0.00  0.00    +0.047 C 
ATOM     11  C   UNL     1      18.033   6.545  21.593  0.00  0.00    +0.039 C 
ATOM     12  C   UNL     1      17.229   7.837  21.406  0.00  0.00    +0.097 C 
ATOM     14  C   UNL     1      19.513   8.389  21.404  0.00  0.00    -0.021 C 
ATOM     15  C   UNL     1      18.279   8.896  21.493  0.00  0.00    -0.009 C 
BRANCH  12   7
ATOM      4  O   UNL     1      14.891   6.399  20.577  0.00  0.00    -0.276 OA
ATOM      7  N   UNL     1      16.590   7.912  20.118  0.00  0.00    -0.309 N 
ATOM     19  C   UNL     1      15.457   7.174  19.810  0.00  0.00    +0.213 C 
ATOM     32  H   UNL     1      17.007   8.496  19.397  0.00  0.00    +0.149 HD
BRANCH  19  22
ATOM     22  C   UNL     1      15.002   7.415  18.380  0.00  0.00    +0.096 C 
BRANCH  22  23
ATOM     23  C   UNL     1      13.843   8.402  18.262  0.00  0.00    +0.020 C 
BRANCH  23  26
ATOM     26  C   UNL     1      12.510   7.705  17.985  0.00  0.00    +0.121 C 
BRANCH  26  30
ATOM      6  O   UNL     1      10.928   8.191  19.771  0.00  0.00    -0.251 OA
ATOM     30  C   UNL     1      11.741   7.434  19.258  0.00  0.00    +0.305 C 
BRANCH  30   5
ATOM      5  O   UNL     1      12.058   6.221  19.782  0.00  0.00    -0.481 OA
ATOM     33  H   UNL     1      13.010   6.013  19.671  0.00  0.00    +0.295 HD
ENDBRANCH  30   5
ENDBRANCH  26  30
ENDBRANCH  23  26
ENDBRANCH  22  23
ENDBRANCH  19  22
ENDBRANCH  12   7
ENDBRANCH  13  10
TORSDOF 9
ENDMDL
MODEL 6
REMARK VINA RESULT:      -6.9     29.250     30.798
REMARK  Name = 26743424
REMARK  11 active torsions:
REMARK  status: ('A' for Active; 'I' for Inactive)
REMARK    1  A    between atoms: O_5  and  C_30
REMARK    2  A    between atoms: N_7  and  C_12
REMARK    3  A    between atoms: N_8  and  C_21
REMARK    4  A    between atoms: C_10  and  C_13
REMARK    5  A    between atoms: C_16  and  C_18
REMARK    6  A    between atoms: C_17  and  C_20
REMARK    7  A    between atoms: C_19  and  C_22
REMARK    8  A    between atoms: C_22  and  C_23
REMARK    9  A    between atoms: C_23  and  C_26
REMARK   10  A    between atoms: C_26  and  C_30
REMARK   11  A    between atoms: C_29  and  C_31
REMARK                            x       y       z     vdW  Elec       q    Type
REMARK                         _______ _______ _______ _____ _____    ______ ____
ROOT
ATOM      8  N   UNL     1      -4.709 -11.806  14.055  0.00  0.00    -0.236 N 
ATOM      9  N   UNL     1      -4.022 -12.881  13.634  0.00  0.00    -0.171 NA
ATOM     13  C   UNL     1      -4.519 -11.474  11.904  0.00  0.00    +0.003 A 
ATOM     16  C   UNL     1      -5.031 -10.932  13.057  0.00  0.00    +0.046 A 
ATOM     17  C   UNL     1      -3.909 -12.673  12.319  0.00  0.00    +0.064 A 
ATOM     18  C   UNL     1      -5.786  -9.683  13.287  0.00  0.00    +0.066 C 
ATOM     20  C   UNL     1      -3.200 -13.661  11.487  0.00  0.00    +0.068 C 
ENDROOT
BRANCH   8  21
ATOM     21  C   UNL     1      -5.023 -11.672  15.408  0.00  0.00    +0.066 A 
ATOM     24  C   UNL     1      -6.261 -12.102  15.884  0.00  0.00    +0.028 A 
ATOM     25  C   UNL     1      -4.099 -11.102  16.284  0.00  0.00    +0.028 A 
ATOM     27  C   UNL     1      -6.575 -11.963  17.236  0.00  0.00    +0.014 A 
ATOM     28  C   UNL     1      -4.412 -10.964  17.635  0.00  0.00    +0.014 A 
ATOM     29  C   UNL     1      -5.650 -11.393  18.111  0.00  0.00    +0.055 A 
BRANCH  29  31
ATOM      1  F   UNL     1      -6.297  -9.965  19.918  0.00  0.00    -0.166 F 
ATOM      2  F   UNL     1      -4.960 -11.618  20.376  0.00  0.00    -0.166 F 
ATOM      3  F   UNL     1      -7.059 -11.995  19.948  0.00  0.00    -0.166 F 
ATOM     31  C   UNL     1      -5.987 -11.245  19.557  0.00  0.00    +0.417 C 
ENDBRANCH  29  31
ENDBRANCH   8  21
BRANCH  13  10
ATOM     10  C   UNL     1      -4.596 -10.909  10.505  0.00  0.00    +0.047 C 
ATOM     11  C   UNL     1      -5.879 -10.090  10.247  0.00  0.00    +0.039 C 
ATOM     12  C   UNL     1      -5.471  -8.958   9.296  0.00  0.00    +0.097 C 
ATOM     14  C   UNL     1      -3.513  -9.925  10.166  0.00  0.00    -0.021 C 
ATOM     15  C   UNL     1      -3.994  -8.867   9.503  0.00  0.00    -0.009 C 
BRANCH  12   7
ATOM      4  O   UNL     1      -7.889  -8.410   7.858  0.00  0.00    -0.276 OA
ATOM      7  N   UNL     1      -5.735  -9.270   7.917  0.00  0.00    -0.309 N 
ATOM     19  C   UNL     1      -6.942  -8.964   7.306  0.00  0.00    +0.213 C 
ATOM     32  H   UNL     1      -5.027  -9.769   7.382  0.00  0.00    +0.149 HD
BRANCH  19  22
ATOM     22  C   UNL     1      -6.972  -9.425   5.858  0.00  0.00    +0.096 C 
BRANCH  22  23
ATOM     23  C   UNL     1      -7.155  -8.288   4.855  0.00  0.00    +0.020 C 
BRANCH  23  26
ATOM     26  C   UNL     1      -8.202  -8.615   3.789  0.00  0.00    +0.121 C 
BRANCH  26  30
ATOM      6  O   UNL     1      -7.637  -8.431   1.427  0.00  0.00    -0.251 OA
ATOM     30  C   UNL     1      -7.926  -7.895   2.489  0.00  0.00    +0.305 C 
BRANCH  30   5
ATOM      5  O   UNL     1      -8.041  -6.548   2.632  0.00  0.00    -0.481 OA
ATOM     33  H   UNL     1      -8.907  -6.219   2.313  0.00  0.00    +0.295 HD
ENDBRANCH  30   5
ENDBRANCH  26  30
ENDBRANCH  23  26
ENDBRANCH  22  23
ENDBRANCH  19  22
ENDBRANCH  12   7
ENDBRANCH  13  10
TORSDOF 9
ENDMDL
MODEL 7
REMARK VINA RESULT:      -6.9      2.226      3.025
REMARK  Name = 26743424
REMARK  11 active torsions:
REMARK  status: ('A' for Active; 'I' for Inactive)
REMARK    1  A    between atoms: O_5  and  C_30
REMARK    2  A    between atoms: N_7  and  C_12
REMARK    3  A    between atoms: N_8  and  C_21
REMARK    4  A    between atoms: C_10  and  C_13
REMARK    5  A    between atoms: C_16  and  C_18
REMARK    6  A    between atoms: C_17  and  C_20
REMARK    7  A    between atoms: C_19  and  C_22
REMARK    8  A    between atoms: C_22  and  C_23
REMARK    9  A    between atoms: C_23  and  C_26
REMARK   10  A    between atoms: C_26  and  C_30
REMARK   11  A    between atoms: C_29  and  C_31
REMARK                            x       y       z     vdW  Elec       q    Type
REMARK                         _______ _______ _______ _____ _____    ______ ____
ROOT
ATOM      8  N   UNL     1      20.853   6.341  21.544  0.00  0.00    -0.236 N 
ATOM      9  N   UNL     1      21.118   7.381  22.351  0.00  0.00    -0.171 NA
ATOM     13  C   UNL     1      19.096   7.617  21.315  0.00  0.00    +0.003 A 
ATOM     16  C   UNL     1      19.654   6.434  20.900  0.00  0.00    +0.046 A 
ATOM     17  C   UNL     1      20.040   8.158  22.208  0.00  0.00    +0.064 A 
ATOM     18  C   UNL     1      19.156   5.407  19.962  0.00  0.00    +0.066 C 
ATOM     20  C   UNL     1      19.957   9.427  22.953  0.00  0.00    +0.068 C 
ENDROOT
BRANCH   8  21
ATOM     21  C   UNL     1      21.776   5.299  21.433  0.00  0.00    +0.066 A 
ATOM     24  C   UNL     1      21.692   4.198  22.284  0.00  0.00    +0.028 A 
ATOM     25  C   UNL     1      22.785   5.363  20.471  0.00  0.00    +0.028 A 
ATOM     27  C   UNL     1      22.617   3.160  22.174  0.00  0.00    +0.014 A 
ATOM     28  C   UNL     1      23.709   4.324  20.361  0.00  0.00    +0.014 A 
ATOM     29  C   UNL     1      23.626   3.224  21.213  0.00  0.00    +0.055 A 
BRANCH  29  31
ATOM      1  F   UNL     1      25.404   1.966  22.201  0.00  0.00    -0.166 F 
ATOM      2  F   UNL     1      25.477   2.285  20.051  0.00  0.00    -0.166 F 
ATOM      3  F   UNL     1      24.042   0.889  20.902  0.00  0.00    -0.166 F 
ATOM     31  C   UNL     1      24.615   2.113  21.097  0.00  0.00    +0.417 C 
ENDBRANCH  29  31
ENDBRANCH   8  21
BRANCH  13  10
ATOM     10  C   UNL     1      17.766   8.206  20.904  0.00  0.00    +0.047 C 
ATOM     11  C   UNL     1      16.560   7.336  21.317  0.00  0.00    +0.039 C 
ATOM     12  C   UNL     1      15.432   8.317  21.656  0.00  0.00    +0.097 C 
ATOM     14  C   UNL     1      17.442   9.528  21.538  0.00  0.00    -0.021 C 
ATOM     15  C   UNL     1      16.168   9.585  21.941  0.00  0.00    -0.009 C 
BRANCH  12   7
ATOM      4  O   UNL     1      13.305   6.582  20.825  0.00  0.00    -0.276 OA
ATOM      7  N   UNL     1      14.533   8.532  20.552  0.00  0.00    -0.309 N 
ATOM     19  C   UNL     1      13.530   7.631  20.227  0.00  0.00    +0.213 C 
ATOM     32  H   UNL     1      14.664   9.353  19.966  0.00  0.00    +0.149 HD
BRANCH  19  22
ATOM     22  C   UNL     1      12.746   8.081  19.005  0.00  0.00    +0.096 C 
BRANCH  22  23
ATOM     23  C   UNL     1      11.299   8.463  19.312  0.00  0.00    +0.020 C 
BRANCH  23  26
ATOM     26  C   UNL     1      11.169   9.259  20.611  0.00  0.00    +0.121 C 
BRANCH  26  30
ATOM      6  O   UNL     1      10.779   8.678  22.943  0.00  0.00    -0.251 OA
ATOM     30  C   UNL     1      10.691   8.396  21.756  0.00  0.00    +0.305 C 
BRANCH  30   5
ATOM      5  O   UNL     1      10.133   7.241  21.308  0.00  0.00    -0.481 OA
ATOM     33  H   UNL     1       9.155   7.260  21.366  0.00  0.00    +0.295 HD
ENDBRANCH  30   5
ENDBRANCH  26  30
ENDBRANCH  23  26
ENDBRANCH  22  23
ENDBRANCH  19  22
ENDBRANCH  12   7
ENDBRANCH  13  10
TORSDOF 9
ENDMDL
MODEL 8
REMARK VINA RESULT:      -6.9     29.303     30.768
REMARK  Name = 26743424
REMARK  11 active torsions:
REMARK  status: ('A' for Active; 'I' for Inactive)
REMARK    1  A    between atoms: O_5  and  C_30
REMARK    2  A    between atoms: N_7  and  C_12
REMARK    3  A    between atoms: N_8  and  C_21
REMARK    4  A    between atoms: C_10  and  C_13
REMARK    5  A    between atoms: C_16  and  C_18
REMARK    6  A    between atoms: C_17  and  C_20
REMARK    7  A    between atoms: C_19  and  C_22
REMARK    8  A    between atoms: C_22  and  C_23
REMARK    9  A    between atoms: C_23  and  C_26
REMARK   10  A    between atoms: C_26  and  C_30
REMARK   11  A    between atoms: C_29  and  C_31
REMARK                            x       y       z     vdW  Elec       q    Type
REMARK                         _______ _______ _______ _____ _____    ______ ____
ROOT
ATOM      8  N   UNL     1      -4.525 -11.854  14.171  0.00  0.00    -0.236 N 
ATOM      9  N   UNL     1      -3.828 -12.958  13.856  0.00  0.00    -0.171 NA
ATOM     13  C   UNL     1      -4.166 -11.631  12.028  0.00  0.00    +0.003 A 
ATOM     16  C   UNL     1      -4.754 -11.025  13.111  0.00  0.00    +0.046 A 
ATOM     17  C   UNL     1      -3.611 -12.817  12.546  0.00  0.00    +0.064 A 
ATOM     18  C   UNL     1      -5.500  -9.755  13.222  0.00  0.00    +0.066 C 
ATOM     20  C   UNL     1      -2.860 -13.855  11.819  0.00  0.00    +0.068 C 
ENDROOT
BRANCH   8  21
ATOM     21  C   UNL     1      -4.938 -11.648  15.488  0.00  0.00    +0.066 A 
ATOM     24  C   UNL     1      -4.123 -10.943  16.374  0.00  0.00    +0.028 A 
ATOM     25  C   UNL     1      -6.165 -12.152  15.920  0.00  0.00    +0.028 A 
ATOM     27  C   UNL     1      -4.536 -10.742  17.691  0.00  0.00    +0.014 A 
ATOM     28  C   UNL     1      -6.577 -11.951  17.237  0.00  0.00    +0.014 A 
ATOM     29  C   UNL     1      -5.762 -11.247  18.123  0.00  0.00    +0.055 A 
BRANCH  29  31
ATOM      1  F   UNL     1      -5.330 -11.526  20.459  0.00  0.00    -0.166 F 
ATOM      2  F   UNL     1      -7.402 -11.625  19.804  0.00  0.00    -0.166 F 
ATOM      3  F   UNL     1      -6.363  -9.715  19.859  0.00  0.00    -0.166 F 
ATOM     31  C   UNL     1      -6.202 -11.032  19.531  0.00  0.00    +0.417 C 
ENDBRANCH  29  31
ENDBRANCH   8  21
BRANCH  13  10
ATOM     10  C   UNL     1      -4.126 -11.134  10.602  0.00  0.00    +0.047 C 
ATOM     11  C   UNL     1      -5.515 -10.749  10.051  0.00  0.00    +0.039 C 
ATOM     12  C   UNL     1      -5.279  -9.559   9.112  0.00  0.00    +0.097 C 
ATOM     14  C   UNL     1      -3.338  -9.872  10.399  0.00  0.00    -0.021 C 
ATOM     15  C   UNL     1      -3.968  -9.020   9.583  0.00  0.00    -0.009 C 
BRANCH  12   7
ATOM      4  O   UNL     1      -7.427  -9.917   7.247  0.00  0.00    -0.276 OA
ATOM      7  N   UNL     1      -5.158  -9.955   7.734  0.00  0.00    -0.309 N 
ATOM     19  C   UNL     1      -6.262 -10.102   6.906  0.00  0.00    +0.213 C 
ATOM     32  H   UNL     1      -4.236 -10.173   7.365  0.00  0.00    +0.149 HD
BRANCH  19  22
ATOM     22  C   UNL     1      -5.861 -10.554   5.512  0.00  0.00    +0.096 C 
BRANCH  22  23
ATOM     23  C   UNL     1      -4.814 -11.666   5.505  0.00  0.00    +0.020 C 
BRANCH  23  26
ATOM     26  C   UNL     1      -4.490 -12.152   4.090  0.00  0.00    +0.121 C 
BRANCH  26  30
ATOM      6  O   UNL     1      -2.370 -13.124   4.790  0.00  0.00    -0.251 OA
ATOM     30  C   UNL     1      -3.036 -12.540   3.947  0.00  0.00    +0.305 C 
BRANCH  30   5
ATOM      5  O   UNL     1      -2.538 -12.160   2.741  0.00  0.00    -0.481 OA
ATOM     33  H   UNL     1      -2.840 -12.749   2.018  0.00  0.00    +0.295 HD
ENDBRANCH  30   5
ENDBRANCH  26  30
ENDBRANCH  23  26
ENDBRANCH  22  23
ENDBRANCH  19  22
ENDBRANCH  12   7
ENDBRANCH  13  10
TORSDOF 9
ENDMDL
MODEL 9
REMARK VINA RESULT:      -6.8     28.966     32.198
REMARK  Name = 26743424
REMARK  11 active torsions:
REMARK  status: ('A' for Active; 'I' for Inactive)
REMARK    1  A    between atoms: O_5  and  C_30
REMARK    2  A    between atoms: N_7  and  C_12
REMARK    3  A    between atoms: N_8  and  C_21
REMARK    4  A    between atoms: C_10  and  C_13
REMARK    5  A    between atoms: C_16  and  C_18
REMARK    6  A    between atoms: C_17  and  C_20
REMARK    7  A    between atoms: C_19  and  C_22
REMARK    8  A    between atoms: C_22  and  C_23
REMARK    9  A    between atoms: C_23  and  C_26
REMARK   10  A    between atoms: C_26  and  C_30
REMARK   11  A    between atoms: C_29  and  C_31
REMARK                            x       y       z     vdW  Elec       q    Type
REMARK                         _______ _______ _______ _____ _____    ______ ____
ROOT
ATOM      8  N   UNL     1      -8.956 -10.763  18.763  0.00  0.00    -0.236 N 
ATOM      9  N   UNL     1      -8.016 -10.938  19.706  0.00  0.00    -0.171 NA
ATOM     13  C   UNL     1      -7.113 -10.970  17.608  0.00  0.00    +0.003 A 
ATOM     16  C   UNL     1      -8.467 -10.774  17.489  0.00  0.00    +0.046 A 
ATOM     17  C   UNL     1      -6.892 -11.064  18.995  0.00  0.00    +0.064 A 
ATOM     18  C   UNL     1      -9.317 -10.601  16.293  0.00  0.00    +0.066 C 
ATOM     20  C   UNL     1      -5.613 -11.278  19.695  0.00  0.00    +0.068 C 
ENDROOT
BRANCH   8  21
ATOM     21  C   UNL     1     -10.289 -10.591  19.137  0.00  0.00    +0.066 A 
ATOM     24  C   UNL     1     -10.864 -11.437  20.085  0.00  0.00    +0.028 A 
ATOM     25  C   UNL     1     -11.049  -9.573  18.559  0.00  0.00    +0.028 A 
ATOM     27  C   UNL     1     -12.198 -11.267  20.454  0.00  0.00    +0.014 A 
ATOM     28  C   UNL     1     -12.382  -9.402  18.930  0.00  0.00    +0.014 A 
ATOM     29  C   UNL     1     -12.957 -10.249  19.876  0.00  0.00    +0.055 A 
BRANCH  29  31
ATOM      1  F   UNL     1     -14.617  -8.912  20.963  0.00  0.00    -0.166 F 
ATOM      2  F   UNL     1     -14.837 -11.073  21.077  0.00  0.00    -0.166 F 
ATOM      3  F   UNL     1     -15.245 -10.029  19.213  0.00  0.00    -0.166 F 
ATOM     31  C   UNL     1     -14.383 -10.067  20.273  0.00  0.00    +0.417 C 
ENDBRANCH  29  31
ENDBRANCH   8  21
BRANCH  13  10
ATOM     10  C   UNL     1      -6.092 -11.065  16.499  0.00  0.00    +0.047 C 
ATOM     11  C   UNL     1      -4.904 -10.097  16.679  0.00  0.00    +0.039 C 
ATOM     12  C   UNL     1      -3.677 -10.830  16.123  0.00  0.00    +0.097 C 
ATOM     14  C   UNL     1      -5.408 -12.397  16.387  0.00  0.00    -0.021 C 
ATOM     15  C   UNL     1      -4.094 -12.263  16.178  0.00  0.00    -0.009 C 
BRANCH  12   7
ATOM      4  O   UNL     1      -1.289 -11.458  14.666  0.00  0.00    -0.276 OA
ATOM      7  N   UNL     1      -3.389 -10.475  14.759  0.00  0.00    -0.309 N 
ATOM     19  C   UNL     1      -2.199 -10.826  14.137  0.00  0.00    +0.213 C 
ATOM     32  H   UNL     1      -4.064  -9.913  14.246  0.00  0.00    +0.149 HD
BRANCH  19  22
ATOM     22  C   UNL     1      -2.136 -10.304  12.711  0.00  0.00    +0.096 C 
BRANCH  22  23
ATOM     23  C   UNL     1      -3.485 -10.315  11.994  0.00  0.00    +0.020 C 
BRANCH  23  26
ATOM     26  C   UNL     1      -3.359  -9.955  10.512  0.00  0.00    +0.121 C 
BRANCH  26  30
ATOM      6  O   UNL     1      -5.037  -8.231  10.886  0.00  0.00    -0.251 OA
ATOM     30  C   UNL     1      -4.298  -8.837  10.122  0.00  0.00    +0.305 C 
BRANCH  30   5
ATOM      5  O   UNL     1      -4.228  -8.569   8.792  0.00  0.00    -0.481 OA
ATOM     33  H   UNL     1      -3.316  -8.674   8.446  0.00  0.00    +0.295 HD
ENDBRANCH  30   5
ENDBRANCH  26  30
ENDBRANCH  23  26
ENDBRANCH  22  23
ENDBRANCH  19  22
ENDBRANCH  12   7
ENDBRANCH  13  10
TORSDOF 9
ENDMDL
MODEL 10
REMARK VINA RESULT:      -6.7     28.838     32.461
REMARK  Name = 26743424
REMARK  11 active torsions:
REMARK  status: ('A' for Active; 'I' for Inactive)
REMARK    1  A    between atoms: O_5  and  C_30
REMARK    2  A    between atoms: N_7  and  C_12
REMARK    3  A    between atoms: N_8  and  C_21
REMARK    4  A    between atoms: C_10  and  C_13
REMARK    5  A    between atoms: C_16  and  C_18
REMARK    6  A    between atoms: C_17  and  C_20
REMARK    7  A    between atoms: C_19  and  C_22
REMARK    8  A    between atoms: C_22  and  C_23
REMARK    9  A    between atoms: C_23  and  C_26
REMARK   10  A    between atoms: C_26  and  C_30
REMARK   11  A    between atoms: C_29  and  C_31
REMARK                            x       y       z     vdW  Elec       q    Type
REMARK                         _______ _______ _______ _____ _____    ______ ____
ROOT
ATOM      8  N   UNL     1      -6.440  -8.730   8.560  0.00  0.00    -0.236 N 
ATOM      9  N   UNL     1      -7.263  -7.731   8.922  0.00  0.00    -0.171 NA
ATOM     13  C   UNL     1      -7.747  -8.500   6.826  0.00  0.00    +0.003 A 
ATOM     16  C   UNL     1      -6.688  -9.225   7.314  0.00  0.00    +0.046 A 
ATOM     17  C   UNL     1      -8.059  -7.595   7.859  0.00  0.00    +0.064 A 
ATOM     18  C   UNL     1      -5.908 -10.324   6.708  0.00  0.00    +0.066 C 
ATOM     20  C   UNL     1      -9.119  -6.572   7.874  0.00  0.00    +0.068 C 
ENDROOT
BRANCH   8  21
ATOM     21  C   UNL     1      -5.447  -9.162   9.442  0.00  0.00    +0.066 A 
ATOM     24  C   UNL     1      -5.777  -9.990  10.514  0.00  0.00    +0.028 A 
ATOM     25  C   UNL     1      -4.125  -8.760   9.251  0.00  0.00    +0.028 A 
ATOM     27  C   UNL     1      -4.785 -10.417  11.396  0.00  0.00    +0.014 A 
ATOM     28  C   UNL     1      -3.132  -9.189  10.133  0.00  0.00    +0.014 A 
ATOM     29  C   UNL     1      -3.462 -10.016  11.205  0.00  0.00    +0.055 A 
BRANCH  29  31
ATOM      1  F   UNL     1      -2.079 -11.793  12.011  0.00  0.00    -0.166 F 
ATOM      2  F   UNL     1      -2.761 -10.319  13.458  0.00  0.00    -0.166 F 
ATOM      3  F   UNL     1      -1.220  -9.801  12.012  0.00  0.00    -0.166 F 
ATOM     31  C   UNL     1      -2.402 -10.473  12.149  0.00  0.00    +0.417 C 
ENDBRANCH  29  31
ENDBRANCH   8  21
BRANCH  13  10
ATOM     10  C   UNL     1      -8.423  -8.642   5.482  0.00  0.00    +0.047 C 
ATOM     11  C   UNL     1      -7.504  -8.282   4.296  0.00  0.00    +0.039 C 
ATOM     12  C   UNL     1      -7.904  -9.224   3.154  0.00  0.00    +0.097 C 
ATOM     14  C   UNL     1      -8.855 -10.040   5.142  0.00  0.00    -0.021 C 
ATOM     15  C   UNL     1      -8.574 -10.349   3.871  0.00  0.00    -0.009 C 
BRANCH  12   7
ATOM      4  O   UNL     1      -8.089  -9.714   0.335  0.00  0.00    -0.276 OA
ATOM      7  N   UNL     1      -8.840  -8.623   2.241  0.00  0.00    -0.309 N 
ATOM     19  C   UNL     1      -8.852  -8.925   0.887  0.00  0.00    +0.213 C 
ATOM     32  H   UNL     1      -9.489  -7.924   2.593  0.00  0.00    +0.149 HD
BRANCH  19  22
ATOM     22  C   UNL     1      -9.917  -8.135   0.145  0.00  0.00    +0.096 C 
BRANCH  22  23
ATOM     23  C   UNL     1     -10.838  -7.334   1.063  0.00  0.00    +0.020 C 
BRANCH  23  26
ATOM     26  C   UNL     1     -11.723  -6.355   0.289  0.00  0.00    +0.121 C 
BRANCH  26  30
ATOM      6  O   UNL     1     -11.396  -4.068  -0.481  0.00  0.00    -0.251 OA
ATOM     30  C   UNL     1     -11.186  -4.943   0.348  0.00  0.00    +0.305 C 
BRANCH  30   5
ATOM      5  O   UNL     1     -10.426  -4.746   1.457  0.00  0.00    -0.481 OA
ATOM     33  H   UNL     1      -9.647  -4.181   1.271  0.00  0.00    +0.295 HD
ENDBRANCH  30   5
ENDBRANCH  26  30
ENDBRANCH  23  26
ENDBRANCH  22  23
ENDBRANCH  19  22
ENDBRANCH  12   7
ENDBRANCH  13  10
TORSDOF 9
ENDMDL
