MODEL 1
REMARK VINA RESULT:      -7.9      0.000      0.000
REMARK  Name = 11885145
REMARK  3 active torsions:
REMARK  status: ('A' for Active; 'I' for Inactive)
REMARK    1  A    between atoms: C_15  and  C_18
REMARK    2  A    between atoms: C_16  and  C_19
REMARK    3  A    between atoms: C_29  and  C_34
REMARK                            x       y       z     vdW  Elec       q    Type
REMARK                         _______ _______ _______ _____ _____    ______ ____
ROOT
ATOM      1  O   UNL     1     -12.442  10.454  20.325  0.00  0.00    -0.267 OA
ATOM      2  O   UNL     1     -14.197  12.408  16.011  0.00  0.00    -0.270 OA
ATOM      3  N   UNL     1     -11.907  12.214  15.714  0.00  0.00    -0.297 N 
ATOM      4  N   UNL     1     -11.119  10.845  18.445  0.00  0.00    -0.311 N 
ATOM      6  C   UNL     1     -10.606  13.205  17.589  0.00  0.00    +0.027 C 
ATOM      7  C   UNL     1      -9.721  11.247  16.388  0.00  0.00    +0.054 C 
ATOM      8  C   UNL     1      -9.333  12.575  17.033  0.00  0.00    +0.018 C 
ATOM      9  C   UNL     1     -11.623  13.443  16.456  0.00  0.00    +0.113 C 
ATOM     10  C   UNL     1     -11.168  12.295  18.688  0.00  0.00    +0.130 C 
ATOM     11  C   UNL     1     -10.711  11.501  15.231  0.00  0.00    +0.117 C 
ATOM     12  C   UNL     1     -10.357  10.313  17.401  0.00  0.00    +0.027 A 
ATOM     13  C   UNL     1     -10.227   8.983  17.271  0.00  0.00    +0.022 A 
ATOM     14  C   UNL     1     -11.789  10.024  19.373  0.00  0.00    +0.259 A 
ATOM     15  C   UNL     1     -13.235  11.767  15.586  0.00  0.00    +0.247 C 
ATOM     16  C   UNL     1     -11.664   8.539  19.172  0.00  0.00    +0.047 A 
ATOM     17  C   UNL     1     -10.896   8.086  18.169  0.00  0.00    +0.015 A 
ENDROOT
BRANCH  16  19
ATOM     19  C   UNL     1     -12.376   7.589  20.043  0.00  0.00    -0.012 A 
ATOM     22  C   UNL     1     -13.772   7.549  20.039  0.00  0.00    +0.017 A 
ATOM     23  C   UNL     1     -11.659   6.729  20.870  0.00  0.00    +0.009 A 
ATOM     24  C   UNL     1     -14.466   6.650  20.864  0.00  0.00    -0.017 A 
ATOM     25  C   UNL     1     -12.332   5.828  21.696  0.00  0.00    +0.009 A 
ATOM     26  C   UNL     1     -13.736   5.776  21.704  0.00  0.00    -0.018 A 
ATOM     30  C   UNL     1     -15.870   6.597  20.873  0.00  0.00    +0.008 A 
ATOM     31  C   UNL     1     -14.431   4.876  22.529  0.00  0.00    +0.008 A 
ATOM     32  C   UNL     1     -16.543   5.697  21.698  0.00  0.00    +0.001 A 
ATOM     33  C   UNL     1     -15.825   4.838  22.525  0.00  0.00    +0.001 A 
ENDBRANCH  16  19
BRANCH  15  18
ATOM     18  C   UNL     1     -13.443  10.476  14.945  0.00  0.00    +0.037 A 
ATOM     20  C   UNL     1     -13.551  10.398  13.559  0.00  0.00    +0.014 A 
ATOM     21  C   UNL     1     -13.530   9.323  15.722  0.00  0.00    +0.014 A 
ATOM     27  C   UNL     1     -13.750   9.161  12.946  0.00  0.00    +0.019 A 
ATOM     28  C   UNL     1     -13.728   8.087  15.110  0.00  0.00    +0.019 A 
ATOM     29  C   UNL     1     -13.838   8.005  13.722  0.00  0.00    +0.052 A 
BRANCH  29  34
ATOM      5  N   UNL     1     -14.211   5.706  12.586  0.00  0.00    -0.191 NA
ATOM     34  C   UNL     1     -14.044   6.738  13.095  0.00  0.00    +0.099 C 
ENDBRANCH  29  34
ENDBRANCH  15  18
TORSDOF 3
ENDMDL
MODEL 2
REMARK VINA RESULT:      -7.3     18.424     21.531
REMARK  Name = 11885145
REMARK  3 active torsions:
REMARK  status: ('A' for Active; 'I' for Inactive)
REMARK    1  A    between atoms: C_15  and  C_18
REMARK    2  A    between atoms: C_16  and  C_19
REMARK    3  A    between atoms: C_29  and  C_34
REMARK                            x       y       z     vdW  Elec       q    Type
REMARK                         _______ _______ _______ _____ _____    ______ ____
ROOT
ATOM      1  O   UNL     1      -5.935 -12.898  15.002  0.00  0.00    -0.267 OA
ATOM      2  O   UNL     1     -10.857 -12.810  16.132  0.00  0.00    -0.270 OA
ATOM      3  N   UNL     1      -9.771 -12.076  18.043  0.00  0.00    -0.297 N 
ATOM      4  N   UNL     1      -6.791 -12.079  17.011  0.00  0.00    -0.311 N 
ATOM      6  C   UNL     1      -7.925 -13.590  18.742  0.00  0.00    +0.027 C 
ATOM      7  C   UNL     1      -7.746 -11.170  19.157  0.00  0.00    +0.054 C 
ATOM      8  C   UNL     1      -7.457 -12.547  19.752  0.00  0.00    +0.018 C 
ATOM      9  C   UNL     1      -9.434 -13.434  18.472  0.00  0.00    +0.113 C 
ATOM     10  C   UNL     1      -7.092 -13.446  17.463  0.00  0.00    +0.130 C 
ATOM     11  C   UNL     1      -9.263 -11.012  18.927  0.00  0.00    +0.117 C 
ATOM     12  C   UNL     1      -7.012 -10.978  17.843  0.00  0.00    +0.027 A 
ATOM     13  C   UNL     1      -6.618  -9.754  17.460  0.00  0.00    +0.022 A 
ATOM     14  C   UNL     1      -6.177 -11.949  15.750  0.00  0.00    +0.259 A 
ATOM     15  C   UNL     1     -10.455 -11.878  16.830  0.00  0.00    +0.247 C 
ATOM     16  C   UNL     1      -5.791 -10.558  15.328  0.00  0.00    +0.047 A 
ATOM     17  C   UNL     1      -6.003  -9.544  16.181  0.00  0.00    +0.015 A 
ENDROOT
BRANCH  16  19
ATOM     19  C   UNL     1      -5.204 -10.298  14.003  0.00  0.00    -0.012 A 
ATOM     22  C   UNL     1      -5.965  -9.676  13.011  0.00  0.00    +0.017 A 
ATOM     23  C   UNL     1      -3.890 -10.672  13.738  0.00  0.00    +0.009 A 
ATOM     24  C   UNL     1      -5.419  -9.421  11.743  0.00  0.00    -0.017 A 
ATOM     25  C   UNL     1      -3.331 -10.426  12.483  0.00  0.00    +0.009 A 
ATOM     26  C   UNL     1      -4.083  -9.801  11.475  0.00  0.00    -0.018 A 
ATOM     30  C   UNL     1      -6.172  -8.797  10.734  0.00  0.00    +0.008 A 
ATOM     31  C   UNL     1      -3.538  -9.547  10.205  0.00  0.00    +0.008 A 
ATOM     32  C   UNL     1      -5.614  -8.551   9.480  0.00  0.00    +0.001 A 
ATOM     33  C   UNL     1      -4.300  -8.926   9.216  0.00  0.00    +0.001 A 
ENDBRANCH  16  19
BRANCH  15  18
ATOM     18  C   UNL     1     -10.653 -10.502  16.396  0.00  0.00    +0.037 A 
ATOM     20  C   UNL     1      -9.738  -9.909  15.529  0.00  0.00    +0.014 A 
ATOM     21  C   UNL     1     -11.758  -9.785  16.849  0.00  0.00    +0.014 A 
ATOM     27  C   UNL     1      -9.929  -8.591  15.114  0.00  0.00    +0.019 A 
ATOM     28  C   UNL     1     -11.949  -8.468  16.432  0.00  0.00    +0.019 A 
ATOM     29  C   UNL     1     -11.034  -7.871  15.566  0.00  0.00    +0.052 A 
BRANCH  29  34
ATOM      5  N   UNL     1     -11.388  -5.422  14.796  0.00  0.00    -0.191 NA
ATOM     34  C   UNL     1     -11.229  -6.520  15.141  0.00  0.00    +0.099 C 
ENDBRANCH  29  34
ENDBRANCH  15  18
TORSDOF 3
ENDMDL
MODEL 3
REMARK VINA RESULT:      -7.2     29.800     31.701
REMARK  Name = 11885145
REMARK  3 active torsions:
REMARK  status: ('A' for Active; 'I' for Inactive)
REMARK    1  A    between atoms: C_15  and  C_18
REMARK    2  A    between atoms: C_16  and  C_19
REMARK    3  A    between atoms: C_29  and  C_34
REMARK                            x       y       z     vdW  Elec       q    Type
REMARK                         _______ _______ _______ _____ _____    ______ ____
ROOT
ATOM      1  O   UNL     1       9.587  -9.738  32.108  0.00  0.00    -0.267 OA
ATOM      2  O   UNL     1       8.780  -8.982  37.036  0.00  0.00    -0.270 OA
ATOM      3  N   UNL     1       8.279  -6.964  36.011  0.00  0.00    -0.297 N 
ATOM      4  N   UNL     1       8.708  -7.767  32.991  0.00  0.00    -0.311 N 
ATOM      6  C   UNL     1      10.078  -6.192  34.477  0.00  0.00    +0.027 C 
ATOM      7  C   UNL     1       7.727  -5.663  33.969  0.00  0.00    +0.054 C 
ATOM      8  C   UNL     1       9.149  -5.107  33.941  0.00  0.00    +0.018 C 
ATOM      9  C   UNL     1       9.685  -6.568  35.918  0.00  0.00    +0.113 C 
ATOM     10  C   UNL     1      10.025  -7.397  33.530  0.00  0.00    +0.130 C 
ATOM     11  C   UNL     1       7.332  -6.001  35.422  0.00  0.00    +0.117 C 
ATOM     12  C   UNL     1       7.611  -6.909  33.111  0.00  0.00    +0.027 A 
ATOM     13  C   UNL     1       6.450  -7.209  32.507  0.00  0.00    +0.022 A 
ATOM     14  C   UNL     1       8.636  -8.972  32.265  0.00  0.00    +0.259 A 
ATOM     15  C   UNL     1       7.942  -8.217  36.556  0.00  0.00    +0.247 C 
ATOM     16  C   UNL     1       7.308  -9.304  31.640  0.00  0.00    +0.047 A 
ATOM     17  C   UNL     1       6.299  -8.428  31.766  0.00  0.00    +0.015 A 
ENDROOT
BRANCH  16  19
ATOM     19  C   UNL     1       7.102 -10.569  30.915  0.00  0.00    -0.012 A 
ATOM     22  C   UNL     1       6.199 -11.516  31.404  0.00  0.00    +0.017 A 
ATOM     23  C   UNL     1       7.806 -10.822  29.741  0.00  0.00    +0.009 A 
ATOM     24  C   UNL     1       5.992 -12.727  30.724  0.00  0.00    -0.017 A 
ATOM     25  C   UNL     1       7.611 -12.019  29.052  0.00  0.00    +0.009 A 
ATOM     26  C   UNL     1       6.707 -12.982  29.531  0.00  0.00    -0.018 A 
ATOM     30  C   UNL     1       5.088 -13.690  31.203  0.00  0.00    +0.008 A 
ATOM     31  C   UNL     1       6.499 -14.194  28.851  0.00  0.00    +0.008 A 
ATOM     32  C   UNL     1       4.894 -14.887  30.515  0.00  0.00    +0.001 A 
ATOM     33  C   UNL     1       5.599 -15.139  29.341  0.00  0.00    +0.001 A 
ENDBRANCH  16  19
BRANCH  15  18
ATOM     18  C   UNL     1       6.539  -8.606  36.509  0.00  0.00    +0.037 A 
ATOM     20  C   UNL     1       6.057  -9.335  35.424  0.00  0.00    +0.014 A 
ATOM     21  C   UNL     1       5.686  -8.250  37.551  0.00  0.00    +0.014 A 
ATOM     27  C   UNL     1       4.714  -9.708  35.380  0.00  0.00    +0.019 A 
ATOM     28  C   UNL     1       4.343  -8.624  37.507  0.00  0.00    +0.019 A 
ATOM     29  C   UNL     1       3.857  -9.353  36.422  0.00  0.00    +0.052 A 
BRANCH  29  34
ATOM      5  N   UNL     1       1.361 -10.043  36.339  0.00  0.00    -0.191 NA
ATOM     34  C   UNL     1       2.481  -9.733  36.375  0.00  0.00    +0.099 C 
ENDBRANCH  29  34
ENDBRANCH  15  18
TORSDOF 3
ENDMDL
MODEL 4
REMARK VINA RESULT:      -6.9     32.511     35.120
REMARK  Name = 11885145
REMARK  3 active torsions:
REMARK  status: ('A' for Active; 'I' for Inactive)
REMARK    1  A    between atoms: C_15  and  C_18
REMARK    2  A    between atoms: C_16  and  C_19
REMARK    3  A    between atoms: C_29  and  C_34
REMARK                            x       y       z     vdW  Elec       q    Type
REMARK                         _______ _______ _______ _____ _____    ______ ____
ROOT
ATOM      1  O   UNL     1      15.667  -7.703  26.010  0.00  0.00    -0.267 OA
ATOM      2  O   UNL     1      12.791  -6.871  30.078  0.00  0.00    -0.270 OA
ATOM      3  N   UNL     1      14.647  -8.021  30.857  0.00  0.00    -0.297 N 
ATOM      4  N   UNL     1      16.304  -8.254  28.184  0.00  0.00    -0.311 N 
ATOM      6  C   UNL     1      15.125 -10.079  29.544  0.00  0.00    +0.027 C 
ATOM      7  C   UNL     1      16.981  -8.808  30.546  0.00  0.00    +0.054 C 
ATOM      8  C   UNL     1      16.467 -10.217  30.257  0.00  0.00    +0.018 C 
ATOM      9  C   UNL     1      14.122  -9.320  30.434  0.00  0.00    +0.113 C 
ATOM     10  C   UNL     1      15.352  -9.375  28.200  0.00  0.00    +0.130 C 
ATOM     11  C   UNL     1      15.986  -8.072  31.469  0.00  0.00    +0.117 C 
ATOM     12  C   UNL     1      17.160  -8.019  29.264  0.00  0.00    +0.027 A 
ATOM     13  C   UNL     1      18.104  -7.068  29.180  0.00  0.00    +0.022 A 
ATOM     14  C   UNL     1      16.380  -7.504  26.995  0.00  0.00    +0.259 A 
ATOM     15  C   UNL     1      13.910  -6.852  30.593  0.00  0.00    +0.247 C 
ATOM     16  C   UNL     1      17.416  -6.414  26.950  0.00  0.00    +0.047 A 
ATOM     17  C   UNL     1      18.228  -6.253  28.006  0.00  0.00    +0.015 A 
ENDROOT
BRANCH  16  19
ATOM     19  C   UNL     1      17.537  -5.525  25.782  0.00  0.00    -0.012 A 
ATOM     22  C   UNL     1      17.143  -4.189  25.876  0.00  0.00    +0.017 A 
ATOM     23  C   UNL     1      18.047  -6.016  24.583  0.00  0.00    +0.009 A 
ATOM     24  C   UNL     1      17.252  -3.330  24.771  0.00  0.00    -0.017 A 
ATOM     25  C   UNL     1      18.164  -5.176  23.476  0.00  0.00    +0.009 A 
ATOM     26  C   UNL     1      17.771  -3.830  23.554  0.00  0.00    -0.018 A 
ATOM     30  C   UNL     1      16.859  -1.984  24.849  0.00  0.00    +0.008 A 
ATOM     31  C   UNL     1      17.880  -2.969  22.449  0.00  0.00    +0.008 A 
ATOM     32  C   UNL     1      16.976  -1.143  23.742  0.00  0.00    +0.001 A 
ATOM     33  C   UNL     1      17.485  -1.636  22.544  0.00  0.00    +0.001 A 
ENDBRANCH  16  19
BRANCH  15  18
ATOM     18  C   UNL     1      14.539  -5.581  30.926  0.00  0.00    +0.037 A 
ATOM     20  C   UNL     1      14.209  -4.934  32.114  0.00  0.00    +0.014 A 
ATOM     21  C   UNL     1      15.469  -5.019  30.055  0.00  0.00    +0.014 A 
ATOM     27  C   UNL     1      14.811  -3.716  32.433  0.00  0.00    +0.019 A 
ATOM     28  C   UNL     1      16.072  -3.803  30.374  0.00  0.00    +0.019 A 
ATOM     29  C   UNL     1      15.743  -3.152  31.562  0.00  0.00    +0.052 A 
BRANCH  29  34
ATOM      5  N   UNL     1      16.861  -0.889  32.153  0.00  0.00    -0.191 NA
ATOM     34  C   UNL     1      16.359  -1.904  31.887  0.00  0.00    +0.099 C 
ENDBRANCH  29  34
ENDBRANCH  15  18
TORSDOF 3
ENDMDL
MODEL 5
REMARK VINA RESULT:      -6.9     25.390     28.812
REMARK  Name = 11885145
REMARK  3 active torsions:
REMARK  status: ('A' for Active; 'I' for Inactive)
REMARK    1  A    between atoms: C_15  and  C_18
REMARK    2  A    between atoms: C_16  and  C_19
REMARK    3  A    between atoms: C_29  and  C_34
REMARK                            x       y       z     vdW  Elec       q    Type
REMARK                         _______ _______ _______ _____ _____    ______ ____
ROOT
ATOM      1  O   UNL     1      12.890   7.600   3.500  0.00  0.00    -0.267 OA
ATOM      2  O   UNL     1       8.995  10.372   5.133  0.00  0.00    -0.270 OA
ATOM      3  N   UNL     1       8.790   8.325   6.202  0.00  0.00    -0.297 N 
ATOM      4  N   UNL     1      11.390   6.892   5.139  0.00  0.00    -0.311 N 
ATOM      6  C   UNL     1       8.927   6.401   4.631  0.00  0.00    +0.027 C 
ATOM      7  C   UNL     1       9.775   6.166   6.930  0.00  0.00    +0.054 C 
ATOM      8  C   UNL     1       9.019   5.445   5.817  0.00  0.00    +0.018 C 
ATOM      9  C   UNL     1       8.178   7.685   5.036  0.00  0.00    +0.113 C 
ATOM     10  C   UNL     1      10.344   6.694   4.124  0.00  0.00    +0.130 C 
ATOM     11  C   UNL     1       8.997   7.429   7.353  0.00  0.00    +0.117 C 
ATOM     12  C   UNL     1      11.169   6.559   6.478  0.00  0.00    +0.027 A 
ATOM     13  C   UNL     1      12.174   6.631   7.365  0.00  0.00    +0.022 A 
ATOM     14  C   UNL     1      12.646   7.330   4.677  0.00  0.00    +0.259 A 
ATOM     15  C   UNL     1       9.197   9.669   6.125  0.00  0.00    +0.247 C 
ATOM     16  C   UNL     1      13.739   7.446   5.704  0.00  0.00    +0.047 A 
ATOM     17  C   UNL     1      13.476   7.086   6.969  0.00  0.00    +0.015 A 
ENDROOT
BRANCH  16  19
ATOM     19  C   UNL     1      15.073   7.958   5.344  0.00  0.00    -0.012 A 
ATOM     22  C   UNL     1      15.593   9.075   6.000  0.00  0.00    +0.017 A 
ATOM     23  C   UNL     1      15.816   7.327   4.350  0.00  0.00    +0.009 A 
ATOM     24  C   UNL     1      16.862   9.575   5.668  0.00  0.00    -0.017 A 
ATOM     25  C   UNL     1      17.079   7.809   4.008  0.00  0.00    +0.009 A 
ATOM     26  C   UNL     1      17.617   8.932   4.659  0.00  0.00    -0.018 A 
ATOM     30  C   UNL     1      17.400  10.698   6.318  0.00  0.00    +0.008 A 
ATOM     31  C   UNL     1      18.887   9.433   4.327  0.00  0.00    +0.008 A 
ATOM     32  C   UNL     1      18.663  11.181   5.976  0.00  0.00    +0.001 A 
ATOM     33  C   UNL     1      19.405  10.549   4.982  0.00  0.00    +0.001 A 
ENDBRANCH  16  19
BRANCH  15  18
ATOM     18  C   UNL     1       9.910  10.214   7.272  0.00  0.00    +0.037 A 
ATOM     20  C   UNL     1       9.198  10.709   8.362  0.00  0.00    +0.014 A 
ATOM     21  C   UNL     1      11.303  10.236   7.275  0.00  0.00    +0.014 A 
ATOM     27  C   UNL     1       9.881  11.231   9.460  0.00  0.00    +0.019 A 
ATOM     28  C   UNL     1      11.986  10.756   8.373  0.00  0.00    +0.019 A 
ATOM     29  C   UNL     1      11.276  11.253   9.465  0.00  0.00    +0.052 A 
BRANCH  29  34
ATOM      5  N   UNL     1      12.548  12.226  11.504  0.00  0.00    -0.191 NA
ATOM     34  C   UNL     1      11.977  11.789  10.590  0.00  0.00    +0.099 C 
ENDBRANCH  29  34
ENDBRANCH  15  18
TORSDOF 3
ENDMDL
MODEL 6
REMARK VINA RESULT:      -6.8     26.951     29.535
REMARK  Name = 11885145
REMARK  3 active torsions:
REMARK  status: ('A' for Active; 'I' for Inactive)
REMARK    1  A    between atoms: C_15  and  C_18
REMARK    2  A    between atoms: C_16  and  C_19
REMARK    3  A    between atoms: C_29  and  C_34
REMARK                            x       y       z     vdW  Elec       q    Type
REMARK                         _______ _______ _______ _____ _____    ______ ____
ROOT
ATOM      1  O   UNL     1      12.276   7.440   3.170  0.00  0.00    -0.267 OA
ATOM      2  O   UNL     1      14.169   7.027  -1.495  0.00  0.00    -0.270 OA
ATOM      3  N   UNL     1      14.097   4.865  -0.663  0.00  0.00    -0.297 N 
ATOM      4  N   UNL     1      12.751   5.404   2.138  0.00  0.00    -0.311 N 
ATOM      6  C   UNL     1      15.141   4.663   1.586  0.00  0.00    +0.027 C 
ATOM      7  C   UNL     1      13.241   3.218   0.986  0.00  0.00    +0.054 C 
ATOM      8  C   UNL     1      14.583   3.250   1.714  0.00  0.00    +0.018 C 
ATOM      9  C   UNL     1      15.334   5.030   0.102  0.00  0.00    +0.113 C 
ATOM     10  C   UNL     1      14.194   5.634   2.302  0.00  0.00    +0.130 C 
ATOM     11  C   UNL     1      13.452   3.549  -0.506  0.00  0.00    +0.117 C 
ATOM     12  C   UNL     1      12.267   4.211   1.592  0.00  0.00    +0.027 A 
ATOM     13  C   UNL     1      10.947   3.970   1.563  0.00  0.00    +0.022 A 
ATOM     14  C   UNL     1      11.889   6.392   2.651  0.00  0.00    +0.259 A 
ATOM     15  C   UNL     1      13.583   5.948  -1.399  0.00  0.00    +0.247 C 
ATOM     16  C   UNL     1      10.414   6.113   2.561  0.00  0.00    +0.047 A 
ATOM     17  C   UNL     1      10.009   4.940   2.051  0.00  0.00    +0.015 A 
ENDROOT
BRANCH  16  19
ATOM     19  C   UNL     1       9.421   7.106   3.005  0.00  0.00    -0.012 A 
ATOM     22  C   UNL     1       8.864   7.998   2.086  0.00  0.00    +0.017 A 
ATOM     23  C   UNL     1       9.037   7.156   4.342  0.00  0.00    +0.009 A 
ATOM     24  C   UNL     1       7.918   8.950   2.495  0.00  0.00    -0.017 A 
ATOM     25  C   UNL     1       8.096   8.096   4.766  0.00  0.00    +0.009 A 
ATOM     26  C   UNL     1       7.527   9.000   3.854  0.00  0.00    -0.018 A 
ATOM     30  C   UNL     1       7.349   9.855   1.583  0.00  0.00    +0.008 A 
ATOM     31  C   UNL     1       6.579   9.953   4.262  0.00  0.00    +0.008 A 
ATOM     32  C   UNL     1       6.408  10.795   2.007  0.00  0.00    +0.001 A 
ATOM     33  C   UNL     1       6.025  10.844   3.344  0.00  0.00    +0.001 A 
ENDBRANCH  16  19
BRANCH  15  18
ATOM     18  C   UNL     1      12.287   5.761  -2.038  0.00  0.00    +0.037 A 
ATOM     20  C   UNL     1      12.216   5.221  -3.320  0.00  0.00    +0.014 A 
ATOM     21  C   UNL     1      11.124   6.123  -1.363  0.00  0.00    +0.014 A 
ATOM     27  C   UNL     1      10.975   5.043  -3.931  0.00  0.00    +0.019 A 
ATOM     28  C   UNL     1       9.883   5.944  -1.973  0.00  0.00    +0.019 A 
ATOM     29  C   UNL     1       9.809   5.405  -3.257  0.00  0.00    +0.052 A 
BRANCH  29  34
ATOM      5  N   UNL     1       7.502   5.078  -4.394  0.00  0.00    -0.191 NA
ATOM     34  C   UNL     1       8.537   5.224  -3.884  0.00  0.00    +0.099 C 
ENDBRANCH  29  34
ENDBRANCH  15  18
TORSDOF 3
ENDMDL
MODEL 7
REMARK VINA RESULT:      -6.8     19.877     22.168
REMARK  Name = 11885145
REMARK  3 active torsions:
REMARK  status: ('A' for Active; 'I' for Inactive)
REMARK    1  A    between atoms: C_15  and  C_18
REMARK    2  A    between atoms: C_16  and  C_19
REMARK    3  A    between atoms: C_29  and  C_34
REMARK                            x       y       z     vdW  Elec       q    Type
REMARK                         _______ _______ _______ _____ _____    ______ ____
ROOT
ATOM      1  O   UNL     1      -5.200 -11.936  16.497  0.00  0.00    -0.267 OA
ATOM      2  O   UNL     1      -1.858 -10.054  13.210  0.00  0.00    -0.270 OA
ATOM      3  N   UNL     1      -2.466 -12.123  12.359  0.00  0.00    -0.297 N 
ATOM      4  N   UNL     1      -4.634 -12.972  14.486  0.00  0.00    -0.311 N 
ATOM      6  C   UNL     1      -2.304 -13.943  14.046  0.00  0.00    +0.027 C 
ATOM      7  C   UNL     1      -4.029 -14.051  12.293  0.00  0.00    +0.054 C 
ATOM      8  C   UNL     1      -3.031 -14.886  13.092  0.00  0.00    +0.018 C 
ATOM      9  C   UNL     1      -1.564 -12.849  13.254  0.00  0.00    +0.113 C 
ATOM     10  C   UNL     1      -3.322 -13.356  15.030  0.00  0.00    +0.130 C 
ATOM     11  C   UNL     1      -3.272 -12.983  11.475  0.00  0.00    +0.117 C 
ATOM     12  C   UNL     1      -5.030 -13.373  13.207  0.00  0.00    +0.027 A 
ATOM     13  C   UNL     1      -6.276 -13.117  12.777  0.00  0.00    +0.022 A 
ATOM     14  C   UNL     1      -5.500 -12.277  15.352  0.00  0.00    +0.259 A 
ATOM     15  C   UNL     1      -2.562 -10.722  12.450  0.00  0.00    +0.247 C 
ATOM     16  C   UNL     1      -6.873 -11.963  14.823  0.00  0.00    +0.047 A 
ATOM     17  C   UNL     1      -7.206 -12.397  13.598  0.00  0.00    +0.015 A 
ENDROOT
BRANCH  16  19
ATOM     19  C   UNL     1      -7.836 -11.182  15.618  0.00  0.00    -0.012 A 
ATOM     22  C   UNL     1      -8.787 -11.837  16.404  0.00  0.00    +0.017 A 
ATOM     23  C   UNL     1      -7.800  -9.791  15.587  0.00  0.00    +0.009 A 
ATOM     24  C   UNL     1      -9.711 -11.107  17.167  0.00  0.00    -0.017 A 
ATOM     25  C   UNL     1      -8.711  -9.050  16.339  0.00  0.00    +0.009 A 
ATOM     26  C   UNL     1      -9.673  -9.693  17.135  0.00  0.00    -0.018 A 
ATOM     30  C   UNL     1     -10.674 -11.750  17.962  0.00  0.00    +0.008 A 
ATOM     31  C   UNL     1     -10.599  -8.963  17.899  0.00  0.00    +0.008 A 
ATOM     32  C   UNL     1     -11.585 -11.009  18.715  0.00  0.00    +0.001 A 
ATOM     33  C   UNL     1     -11.548  -9.618  18.683  0.00  0.00    +0.001 A 
ENDBRANCH  16  19
BRANCH  15  18
ATOM     18  C   UNL     1      -3.565 -10.069  11.621  0.00  0.00    +0.037 A 
ATOM     20  C   UNL     1      -4.857  -9.887  12.107  0.00  0.00    +0.014 A 
ATOM     21  C   UNL     1      -3.227  -9.628  10.343  0.00  0.00    +0.014 A 
ATOM     27  C   UNL     1      -5.817  -9.261  11.312  0.00  0.00    +0.019 A 
ATOM     28  C   UNL     1      -4.186  -9.001   9.549  0.00  0.00    +0.019 A 
ATOM     29  C   UNL     1      -5.481  -8.818  10.033  0.00  0.00    +0.052 A 
BRANCH  29  34
ATOM      5  N   UNL     1      -7.266  -7.659   8.554  0.00  0.00    -0.191 NA
ATOM     34  C   UNL     1      -6.465  -8.178   9.218  0.00  0.00    +0.099 C 
ENDBRANCH  29  34
ENDBRANCH  15  18
TORSDOF 3
ENDMDL
MODEL 8
REMARK VINA RESULT:      -6.8     18.905     22.155
REMARK  Name = 11885145
REMARK  3 active torsions:
REMARK  status: ('A' for Active; 'I' for Inactive)
REMARK    1  A    between atoms: C_15  and  C_18
REMARK    2  A    between atoms: C_16  and  C_19
REMARK    3  A    between atoms: C_29  and  C_34
REMARK                            x       y       z     vdW  Elec       q    Type
REMARK                         _______ _______ _______ _____ _____    ______ ____
ROOT
ATOM      1  O   UNL     1      -6.985 -13.924  16.886  0.00  0.00    -0.267 OA
ATOM      2  O   UNL     1     -11.963 -13.293  16.306  0.00  0.00    -0.270 OA
ATOM      3  N   UNL     1     -11.555 -12.954  18.562  0.00  0.00    -0.297 N 
ATOM      4  N   UNL     1      -8.415 -13.244  18.597  0.00  0.00    -0.311 N 
ATOM      6  C   UNL     1     -10.212 -14.782  19.583  0.00  0.00    +0.027 C 
ATOM      7  C   UNL     1      -9.977 -12.479  20.419  0.00  0.00    +0.054 C 
ATOM      8  C   UNL     1     -10.038 -13.944  20.845  0.00  0.00    +0.018 C 
ATOM      9  C   UNL     1     -11.511 -14.387  18.854  0.00  0.00    +0.113 C 
ATOM     10  C   UNL     1      -8.974 -14.601  18.696  0.00  0.00    +0.130 C 
ATOM     11  C   UNL     1     -11.297 -12.085  19.724  0.00  0.00    +0.117 C 
ATOM     12  C   UNL     1      -8.815 -12.232  19.475  0.00  0.00    +0.027 A 
ATOM     13  C   UNL     1      -8.205 -11.037  19.448  0.00  0.00    +0.022 A 
ATOM     14  C   UNL     1      -7.389 -13.049  17.652  0.00  0.00    +0.259 A 
ATOM     15  C   UNL     1     -11.750 -12.517  17.239  0.00  0.00    +0.247 C 
ATOM     16  C   UNL     1      -6.758 -11.683  17.615  0.00  0.00    +0.047 A 
ATOM     17  C   UNL     1      -7.165 -10.761  18.499  0.00  0.00    +0.015 A 
ENDROOT
BRANCH  16  19
ATOM     19  C   UNL     1      -5.724 -11.349  16.621  0.00  0.00    -0.012 A 
ATOM     22  C   UNL     1      -4.395 -11.194  17.021  0.00  0.00    +0.017 A 
ATOM     23  C   UNL     1      -6.070 -11.187  15.283  0.00  0.00    +0.009 A 
ATOM     24  C   UNL     1      -3.398 -10.875  16.086  0.00  0.00    -0.017 A 
ATOM     25  C   UNL     1      -5.091 -10.871  14.340  0.00  0.00    +0.009 A 
ATOM     26  C   UNL     1      -3.750 -10.712  14.726  0.00  0.00    -0.018 A 
ATOM     30  C   UNL     1      -2.056 -10.715  16.473  0.00  0.00    +0.008 A 
ATOM     31  C   UNL     1      -2.751 -10.393  13.791  0.00  0.00    +0.008 A 
ATOM     32  C   UNL     1      -1.078 -10.399  15.530  0.00  0.00    +0.001 A 
ATOM     33  C   UNL     1      -1.425 -10.237  14.192  0.00  0.00    +0.001 A 
ENDBRANCH  16  19
BRANCH  15  18
ATOM     18  C   UNL     1     -11.661 -11.084  16.992  0.00  0.00    +0.037 A 
ATOM     20  C   UNL     1     -12.785 -10.279  17.162  0.00  0.00    +0.014 A 
ATOM     21  C   UNL     1     -10.451 -10.525  16.589  0.00  0.00    +0.014 A 
ATOM     27  C   UNL     1     -12.699  -8.907  16.925  0.00  0.00    +0.019 A 
ATOM     28  C   UNL     1     -10.364  -9.153  16.354  0.00  0.00    +0.019 A 
ATOM     29  C   UNL     1     -11.488  -8.345  16.522  0.00  0.00    +0.052 A 
BRANCH  29  34
ATOM      5  N   UNL     1     -11.327  -5.796  16.079  0.00  0.00    -0.191 NA
ATOM     34  C   UNL     1     -11.400  -6.939  16.278  0.00  0.00    +0.099 C 
ENDBRANCH  29  34
ENDBRANCH  15  18
TORSDOF 3
ENDMDL
MODEL 9
REMARK VINA RESULT:      -6.7     14.246     17.936
REMARK  Name = 11885145
REMARK  3 active torsions:
REMARK  status: ('A' for Active; 'I' for Inactive)
REMARK    1  A    between atoms: C_15  and  C_18
REMARK    2  A    between atoms: C_16  and  C_19
REMARK    3  A    between atoms: C_29  and  C_34
REMARK                            x       y       z     vdW  Elec       q    Type
REMARK                         _______ _______ _______ _____ _____    ______ ____
ROOT
ATOM      1  O   UNL     1     -12.283  -7.786   9.751  0.00  0.00    -0.267 OA
ATOM      2  O   UNL     1     -16.566  -5.282  10.698  0.00  0.00    -0.270 OA
ATOM      3  N   UNL     1     -14.951  -4.266  12.015  0.00  0.00    -0.297 N 
ATOM      4  N   UNL     1     -12.407  -5.897  11.112  0.00  0.00    -0.311 N 
ATOM      6  C   UNL     1     -13.640  -5.897  13.359  0.00  0.00    +0.027 C 
ATOM      7  C   UNL     1     -12.565  -3.835  12.550  0.00  0.00    +0.054 C 
ATOM      8  C   UNL     1     -12.659  -4.792  13.737  0.00  0.00    +0.018 C 
ATOM      9  C   UNL     1     -15.025  -5.300  13.048  0.00  0.00    +0.113 C 
ATOM     10  C   UNL     1     -13.067  -6.678  12.169  0.00  0.00    +0.130 C 
ATOM     11  C   UNL     1     -13.951  -3.215  12.272  0.00  0.00    +0.117 C 
ATOM     12  C   UNL     1     -12.075  -4.554  11.307  0.00  0.00    +0.027 A 
ATOM     13  C   UNL     1     -11.365  -3.893  10.379  0.00  0.00    +0.022 A 
ATOM     14  C   UNL     1     -12.038  -6.595   9.946  0.00  0.00    +0.259 A 
ATOM     15  C   UNL     1     -15.743  -4.378  10.858  0.00  0.00    +0.247 C 
ATOM     16  C   UNL     1     -11.285  -5.814   8.903  0.00  0.00    +0.047 A 
ATOM     17  C   UNL     1     -10.970  -4.535   9.158  0.00  0.00    +0.015 A 
ENDROOT
BRANCH  16  19
ATOM     19  C   UNL     1     -10.909  -6.425   7.617  0.00  0.00    -0.012 A 
ATOM     22  C   UNL     1      -9.572  -6.730   7.353  0.00  0.00    +0.017 A 
ATOM     23  C   UNL     1     -11.885  -6.701   6.664  0.00  0.00    +0.009 A 
ATOM     24  C   UNL     1      -9.197  -7.313   6.132  0.00  0.00    -0.017 A 
ATOM     25  C   UNL     1     -11.531  -7.281   5.446  0.00  0.00    +0.009 A 
ATOM     26  C   UNL     1     -10.190  -7.593   5.165  0.00  0.00    -0.018 A 
ATOM     30  C   UNL     1      -7.856  -7.625   5.851  0.00  0.00    +0.008 A 
ATOM     31  C   UNL     1      -9.814  -8.177   3.943  0.00  0.00    +0.008 A 
ATOM     32  C   UNL     1      -7.502  -8.205   4.633  0.00  0.00    +0.001 A 
ATOM     33  C   UNL     1      -8.479  -8.480   3.680  0.00  0.00    +0.001 A 
ENDBRANCH  16  19
BRANCH  15  18
ATOM     18  C   UNL     1     -15.536  -3.386   9.811  0.00  0.00    +0.037 A 
ATOM     20  C   UNL     1     -14.650  -3.651   8.770  0.00  0.00    +0.014 A 
ATOM     21  C   UNL     1     -16.226  -2.177   9.857  0.00  0.00    +0.014 A 
ATOM     27  C   UNL     1     -14.452  -2.700   7.769  0.00  0.00    +0.019 A 
ATOM     28  C   UNL     1     -16.029  -1.228   8.855  0.00  0.00    +0.019 A 
ATOM     29  C   UNL     1     -15.142  -1.489   7.811  0.00  0.00    +0.052 A 
BRANCH  29  34
ATOM      5  N   UNL     1     -14.772   0.279   5.953  0.00  0.00    -0.191 NA
ATOM     34  C   UNL     1     -14.938  -0.514   6.786  0.00  0.00    +0.099 C 
ENDBRANCH  29  34
ENDBRANCH  15  18
TORSDOF 3
ENDMDL
MODEL 10
REMARK VINA RESULT:      -6.7     16.599     20.212
REMARK  Name = 11885145
REMARK  3 active torsions:
REMARK  status: ('A' for Active; 'I' for Inactive)
REMARK    1  A    between atoms: C_15  and  C_18
REMARK    2  A    between atoms: C_16  and  C_19
REMARK    3  A    between atoms: C_29  and  C_34
REMARK                            x       y       z     vdW  Elec       q    Type
REMARK                         _______ _______ _______ _____ _____    ______ ____
ROOT
ATOM      1  O   UNL     1     -11.858  -6.730   6.962  0.00  0.00    -0.267 OA
ATOM      2  O   UNL     1     -10.087 -11.446   7.336  0.00  0.00    -0.270 OA
ATOM      3  N   UNL     1      -8.471 -10.270   6.162  0.00  0.00    -0.297 N 
ATOM      4  N   UNL     1      -9.746  -7.386   6.222  0.00  0.00    -0.311 N 
ATOM      6  C   UNL     1      -9.413  -8.988   4.250  0.00  0.00    +0.027 C 
ATOM      7  C   UNL     1      -7.458  -8.114   5.463  0.00  0.00    +0.054 C 
ATOM      8  C   UNL     1      -8.077  -8.272   4.077  0.00  0.00    +0.018 C 
ATOM      9  C   UNL     1      -9.200 -10.369   4.897  0.00  0.00    +0.113 C 
ATOM     10  C   UNL     1     -10.344  -8.097   5.083  0.00  0.00    +0.130 C 
ATOM     11  C   UNL     1      -7.214  -9.505   6.085  0.00  0.00    +0.117 C 
ATOM     12  C   UNL     1      -8.359  -7.303   6.375  0.00  0.00    +0.027 A 
ATOM     13  C   UNL     1      -7.832  -6.547   7.351  0.00  0.00    +0.022 A 
ATOM     14  C   UNL     1     -10.633  -6.710   7.083  0.00  0.00    +0.259 A 
ATOM     15  C   UNL     1      -9.029 -10.814   7.334  0.00  0.00    +0.247 C 
ATOM     16  C   UNL     1     -10.013  -5.911   8.197  0.00  0.00    +0.047 A 
ATOM     17  C   UNL     1      -8.675  -5.846   8.277  0.00  0.00    +0.015 A 
ENDROOT
BRANCH  16  19
ATOM     19  C   UNL     1     -10.847  -5.219   9.195  0.00  0.00    -0.012 A 
ATOM     22  C   UNL     1     -11.582  -5.958  10.123  0.00  0.00    +0.017 A 
ATOM     23  C   UNL     1     -10.901  -3.829   9.214  0.00  0.00    +0.009 A 
ATOM     24  C   UNL     1     -12.382  -5.314  11.080  0.00  0.00    -0.017 A 
ATOM     25  C   UNL     1     -11.690  -3.172  10.159  0.00  0.00    +0.009 A 
ATOM     26  C   UNL     1     -12.436  -3.900  11.100  0.00  0.00    -0.018 A 
ATOM     30  C   UNL     1     -13.129  -6.043  12.021  0.00  0.00    +0.008 A 
ATOM     31  C   UNL     1     -13.236  -3.256  12.058  0.00  0.00    +0.008 A 
ATOM     32  C   UNL     1     -13.917  -5.386  12.966  0.00  0.00    +0.001 A 
ATOM     33  C   UNL     1     -13.971  -3.995  12.984  0.00  0.00    +0.001 A 
ENDBRANCH  16  19
BRANCH  15  18
ATOM     18  C   UNL     1      -8.318 -10.576   8.582  0.00  0.00    +0.037 A 
ATOM     20  C   UNL     1      -8.635  -9.467   9.361  0.00  0.00    +0.014 A 
ATOM     21  C   UNL     1      -7.322 -11.460   8.991  0.00  0.00    +0.014 A 
ATOM     27  C   UNL     1      -7.953  -9.239  10.557  0.00  0.00    +0.019 A 
ATOM     28  C   UNL     1      -6.642 -11.234  10.186  0.00  0.00    +0.019 A 
ATOM     29  C   UNL     1      -6.957 -10.123  10.969  0.00  0.00    +0.052 A 
BRANCH  29  34
ATOM      5  N   UNL     1      -5.686  -9.700  13.188  0.00  0.00    -0.191 NA
ATOM     34  C   UNL     1      -6.257  -9.889  12.193  0.00  0.00    +0.099 C 
ENDBRANCH  29  34
ENDBRANCH  15  18
TORSDOF 3
ENDMDL
