MODEL 1
REMARK VINA RESULT:      -6.6      0.000      0.000
REMARK  Name = 28961265
REMARK  14 active torsions:
REMARK  status: ('A' for Active; 'I' for Inactive)
REMARK    1  A    between atoms: O_4  and  C_11
REMARK    2  A    between atoms: O_5  and  C_14
REMARK    3  A    between atoms: N_6  and  C_9
REMARK    4  A    between atoms: N_6  and  C_15
REMARK    5  A    between atoms: N_6  and  C_16
REMARK    6  A    between atoms: N_7  and  C_13
REMARK    7  A    between atoms: N_7  and  C_17
REMARK    8  A    between atoms: N_7  and  C_18
REMARK    9  A    between atoms: C_10  and  C_13
REMARK   10  A    between atoms: C_12  and  C_14
REMARK   11  A    between atoms: C_15  and  C_19
REMARK   12  A    between atoms: C_17  and  C_20
REMARK   13  A    between atoms: C_18  and  C_21
REMARK   14  A    between atoms: C_19  and  C_22
REMARK                            x       y       z     vdW  Elec       q    Type
REMARK                         _______ _______ _______ _____ _____    ______ ____
ROOT
ATOM      3  O   UNL     1      13.273  10.990  23.194  0.00  0.00    -0.366 OA
ATOM      9  C   UNL     1      12.101   9.058  22.444  0.00  0.00    +0.118 C 
ATOM     10  C   UNL     1      13.413   9.845  22.324  0.00  0.00    +0.152 C 
ATOM     11  C   UNL     1      11.096  10.127  22.847  0.00  0.00    +0.165 C 
ATOM     12  C   UNL     1      11.952  10.984  23.771  0.00  0.00    +0.174 C 
ENDROOT
BRANCH  11   4
ATOM      4  O   UNL     1      10.665  10.885  21.725  0.00  0.00    -0.388 OA
ATOM     37  H   UNL     1      11.228  11.676  21.669  0.00  0.00    +0.210 HD
ENDBRANCH  11   4
BRANCH   9   6
ATOM      6  N   UNL     1      11.725   8.256  21.293  0.00  0.00    -0.297 NA
ATOM     16  C   UNL     1      10.542   7.441  21.589  0.00  0.00    +0.105 C 
BRANCH   6  15
ATOM     15  C   UNL     1      12.835   7.396  20.872  0.00  0.00    +0.090 C 
BRANCH  15  19
ATOM     19  C   UNL     1      12.476   6.621  19.603  0.00  0.00    +0.071 C 
BRANCH  19  22
ATOM      8  N   UNL     1      11.387   8.043  17.954  0.00  0.00    -0.260 NA
ATOM     22  C   UNL     1      12.549   7.498  18.379  0.00  0.00    +0.042 A 
ATOM     27  C   UNL     1      13.773   7.701  17.761  0.00  0.00    +0.023 A 
ATOM     32  C   UNL     1      13.805   8.516  16.635  0.00  0.00    +0.003 A 
ATOM     35  C   UNL     1      11.458   8.829  16.857  0.00  0.00    +0.111 A 
ATOM     36  C   UNL     1      12.632   9.094  16.168  0.00  0.00    +0.020 A 
ENDBRANCH  19  22
ENDBRANCH  15  19
ENDBRANCH   6  15
ENDBRANCH   9   6
BRANCH  10  13
ATOM     13  C   UNL     1      13.768  10.371  20.938  0.00  0.00    +0.118 C 
BRANCH  13   7
ATOM      7  N   UNL     1      15.190  10.214  20.670  0.00  0.00    -0.291 NA
BRANCH   7  17
ATOM     17  C   UNL     1      15.841  11.520  20.545  0.00  0.00    +0.120 C 
BRANCH  17  20
ATOM      1  F   UNL     1      16.777  12.890  15.159  0.00  0.00    -0.205 F 
ATOM     20  C   UNL     1      16.091  11.886  19.106  0.00  0.00    -0.033 A 
ATOM     23  C   UNL     1      15.185  11.497  18.119  0.00  0.00    +0.008 A 
ATOM     25  C   UNL     1      17.229  12.615  18.758  0.00  0.00    +0.008 A 
ATOM     28  C   UNL     1      15.416  11.836  16.786  0.00  0.00    +0.038 A 
ATOM     30  C   UNL     1      17.461  12.954  17.426  0.00  0.00    +0.038 A 
ATOM     33  C   UNL     1      16.554  12.565  16.439  0.00  0.00    +0.123 A 
ENDBRANCH  17  20
ENDBRANCH   7  17
BRANCH   7  18
ATOM     18  C   UNL     1      15.833   9.430  21.729  0.00  0.00    +0.120 C 
BRANCH  18  21
ATOM      2  F   UNL     1      18.902   5.196  19.629  0.00  0.00    -0.205 F 
ATOM     21  C   UNL     1      16.653   8.299  21.168  0.00  0.00    -0.033 A 
ATOM     24  C   UNL     1      17.970   8.116  21.588  0.00  0.00    +0.008 A 
ATOM     26  C   UNL     1      16.095   7.432  20.227  0.00  0.00    +0.008 A 
ATOM     29  C   UNL     1      18.730   7.068  21.069  0.00  0.00    +0.038 A 
ATOM     31  C   UNL     1      16.855   6.385  19.707  0.00  0.00    +0.038 A 
ATOM     34  C   UNL     1      18.172   6.202  20.129  0.00  0.00    +0.123 A 
ENDBRANCH  18  21
ENDBRANCH   7  18
ENDBRANCH  13   7
ENDBRANCH  10  13
BRANCH  12  14
ATOM     14  C   UNL     1      11.481  12.415  23.957  0.00  0.00    +0.190 C 
BRANCH  14   5
ATOM      5  O   UNL     1      10.086  12.409  24.213  0.00  0.00    -0.392 OA
ATOM     38  H   UNL     1       9.972  12.460  25.178  0.00  0.00    +0.210 HD
ENDBRANCH  14   5
ENDBRANCH  12  14
TORSDOF 13
ENDMDL
MODEL 2
REMARK VINA RESULT:      -6.6     27.989     30.125
REMARK  Name = 28961265
REMARK  14 active torsions:
REMARK  status: ('A' for Active; 'I' for Inactive)
REMARK    1  A    between atoms: O_4  and  C_11
REMARK    2  A    between atoms: O_5  and  C_14
REMARK    3  A    between atoms: N_6  and  C_9
REMARK    4  A    between atoms: N_6  and  C_15
REMARK    5  A    between atoms: N_6  and  C_16
REMARK    6  A    between atoms: N_7  and  C_13
REMARK    7  A    between atoms: N_7  and  C_17
REMARK    8  A    between atoms: N_7  and  C_18
REMARK    9  A    between atoms: C_10  and  C_13
REMARK   10  A    between atoms: C_12  and  C_14
REMARK   11  A    between atoms: C_15  and  C_19
REMARK   12  A    between atoms: C_17  and  C_20
REMARK   13  A    between atoms: C_18  and  C_21
REMARK   14  A    between atoms: C_19  and  C_22
REMARK                            x       y       z     vdW  Elec       q    Type
REMARK                         _______ _______ _______ _____ _____    ______ ____
ROOT
ATOM      3  O   UNL     1      -2.421 -14.838  12.346  0.00  0.00    -0.366 OA
ATOM      9  C   UNL     1      -3.733 -15.373  14.260  0.00  0.00    +0.118 C 
ATOM     10  C   UNL     1      -3.300 -14.237  13.324  0.00  0.00    +0.152 C 
ATOM     11  C   UNL     1      -2.587 -16.366  14.147  0.00  0.00    +0.165 C 
ATOM     12  C   UNL     1      -2.242 -16.231  12.669  0.00  0.00    +0.174 C 
ENDROOT
BRANCH  11   4
ATOM      4  O   UNL     1      -1.481 -15.978  14.951  0.00  0.00    -0.388 OA
ATOM     37  H   UNL     1      -1.391 -15.012  14.884  0.00  0.00    +0.210 HD
ENDBRANCH  11   4
BRANCH   9   6
ATOM      6  N   UNL     1      -4.088 -14.988  15.614  0.00  0.00    -0.297 NA
ATOM     16  C   UNL     1      -4.470 -16.161  16.407  0.00  0.00    +0.105 C 
BRANCH   6  15
ATOM     15  C   UNL     1      -5.180 -14.009  15.609  0.00  0.00    +0.090 C 
BRANCH  15  19
ATOM     19  C   UNL     1      -6.149 -14.263  16.765  0.00  0.00    +0.071 C 
BRANCH  19  22
ATOM      8  N   UNL     1      -4.776 -12.873  18.217  0.00  0.00    -0.260 NA
ATOM     22  C   UNL     1      -6.028 -13.205  17.832  0.00  0.00    +0.042 A 
ATOM     27  C   UNL     1      -7.178 -12.636  18.357  0.00  0.00    +0.023 A 
ATOM     32  C   UNL     1      -7.031 -11.662  19.338  0.00  0.00    +0.003 A 
ATOM     35  C   UNL     1      -4.673 -11.923  19.173  0.00  0.00    +0.111 A 
ATOM     36  C   UNL     1      -5.759 -11.293  19.760  0.00  0.00    +0.020 A 
ENDBRANCH  19  22
ENDBRANCH  15  19
ENDBRANCH   6  15
ENDBRANCH   9   6
BRANCH  10  13
ATOM     13  C   UNL     1      -2.542 -13.078  13.961  0.00  0.00    +0.118 C 
BRANCH  13   7
ATOM      7  N   UNL     1      -3.020 -11.801  13.454  0.00  0.00    -0.291 NA
BRANCH   7  17
ATOM     17  C   UNL     1      -3.130 -10.821  14.537  0.00  0.00    +0.120 C 
BRANCH  17  20
ATOM      1  F   UNL     1      -8.503  -9.632  15.751  0.00  0.00    -0.205 F 
ATOM     20  C   UNL     1      -4.566 -10.503  14.862  0.00  0.00    -0.033 A 
ATOM     23  C   UNL     1      -5.566 -10.754  13.922  0.00  0.00    +0.008 A 
ATOM     25  C   UNL     1      -4.897  -9.959  16.102  0.00  0.00    +0.008 A 
ATOM     28  C   UNL     1      -6.896 -10.460  14.221  0.00  0.00    +0.038 A 
ATOM     30  C   UNL     1      -6.226  -9.664  16.403  0.00  0.00    +0.038 A 
ATOM     33  C   UNL     1      -7.227  -9.915  15.463  0.00  0.00    +0.123 A 
ENDBRANCH  17  20
ENDBRANCH   7  17
BRANCH   7  18
ATOM     18  C   UNL     1      -2.132 -11.295  12.404  0.00  0.00    +0.120 C 
BRANCH  18  21
ATOM      2  F   UNL     1      -5.000  -9.678   7.831  0.00  0.00    -0.205 F 
ATOM     21  C   UNL     1      -2.898 -10.863  11.182  0.00  0.00    -0.033 A 
ATOM     24  C   UNL     1      -2.876  -9.527  10.781  0.00  0.00    +0.008 A 
ATOM     26  C   UNL     1      -3.630 -11.798  10.450  0.00  0.00    +0.008 A 
ATOM     29  C   UNL     1      -3.586  -9.126   9.649  0.00  0.00    +0.038 A 
ATOM     31  C   UNL     1      -4.340 -11.398   9.319  0.00  0.00    +0.038 A 
ATOM     34  C   UNL     1      -4.318 -10.063   8.918  0.00  0.00    +0.123 A 
ENDBRANCH  18  21
ENDBRANCH   7  18
ENDBRANCH  13   7
ENDBRANCH  10  13
BRANCH  12  14
ATOM     14  C   UNL     1      -0.836 -16.656  12.284  0.00  0.00    +0.190 C 
BRANCH  14   5
ATOM      5  O   UNL     1       0.054 -15.582  12.544  0.00  0.00    -0.392 OA
ATOM     38  H   UNL     1       0.732 -15.597  11.846  0.00  0.00    +0.210 HD
ENDBRANCH  14   5
ENDBRANCH  12  14
TORSDOF 13
ENDMDL
MODEL 3
REMARK VINA RESULT:      -6.4      3.506      7.248
REMARK  Name = 28961265
REMARK  14 active torsions:
REMARK  status: ('A' for Active; 'I' for Inactive)
REMARK    1  A    between atoms: O_4  and  C_11
REMARK    2  A    between atoms: O_5  and  C_14
REMARK    3  A    between atoms: N_6  and  C_9
REMARK    4  A    between atoms: N_6  and  C_15
REMARK    5  A    between atoms: N_6  and  C_16
REMARK    6  A    between atoms: N_7  and  C_13
REMARK    7  A    between atoms: N_7  and  C_17
REMARK    8  A    between atoms: N_7  and  C_18
REMARK    9  A    between atoms: C_10  and  C_13
REMARK   10  A    between atoms: C_12  and  C_14
REMARK   11  A    between atoms: C_15  and  C_19
REMARK   12  A    between atoms: C_17  and  C_20
REMARK   13  A    between atoms: C_18  and  C_21
REMARK   14  A    between atoms: C_19  and  C_22
REMARK                            x       y       z     vdW  Elec       q    Type
REMARK                         _______ _______ _______ _____ _____    ______ ____
ROOT
ATOM      3  O   UNL     1      14.260   8.390  21.367  0.00  0.00    -0.366 OA
ATOM      9  C   UNL     1      16.167   7.031  20.937  0.00  0.00    +0.118 C 
ATOM     10  C   UNL     1      15.705   8.424  21.384  0.00  0.00    +0.152 C 
ATOM     11  C   UNL     1      15.002   6.537  20.094  0.00  0.00    +0.165 C 
ATOM     12  C   UNL     1      13.826   7.105  20.878  0.00  0.00    +0.174 C 
ENDROOT
BRANCH  11   4
ATOM      4  O   UNL     1      15.037   7.088  18.784  0.00  0.00    -0.388 OA
ATOM     37  H   UNL     1      14.122   7.291  18.524  0.00  0.00    +0.210 HD
ENDBRANCH  11   4
BRANCH   9   6
ATOM      6  N   UNL     1      17.469   6.961  20.297  0.00  0.00    -0.297 NA
ATOM     16  C   UNL     1      17.532   5.832  19.364  0.00  0.00    +0.105 C 
BRANCH   6  15
ATOM     15  C   UNL     1      18.536   6.845  21.296  0.00  0.00    +0.090 C 
BRANCH  15  19
ATOM     19  C   UNL     1      19.905   6.733  20.625  0.00  0.00    +0.071 C 
BRANCH  19  22
ATOM      8  N   UNL     1      21.329   5.890  22.410  0.00  0.00    -0.260 NA
ATOM     22  C   UNL     1      20.729   5.625  21.229  0.00  0.00    +0.042 A 
ATOM     27  C   UNL     1      20.830   4.414  20.562  0.00  0.00    +0.023 A 
ATOM     32  C   UNL     1      21.596   3.412  21.147  0.00  0.00    +0.003 A 
ATOM     35  C   UNL     1      22.066   4.892  22.948  0.00  0.00    +0.111 A 
ATOM     36  C   UNL     1      22.229   3.647  22.361  0.00  0.00    +0.020 A 
ENDBRANCH  19  22
ENDBRANCH  15  19
ENDBRANCH   6  15
ENDBRANCH   9   6
BRANCH  10  13
ATOM     13  C   UNL     1      16.139   9.599  20.514  0.00  0.00    +0.118 C 
BRANCH  13   7
ATOM      7  N   UNL     1      15.091  10.605  20.437  0.00  0.00    -0.291 NA
BRANCH   7  17
ATOM     17  C   UNL     1      15.151  11.505  21.591  0.00  0.00    +0.120 C 
BRANCH  17  20
ATOM      1  F   UNL     1      10.179  11.884  24.218  0.00  0.00    -0.205 F 
ATOM     20  C   UNL     1      13.822  11.606  22.293  0.00  0.00    -0.033 A 
ATOM     23  C   UNL     1      13.765  11.573  23.687  0.00  0.00    +0.008 A 
ATOM     25  C   UNL     1      12.648  11.733  21.551  0.00  0.00    +0.008 A 
ATOM     28  C   UNL     1      12.535  11.667  24.338  0.00  0.00    +0.038 A 
ATOM     30  C   UNL     1      11.418  11.827  22.201  0.00  0.00    +0.038 A 
ATOM     33  C   UNL     1      11.361  11.794  23.594  0.00  0.00    +0.123 A 
ENDBRANCH  17  20
ENDBRANCH   7  17
BRANCH   7  18
ATOM     18  C   UNL     1      15.200  11.373  19.193  0.00  0.00    +0.120 C 
BRANCH  18  21
ATOM      2  F   UNL     1      12.114   9.109  15.058  0.00  0.00    -0.205 F 
ATOM     21  C   UNL     1      14.375  10.768  18.089  0.00  0.00    -0.033 A 
ATOM     24  C   UNL     1      13.173  10.127  18.386  0.00  0.00    +0.008 A 
ATOM     26  C   UNL     1      14.813  10.849  16.766  0.00  0.00    +0.008 A 
ATOM     29  C   UNL     1      12.408   9.567  17.362  0.00  0.00    +0.038 A 
ATOM     31  C   UNL     1      14.050  10.289  15.743  0.00  0.00    +0.038 A 
ATOM     34  C   UNL     1      12.847   9.648  16.041  0.00  0.00    +0.123 A 
ENDBRANCH  18  21
ENDBRANCH   7  18
ENDBRANCH  13   7
ENDBRANCH  10  13
BRANCH  12  14
ATOM     14  C   UNL     1      12.539   7.279  20.092  0.00  0.00    +0.190 C 
BRANCH  14   5
ATOM      5  O   UNL     1      12.281   6.087  19.367  0.00  0.00    -0.392 OA
ATOM     38  H   UNL     1      11.359   6.133  19.058  0.00  0.00    +0.210 HD
ENDBRANCH  14   5
ENDBRANCH  12  14
TORSDOF 13
ENDMDL
MODEL 4
REMARK VINA RESULT:      -6.4      3.648      6.902
REMARK  Name = 28961265
REMARK  14 active torsions:
REMARK  status: ('A' for Active; 'I' for Inactive)
REMARK    1  A    between atoms: O_4  and  C_11
REMARK    2  A    between atoms: O_5  and  C_14
REMARK    3  A    between atoms: N_6  and  C_9
REMARK    4  A    between atoms: N_6  and  C_15
REMARK    5  A    between atoms: N_6  and  C_16
REMARK    6  A    between atoms: N_7  and  C_13
REMARK    7  A    between atoms: N_7  and  C_17
REMARK    8  A    between atoms: N_7  and  C_18
REMARK    9  A    between atoms: C_10  and  C_13
REMARK   10  A    between atoms: C_12  and  C_14
REMARK   11  A    between atoms: C_15  and  C_19
REMARK   12  A    between atoms: C_17  and  C_20
REMARK   13  A    between atoms: C_18  and  C_21
REMARK   14  A    between atoms: C_19  and  C_22
REMARK                            x       y       z     vdW  Elec       q    Type
REMARK                         _______ _______ _______ _____ _____    ______ ____
ROOT
ATOM      3  O   UNL     1      12.061   7.933  22.173  0.00  0.00    -0.366 OA
ATOM      9  C   UNL     1      13.843   7.953  20.594  0.00  0.00    +0.118 C 
ATOM     10  C   UNL     1      13.014   8.823  21.548  0.00  0.00    +0.152 C 
ATOM     11  C   UNL     1      12.899   6.806  20.267  0.00  0.00    +0.165 C 
ATOM     12  C   UNL     1      12.213   6.613  21.614  0.00  0.00    +0.174 C 
ENDROOT
BRANCH  11   4
ATOM      4  O   UNL     1      11.951   7.179  19.276  0.00  0.00    -0.388 OA
ATOM     37  H   UNL     1      11.691   6.373  18.798  0.00  0.00    +0.210 HD
ENDBRANCH  11   4
BRANCH   9   6
ATOM      6  N   UNL     1      14.418   8.629  19.444  0.00  0.00    -0.297 NA
ATOM     16  C   UNL     1      14.519   7.719  18.299  0.00  0.00    +0.105 C 
BRANCH   6  15
ATOM     15  C   UNL     1      15.740   9.176  19.768  0.00  0.00    +0.090 C 
BRANCH  15  19
ATOM     19  C   UNL     1      16.236   8.649  21.115  0.00  0.00    +0.071 C 
BRANCH  19  22
ATOM      8  N   UNL     1      17.352   6.747  20.085  0.00  0.00    -0.260 NA
ATOM     22  C   UNL     1      17.455   7.776  20.954  0.00  0.00    +0.042 A 
ATOM     27  C   UNL     1      18.597   8.063  21.685  0.00  0.00    +0.023 A 
ATOM     32  C   UNL     1      19.703   7.240  21.512  0.00  0.00    +0.003 A 
ATOM     35  C   UNL     1      18.448   5.968  19.943  0.00  0.00    +0.111 A 
ATOM     36  C   UNL     1      19.636   6.171  20.627  0.00  0.00    +0.020 A 
ENDBRANCH  19  22
ENDBRANCH  15  19
ENDBRANCH   6  15
ENDBRANCH   9   6
BRANCH  10  13
ATOM     13  C   UNL     1      12.221   9.963  20.917  0.00  0.00    +0.118 C 
BRANCH  13   7
ATOM      7  N   UNL     1      12.481  11.219  21.604  0.00  0.00    -0.291 NA
BRANCH   7  17
ATOM     17  C   UNL     1      13.578  11.944  20.960  0.00  0.00    +0.120 C 
BRANCH  17  20
ATOM      1  F   UNL     1      17.152  14.126  24.731  0.00  0.00    -0.205 F 
ATOM     20  C   UNL     1      14.533  12.527  21.967  0.00  0.00    -0.033 A 
ATOM     23  C   UNL     1      14.797  13.897  21.968  0.00  0.00    +0.008 A 
ATOM     25  C   UNL     1      15.154  11.698  22.902  0.00  0.00    +0.008 A 
ATOM     28  C   UNL     1      15.681  14.438  22.901  0.00  0.00    +0.038 A 
ATOM     30  C   UNL     1      16.039  12.238  23.835  0.00  0.00    +0.038 A 
ATOM     33  C   UNL     1      16.303  13.608  23.835  0.00  0.00    +0.123 A 
ENDBRANCH  17  20
ENDBRANCH   7  17
BRANCH   7  18
ATOM     18  C   UNL     1      11.275  12.052  21.635  0.00  0.00    +0.120 C 
BRANCH  18  21
ATOM      2  F   UNL     1      10.278  14.105  26.787  0.00  0.00    -0.205 F 
ATOM     21  C   UNL     1      11.009  12.600  23.012  0.00  0.00    -0.033 A 
ATOM     24  C   UNL     1      11.146  11.778  24.130  0.00  0.00    +0.008 A 
ATOM     26  C   UNL     1      10.625  13.933  23.170  0.00  0.00    +0.008 A 
ATOM     29  C   UNL     1      10.900  12.286  25.405  0.00  0.00    +0.038 A 
ATOM     31  C   UNL     1      10.378  14.440  24.445  0.00  0.00    +0.038 A 
ATOM     34  C   UNL     1      10.516  13.617  25.562  0.00  0.00    +0.123 A 
ENDBRANCH  18  21
ENDBRANCH   7  18
ENDBRANCH  13   7
ENDBRANCH  10  13
BRANCH  12  14
ATOM     14  C   UNL     1      10.858   5.932  21.565  0.00  0.00    +0.190 C 
BRANCH  14   5
ATOM      5  O   UNL     1      10.949   4.791  20.727  0.00  0.00    -0.392 OA
ATOM     38  H   UNL     1      11.646   4.221  21.094  0.00  0.00    +0.210 HD
ENDBRANCH  14   5
ENDBRANCH  12  14
TORSDOF 13
ENDMDL
MODEL 5
REMARK VINA RESULT:      -6.3     14.120     17.988
REMARK  Name = 28961265
REMARK  14 active torsions:
REMARK  status: ('A' for Active; 'I' for Inactive)
REMARK    1  A    between atoms: O_4  and  C_11
REMARK    2  A    between atoms: O_5  and  C_14
REMARK    3  A    between atoms: N_6  and  C_9
REMARK    4  A    between atoms: N_6  and  C_15
REMARK    5  A    between atoms: N_6  and  C_16
REMARK    6  A    between atoms: N_7  and  C_13
REMARK    7  A    between atoms: N_7  and  C_17
REMARK    8  A    between atoms: N_7  and  C_18
REMARK    9  A    between atoms: C_10  and  C_13
REMARK   10  A    between atoms: C_12  and  C_14
REMARK   11  A    between atoms: C_15  and  C_19
REMARK   12  A    between atoms: C_17  and  C_20
REMARK   13  A    between atoms: C_18  and  C_21
REMARK   14  A    between atoms: C_19  and  C_22
REMARK                            x       y       z     vdW  Elec       q    Type
REMARK                         _______ _______ _______ _____ _____    ______ ____
ROOT
ATOM      3  O   UNL     1       9.357   5.593   6.570  0.00  0.00    -0.366 OA
ATOM      9  C   UNL     1      10.687   7.566   6.655  0.00  0.00    +0.118 C 
ATOM     10  C   UNL     1      10.025   6.549   5.716  0.00  0.00    +0.152 C 
ATOM     11  C   UNL     1      10.894   6.768   7.933  0.00  0.00    +0.165 C 
ATOM     12  C   UNL     1       9.627   5.923   7.947  0.00  0.00    +0.174 C 
ENDROOT
BRANCH  11   4
ATOM      4  O   UNL     1      12.044   5.937   7.847  0.00  0.00    -0.388 OA
ATOM     37  H   UNL     1      11.790   5.049   8.152  0.00  0.00    +0.210 HD
ENDBRANCH  11   4
BRANCH   9   6
ATOM      6  N   UNL     1      11.869   8.237   6.145  0.00  0.00    -0.297 NA
ATOM     16  C   UNL     1      12.474   9.086   7.176  0.00  0.00    +0.105 C 
BRANCH   6  15
ATOM     15  C   UNL     1      11.543   9.041   4.962  0.00  0.00    +0.090 C 
BRANCH  15  19
ATOM     19  C   UNL     1      12.812   9.561   4.286  0.00  0.00    +0.071 C 
BRANCH  19  22
ATOM      8  N   UNL     1      14.650   7.979   4.068  0.00  0.00    -0.260 NA
ATOM     22  C   UNL     1      13.518   8.471   3.519  0.00  0.00    +0.042 A 
ATOM     27  C   UNL     1      12.986   8.035   2.315  0.00  0.00    +0.023 A 
ATOM     32  C   UNL     1      13.660   7.028   1.634  0.00  0.00    +0.003 A 
ATOM     35  C   UNL     1      15.278   7.002   3.377  0.00  0.00    +0.111 A 
ATOM     36  C   UNL     1      14.827   6.496   2.167  0.00  0.00    +0.020 A 
ENDBRANCH  19  22
ENDBRANCH  15  19
ENDBRANCH   6  15
ENDBRANCH   9   6
BRANCH  10  13
ATOM     13  C   UNL     1      10.954   5.763   4.798  0.00  0.00    +0.118 C 
BRANCH  13   7
ATOM      7  N   UNL     1      10.448   5.749   3.434  0.00  0.00    -0.291 NA
BRANCH   7  17
ATOM     17  C   UNL     1      10.368   4.379   2.924  0.00  0.00    +0.120 C 
BRANCH  17  20
ATOM      1  F   UNL     1      13.938   3.521  -1.352  0.00  0.00    -0.205 F 
ATOM     20  C   UNL     1      11.322   4.149   1.781  0.00  0.00    -0.033 A 
ATOM     23  C   UNL     1      11.010   4.621   0.506  0.00  0.00    +0.008 A 
ATOM     25  C   UNL     1      12.519   3.466   1.997  0.00  0.00    +0.008 A 
ATOM     28  C   UNL     1      11.893   4.409  -0.553  0.00  0.00    +0.038 A 
ATOM     30  C   UNL     1      13.402   3.254   0.939  0.00  0.00    +0.038 A 
ATOM     33  C   UNL     1      13.090   3.725  -0.336  0.00  0.00    +0.123 A 
ENDBRANCH  17  20
ENDBRANCH   7  17
BRANCH   7  18
ATOM     18  C   UNL     1       9.132   6.391   3.362  0.00  0.00    +0.120 C 
BRANCH  18  21
ATOM      2  F   UNL     1       9.215  10.988   0.106  0.00  0.00    -0.205 F 
ATOM     21  C   UNL     1       9.154   7.619   2.492  0.00  0.00    -0.033 A 
ATOM     24  C   UNL     1       9.777   7.580   1.245  0.00  0.00    +0.008 A 
ATOM     26  C   UNL     1       8.551   8.798   2.933  0.00  0.00    +0.008 A 
ATOM     29  C   UNL     1       9.797   8.717   0.438  0.00  0.00    +0.038 A 
ATOM     31  C   UNL     1       8.572   9.935   2.127  0.00  0.00    +0.038 A 
ATOM     34  C   UNL     1       9.195   9.895   0.879  0.00  0.00    +0.123 A 
ENDBRANCH  18  21
ENDBRANCH   7  18
ENDBRANCH  13   7
ENDBRANCH  10  13
BRANCH  12  14
ATOM     14  C   UNL     1       9.703   4.644   8.761  0.00  0.00    +0.190 C 
BRANCH  14   5
ATOM      5  O   UNL     1      10.419   3.670   8.018  0.00  0.00    -0.392 OA
ATOM     38  H   UNL     1      10.934   3.145   8.656  0.00  0.00    +0.210 HD
ENDBRANCH  14   5
ENDBRANCH  12  14
TORSDOF 13
ENDMDL
MODEL 6
REMARK VINA RESULT:      -6.2     14.284     18.081
REMARK  Name = 28961265
REMARK  14 active torsions:
REMARK  status: ('A' for Active; 'I' for Inactive)
REMARK    1  A    between atoms: O_4  and  C_11
REMARK    2  A    between atoms: O_5  and  C_14
REMARK    3  A    between atoms: N_6  and  C_9
REMARK    4  A    between atoms: N_6  and  C_15
REMARK    5  A    between atoms: N_6  and  C_16
REMARK    6  A    between atoms: N_7  and  C_13
REMARK    7  A    between atoms: N_7  and  C_17
REMARK    8  A    between atoms: N_7  and  C_18
REMARK    9  A    between atoms: C_10  and  C_13
REMARK   10  A    between atoms: C_12  and  C_14
REMARK   11  A    between atoms: C_15  and  C_19
REMARK   12  A    between atoms: C_17  and  C_20
REMARK   13  A    between atoms: C_18  and  C_21
REMARK   14  A    between atoms: C_19  and  C_22
REMARK                            x       y       z     vdW  Elec       q    Type
REMARK                         _______ _______ _______ _____ _____    ______ ____
ROOT
ATOM      3  O   UNL     1       9.358   5.440   6.476  0.00  0.00    -0.366 OA
ATOM      9  C   UNL     1      10.666   7.428   6.522  0.00  0.00    +0.118 C 
ATOM     10  C   UNL     1      10.066   6.352   5.608  0.00  0.00    +0.152 C 
ATOM     11  C   UNL     1      10.808   6.707   7.853  0.00  0.00    +0.165 C 
ATOM     12  C   UNL     1       9.548   5.850   7.845  0.00  0.00    +0.174 C 
ENDROOT
BRANCH  11   4
ATOM      4  O   UNL     1      11.967   5.884   7.879  0.00  0.00    -0.388 OA
ATOM     37  H   UNL     1      11.673   4.964   7.993  0.00  0.00    +0.210 HD
ENDBRANCH  11   4
BRANCH   9   6
ATOM      6  N   UNL     1      11.871   8.081   6.040  0.00  0.00    -0.297 NA
ATOM     16  C   UNL     1      12.629   8.665   7.151  0.00  0.00    +0.105 C 
BRANCH   6  15
ATOM     15  C   UNL     1      11.544   9.119   5.057  0.00  0.00    +0.090 C 
BRANCH  15  19
ATOM     19  C   UNL     1      10.419  10.022   5.566  0.00  0.00    +0.071 C 
BRANCH  19  22
ATOM      8  N   UNL     1       9.602  11.006   3.495  0.00  0.00    -0.260 NA
ATOM     22  C   UNL     1       9.332  10.187   4.535  0.00  0.00    +0.042 A 
ATOM     27  C   UNL     1       8.135   9.507   4.696  0.00  0.00    +0.023 A 
ATOM     32  C   UNL     1       7.154   9.680   3.727  0.00  0.00    +0.003 A 
ATOM     35  C   UNL     1       8.624  11.151   2.573  0.00  0.00    +0.111 A 
ATOM     36  C   UNL     1       7.394  10.515   2.643  0.00  0.00    +0.020 A 
ENDBRANCH  19  22
ENDBRANCH  15  19
ENDBRANCH   6  15
ENDBRANCH   9   6
BRANCH  10  13
ATOM     13  C   UNL     1      11.050   5.525   4.789  0.00  0.00    +0.118 C 
BRANCH  13   7
ATOM      7  N   UNL     1      10.828   5.712   3.363  0.00  0.00    -0.291 NA
BRANCH   7  17
ATOM     17  C   UNL     1      10.545   4.432   2.711  0.00  0.00    +0.120 C 
BRANCH  17  20
ATOM      1  F   UNL     1      13.949   3.520  -1.687  0.00  0.00    -0.205 F 
ATOM     20  C   UNL     1      11.454   4.188   1.536  0.00  0.00    -0.033 A 
ATOM     23  C   UNL     1      11.011   4.461   0.241  0.00  0.00    +0.008 A 
ATOM     25  C   UNL     1      12.742   3.690   1.740  0.00  0.00    +0.008 A 
ATOM     28  C   UNL     1      11.853   4.236  -0.848  0.00  0.00    +0.038 A 
ATOM     30  C   UNL     1      13.584   3.465   0.652  0.00  0.00    +0.038 A 
ATOM     33  C   UNL     1      13.140   3.737  -0.642  0.00  0.00    +0.123 A 
ENDBRANCH  17  20
ENDBRANCH   7  17
BRANCH   7  18
ATOM     18  C   UNL     1       9.728   6.652   3.129  0.00  0.00    +0.120 C 
BRANCH  18  21
ATOM      2  F   UNL     1      10.740  10.008  -1.282  0.00  0.00    -0.205 F 
ATOM     21  C   UNL     1       9.998   7.548   1.951  0.00  0.00    -0.033 A 
ATOM     24  C   UNL     1      11.245   8.157   1.808  0.00  0.00    +0.008 A 
ATOM     26  C   UNL     1       9.002   7.771   0.999  0.00  0.00    +0.008 A 
ATOM     29  C   UNL     1      11.497   8.987   0.716  0.00  0.00    +0.038 A 
ATOM     31  C   UNL     1       9.253   8.601  -0.092  0.00  0.00    +0.038 A 
ATOM     34  C   UNL     1      10.500   9.209  -0.234  0.00  0.00    +0.123 A 
ENDBRANCH  18  21
ENDBRANCH   7  18
ENDBRANCH  13   7
ENDBRANCH  10  13
BRANCH  12  14
ATOM     14  C   UNL     1       9.587   4.621   8.734  0.00  0.00    +0.190 C 
BRANCH  14   5
ATOM      5  O   UNL     1      10.390   3.631   8.111  0.00  0.00    -0.392 OA
ATOM     38  H   UNL     1      11.235   3.602   8.593  0.00  0.00    +0.210 HD
ENDBRANCH  14   5
ENDBRANCH  12  14
TORSDOF 13
ENDMDL
MODEL 7
REMARK VINA RESULT:      -6.2     14.364     18.039
REMARK  Name = 28961265
REMARK  14 active torsions:
REMARK  status: ('A' for Active; 'I' for Inactive)
REMARK    1  A    between atoms: O_4  and  C_11
REMARK    2  A    between atoms: O_5  and  C_14
REMARK    3  A    between atoms: N_6  and  C_9
REMARK    4  A    between atoms: N_6  and  C_15
REMARK    5  A    between atoms: N_6  and  C_16
REMARK    6  A    between atoms: N_7  and  C_13
REMARK    7  A    between atoms: N_7  and  C_17
REMARK    8  A    between atoms: N_7  and  C_18
REMARK    9  A    between atoms: C_10  and  C_13
REMARK   10  A    between atoms: C_12  and  C_14
REMARK   11  A    between atoms: C_15  and  C_19
REMARK   12  A    between atoms: C_17  and  C_20
REMARK   13  A    between atoms: C_18  and  C_21
REMARK   14  A    between atoms: C_19  and  C_22
REMARK                            x       y       z     vdW  Elec       q    Type
REMARK                         _______ _______ _______ _____ _____    ______ ____
ROOT
ATOM      3  O   UNL     1      12.686   5.051   1.969  0.00  0.00    -0.366 OA
ATOM      9  C   UNL     1      11.311   6.373   0.545  0.00  0.00    +0.118 C 
ATOM     10  C   UNL     1      11.659   6.068   2.007  0.00  0.00    +0.152 C 
ATOM     11  C   UNL     1      11.677   5.083  -0.172  0.00  0.00    +0.165 C 
ATOM     12  C   UNL     1      12.928   4.678   0.598  0.00  0.00    +0.174 C 
ENDROOT
BRANCH  11   4
ATOM      4  O   UNL     1      10.662   4.099  -0.023  0.00  0.00    -0.388 OA
ATOM     37  H   UNL     1      10.239   3.977  -0.890  0.00  0.00    +0.210 HD
ENDBRANCH  11   4
BRANCH   9   6
ATOM      6  N   UNL     1       9.967   6.862   0.293  0.00  0.00    -0.297 NA
ATOM     16  C   UNL     1       9.684   6.898  -1.145  0.00  0.00    +0.105 C 
BRANCH   6  15
ATOM     15  C   UNL     1       9.780   8.196   0.874  0.00  0.00    +0.090 C 
BRANCH  15  19
ATOM     19  C   UNL     1       8.469   8.823   0.396  0.00  0.00    +0.071 C 
BRANCH  19  22
ATOM      8  N   UNL     1       6.387   9.754   1.247  0.00  0.00    -0.260 NA
ATOM     22  C   UNL     1       7.595   9.230   1.554  0.00  0.00    +0.042 A 
ATOM     27  C   UNL     1       8.057   9.053   2.849  0.00  0.00    +0.023 A 
ATOM     32  C   UNL     1       7.226   9.438   3.894  0.00  0.00    +0.003 A 
ATOM     35  C   UNL     1       5.607  10.117   2.290  0.00  0.00    +0.111 A 
ATOM     36  C   UNL     1       5.977   9.981   3.619  0.00  0.00    +0.020 A 
ENDBRANCH  19  22
ENDBRANCH  15  19
ENDBRANCH   6  15
ENDBRANCH   9   6
BRANCH  10  13
ATOM     13  C   UNL     1      10.529   5.536   2.881  0.00  0.00    +0.118 C 
BRANCH  13   7
ATOM      7  N   UNL     1      10.606   6.090   4.225  0.00  0.00    -0.291 NA
BRANCH   7  17
ATOM     17  C   UNL     1      11.175   7.439   4.197  0.00  0.00    +0.120 C 
BRANCH  17  20
ATOM      1  F   UNL     1      16.147   7.676   6.840  0.00  0.00    -0.205 F 
ATOM     20  C   UNL     1      12.503   7.502   4.904  0.00  0.00    -0.033 A 
ATOM     23  C   UNL     1      13.611   8.051   4.258  0.00  0.00    +0.008 A 
ATOM     25  C   UNL     1      12.627   7.013   6.204  0.00  0.00    +0.008 A 
ATOM     28  C   UNL     1      14.842   8.111   4.911  0.00  0.00    +0.038 A 
ATOM     30  C   UNL     1      13.857   7.071   6.858  0.00  0.00    +0.038 A 
ATOM     33  C   UNL     1      14.965   7.620   6.212  0.00  0.00    +0.123 A 
ENDBRANCH  17  20
ENDBRANCH   7  17
BRANCH   7  18
ATOM     18  C   UNL     1       9.281   6.113   4.852  0.00  0.00    +0.120 C 
BRANCH  18  21
ATOM      2  F   UNL     1       9.545   4.936  10.356  0.00  0.00    -0.205 F 
ATOM     21  C   UNL     1       9.352   5.799   6.322  0.00  0.00    -0.033 A 
ATOM     24  C   UNL     1       9.778   4.540   6.747  0.00  0.00    +0.008 A 
ATOM     26  C   UNL     1       8.992   6.766   7.261  0.00  0.00    +0.008 A 
ATOM     29  C   UNL     1       9.844   4.248   8.109  0.00  0.00    +0.038 A 
ATOM     31  C   UNL     1       9.057   6.474   8.623  0.00  0.00    +0.038 A 
ATOM     34  C   UNL     1       9.483   5.216   9.047  0.00  0.00    +0.123 A 
ENDBRANCH  18  21
ENDBRANCH   7  18
ENDBRANCH  13   7
ENDBRANCH  10  13
BRANCH  12  14
ATOM     14  C   UNL     1      13.283   3.203   0.537  0.00  0.00    +0.190 C 
BRANCH  14   5
ATOM      5  O   UNL     1      12.803   2.567   1.710  0.00  0.00    -0.392 OA
ATOM     38  H   UNL     1      12.112   3.141   2.085  0.00  0.00    +0.210 HD
ENDBRANCH  14   5
ENDBRANCH  12  14
TORSDOF 13
ENDMDL
MODEL 8
REMARK VINA RESULT:      -6.1     13.319     16.901
REMARK  Name = 28961265
REMARK  14 active torsions:
REMARK  status: ('A' for Active; 'I' for Inactive)
REMARK    1  A    between atoms: O_4  and  C_11
REMARK    2  A    between atoms: O_5  and  C_14
REMARK    3  A    between atoms: N_6  and  C_9
REMARK    4  A    between atoms: N_6  and  C_15
REMARK    5  A    between atoms: N_6  and  C_16
REMARK    6  A    between atoms: N_7  and  C_13
REMARK    7  A    between atoms: N_7  and  C_17
REMARK    8  A    between atoms: N_7  and  C_18
REMARK    9  A    between atoms: C_10  and  C_13
REMARK   10  A    between atoms: C_12  and  C_14
REMARK   11  A    between atoms: C_15  and  C_19
REMARK   12  A    between atoms: C_17  and  C_20
REMARK   13  A    between atoms: C_18  and  C_21
REMARK   14  A    between atoms: C_19  and  C_22
REMARK                            x       y       z     vdW  Elec       q    Type
REMARK                         _______ _______ _______ _____ _____    ______ ____
ROOT
ATOM      3  O   UNL     1      12.072   9.351   5.245  0.00  0.00    -0.366 OA
ATOM      9  C   UNL     1      13.907   8.511   3.982  0.00  0.00    +0.118 C 
ATOM     10  C   UNL     1      12.425   8.302   4.316  0.00  0.00    +0.152 C 
ATOM     11  C   UNL     1      14.437   9.235   5.210  0.00  0.00    +0.165 C 
ATOM     12  C   UNL     1      13.249  10.129   5.544  0.00  0.00    +0.174 C 
ENDROOT
BRANCH  11   4
ATOM      4  O   UNL     1      14.692   8.331   6.277  0.00  0.00    -0.388 OA
ATOM     37  H   UNL     1      13.834   8.018   6.611  0.00  0.00    +0.210 HD
ENDBRANCH  11   4
BRANCH   9   6
ATOM      6  N   UNL     1      14.652   7.326   3.592  0.00  0.00    -0.297 NA
ATOM     16  C   UNL     1      16.089   7.518   3.807  0.00  0.00    +0.105 C 
BRANCH   6  15
ATOM     15  C   UNL     1      14.395   6.987   2.189  0.00  0.00    +0.090 C 
BRANCH  15  19
ATOM     19  C   UNL     1      14.123   5.491   2.028  0.00  0.00    +0.071 C 
BRANCH  19  22
ATOM      8  N   UNL     1      12.252   6.057   0.576  0.00  0.00    -0.260 NA
ATOM     22  C   UNL     1      12.720   5.233   1.540  0.00  0.00    +0.042 A 
ATOM     27  C   UNL     1      11.992   4.188   2.087  0.00  0.00    +0.023 A 
ATOM     32  C   UNL     1      10.703   3.976   1.614  0.00  0.00    +0.003 A 
ATOM     35  C   UNL     1      10.994   5.821   0.142  0.00  0.00    +0.111 A 
ATOM     36  C   UNL     1      10.186   4.803   0.624  0.00  0.00    +0.020 A 
ENDBRANCH  19  22
ENDBRANCH  15  19
ENDBRANCH   6  15
ENDBRANCH   9   6
BRANCH  10  13
ATOM     13  C   UNL     1      12.052   6.976   4.969  0.00  0.00    +0.118 C 
BRANCH  13   7
ATOM      7  N   UNL     1      10.622   6.729   4.869  0.00  0.00    -0.291 NA
BRANCH   7  17
ATOM     17  C   UNL     1      10.147   6.982   3.507  0.00  0.00    +0.120 C 
BRANCH  17  20
ATOM      1  F   UNL     1       5.849  10.627   3.426  0.00  0.00    -0.205 F 
ATOM     20  C   UNL     1       8.998   7.956   3.486  0.00  0.00    -0.033 A 
ATOM     23  C   UNL     1       8.475   8.391   2.268  0.00  0.00    +0.008 A 
ATOM     25  C   UNL     1       8.456   8.424   4.683  0.00  0.00    +0.008 A 
ATOM     28  C   UNL     1       7.411   9.293   2.247  0.00  0.00    +0.038 A 
ATOM     30  C   UNL     1       7.393   9.325   4.663  0.00  0.00    +0.038 A 
ATOM     33  C   UNL     1       6.870   9.760   3.445  0.00  0.00    +0.123 A 
ENDBRANCH  17  20
ENDBRANCH   7  17
BRANCH   7  18
ATOM     18  C   UNL     1      10.303   5.355   5.268  0.00  0.00    +0.120 C 
BRANCH  18  21
ATOM      2  F   UNL     1       8.688   5.056  10.658  0.00  0.00    -0.205 F 
ATOM     21  C   UNL     1       9.872   5.275   6.708  0.00  0.00    -0.033 A 
ATOM     24  C   UNL     1       9.933   4.059   7.388  0.00  0.00    +0.008 A 
ATOM     26  C   UNL     1       9.411   6.418   7.363  0.00  0.00    +0.008 A 
ATOM     29  C   UNL     1       9.534   3.984   8.722  0.00  0.00    +0.038 A 
ATOM     31  C   UNL     1       9.011   6.343   8.697  0.00  0.00    +0.038 A 
ATOM     34  C   UNL     1       9.073   5.127   9.377  0.00  0.00    +0.123 A 
ENDBRANCH  18  21
ENDBRANCH   7  18
ENDBRANCH  13   7
ENDBRANCH  10  13
BRANCH  12  14
ATOM     14  C   UNL     1      13.177  10.610   6.982  0.00  0.00    +0.190 C 
BRANCH  14   5
ATOM      5  O   UNL     1      12.551   9.609   7.769  0.00  0.00    -0.392 OA
ATOM     38  H   UNL     1      12.999   8.769   7.573  0.00  0.00    +0.210 HD
ENDBRANCH  14   5
ENDBRANCH  12  14
TORSDOF 13
ENDMDL
MODEL 9
REMARK VINA RESULT:      -6.1     27.452     30.033
REMARK  Name = 28961265
REMARK  14 active torsions:
REMARK  status: ('A' for Active; 'I' for Inactive)
REMARK    1  A    between atoms: O_4  and  C_11
REMARK    2  A    between atoms: O_5  and  C_14
REMARK    3  A    between atoms: N_6  and  C_9
REMARK    4  A    between atoms: N_6  and  C_15
REMARK    5  A    between atoms: N_6  and  C_16
REMARK    6  A    between atoms: N_7  and  C_13
REMARK    7  A    between atoms: N_7  and  C_17
REMARK    8  A    between atoms: N_7  and  C_18
REMARK    9  A    between atoms: C_10  and  C_13
REMARK   10  A    between atoms: C_12  and  C_14
REMARK   11  A    between atoms: C_15  and  C_19
REMARK   12  A    between atoms: C_17  and  C_20
REMARK   13  A    between atoms: C_18  and  C_21
REMARK   14  A    between atoms: C_19  and  C_22
REMARK                            x       y       z     vdW  Elec       q    Type
REMARK                         _______ _______ _______ _____ _____    ______ ____
ROOT
ATOM      3  O   UNL     1      -1.919 -14.389  12.691  0.00  0.00    -0.366 OA
ATOM      9  C   UNL     1      -3.839 -14.824  14.030  0.00  0.00    +0.118 C 
ATOM     10  C   UNL     1      -2.946 -13.717  13.454  0.00  0.00    +0.152 C 
ATOM     11  C   UNL     1      -2.903 -16.020  14.097  0.00  0.00    +0.165 C 
ATOM     12  C   UNL     1      -2.091 -15.814  12.824  0.00  0.00    +0.174 C 
ENDROOT
BRANCH  11   4
ATOM      4  O   UNL     1      -2.059 -15.957  15.239  0.00  0.00    -0.388 OA
ATOM     37  H   UNL     1      -1.247 -16.453  15.035  0.00  0.00    +0.210 HD
ENDBRANCH  11   4
BRANCH   9   6
ATOM      6  N   UNL     1      -4.534 -14.511  15.266  0.00  0.00    -0.297 NA
ATOM     16  C   UNL     1      -5.184 -15.705  15.816  0.00  0.00    +0.105 C 
BRANCH   6  15
ATOM     15  C   UNL     1      -5.527 -13.453  15.053  0.00  0.00    +0.090 C 
BRANCH  15  19
ATOM     19  C   UNL     1      -6.884 -13.848  15.638  0.00  0.00    +0.071 C 
BRANCH  19  22
ATOM      8  N   UNL     1      -7.816 -11.900  14.515  0.00  0.00    -0.260 NA
ATOM     22  C   UNL     1      -7.858 -12.698  15.605  0.00  0.00    +0.042 A 
ATOM     27  C   UNL     1      -8.730 -12.517  16.667  0.00  0.00    +0.023 A 
ATOM     32  C   UNL     1      -9.616 -11.448  16.604  0.00  0.00    +0.003 A 
ATOM     35  C   UNL     1      -8.692 -10.871  14.490  0.00  0.00    +0.111 A 
ATOM     36  C   UNL     1      -9.604 -10.605  15.500  0.00  0.00    +0.020 A 
ENDBRANCH  19  22
ENDBRANCH  15  19
ENDBRANCH   6  15
ENDBRANCH   9   6
BRANCH  10  13
ATOM     13  C   UNL     1      -2.243 -12.814  14.462  0.00  0.00    +0.118 C 
BRANCH  13   7
ATOM      7  N   UNL     1      -2.675 -11.433  14.312  0.00  0.00    -0.291 NA
BRANCH   7  17
ATOM     17  C   UNL     1      -2.450 -10.683  15.550  0.00  0.00    +0.120 C 
BRANCH  17  20
ATOM      1  F   UNL     1      -7.026 -10.650  18.840  0.00  0.00    -0.205 F 
ATOM     20  C   UNL     1      -3.673 -10.674  16.429  0.00  0.00    -0.033 A 
ATOM     23  C   UNL     1      -4.790  -9.923  16.064  0.00  0.00    +0.008 A 
ATOM     25  C   UNL     1      -3.690 -11.418  17.609  0.00  0.00    +0.008 A 
ATOM     28  C   UNL     1      -5.923  -9.914  16.877  0.00  0.00    +0.038 A 
ATOM     30  C   UNL     1      -4.822 -11.410  18.423  0.00  0.00    +0.038 A 
ATOM     33  C   UNL     1      -5.939 -10.659  18.057  0.00  0.00    +0.123 A 
ENDBRANCH  17  20
ENDBRANCH   7  17
BRANCH   7  18
ATOM     18  C   UNL     1      -1.973 -10.789  13.198  0.00  0.00    +0.120 C 
BRANCH  18  21
ATOM      2  F   UNL     1      -5.560  -8.742   9.364  0.00  0.00    -0.205 F 
ATOM     21  C   UNL     1      -2.931 -10.242  12.174  0.00  0.00    -0.033 A 
ATOM     24  C   UNL     1      -4.306 -10.297  12.404  0.00  0.00    +0.008 A 
ATOM     26  C   UNL     1      -2.445  -9.678  10.993  0.00  0.00    +0.008 A 
ATOM     29  C   UNL     1      -5.194  -9.790  11.456  0.00  0.00    +0.038 A 
ATOM     31  C   UNL     1      -3.333  -9.172  10.045  0.00  0.00    +0.038 A 
ATOM     34  C   UNL     1      -4.707  -9.228  10.276  0.00  0.00    +0.123 A 
ENDBRANCH  18  21
ENDBRANCH   7  18
ENDBRANCH  13   7
ENDBRANCH  10  13
BRANCH  12  14
ATOM     14  C   UNL     1      -0.729 -16.485  12.802  0.00  0.00    +0.190 C 
BRANCH  14   5
ATOM      5  O   UNL     1       0.042 -15.922  11.753  0.00  0.00    -0.392 OA
ATOM     38  H   UNL     1       0.697 -15.332  12.164  0.00  0.00    +0.210 HD
ENDBRANCH  14   5
ENDBRANCH  12  14
TORSDOF 13
ENDMDL
MODEL 10
REMARK VINA RESULT:      -6.1     27.975     30.007
REMARK  Name = 28961265
REMARK  14 active torsions:
REMARK  status: ('A' for Active; 'I' for Inactive)
REMARK    1  A    between atoms: O_4  and  C_11
REMARK    2  A    between atoms: O_5  and  C_14
REMARK    3  A    between atoms: N_6  and  C_9
REMARK    4  A    between atoms: N_6  and  C_15
REMARK    5  A    between atoms: N_6  and  C_16
REMARK    6  A    between atoms: N_7  and  C_13
REMARK    7  A    between atoms: N_7  and  C_17
REMARK    8  A    between atoms: N_7  and  C_18
REMARK    9  A    between atoms: C_10  and  C_13
REMARK   10  A    between atoms: C_12  and  C_14
REMARK   11  A    between atoms: C_15  and  C_19
REMARK   12  A    between atoms: C_17  and  C_20
REMARK   13  A    between atoms: C_18  and  C_21
REMARK   14  A    between atoms: C_19  and  C_22
REMARK                            x       y       z     vdW  Elec       q    Type
REMARK                         _______ _______ _______ _____ _____    ______ ____
ROOT
ATOM      3  O   UNL     1      -2.432 -14.633  12.326  0.00  0.00    -0.366 OA
ATOM      9  C   UNL     1      -3.758 -15.249  14.205  0.00  0.00    +0.118 C 
ATOM     10  C   UNL     1      -3.300 -14.071  13.335  0.00  0.00    +0.152 C 
ATOM     11  C   UNL     1      -2.632 -16.258  14.036  0.00  0.00    +0.165 C 
ATOM     12  C   UNL     1      -2.282 -16.046  12.569  0.00  0.00    +0.174 C 
ENDROOT
BRANCH  11   4
ATOM      4  O   UNL     1      -1.520 -15.939  14.863  0.00  0.00    -0.388 OA
ATOM     37  H   UNL     1      -0.883 -16.671  14.795  0.00  0.00    +0.210 HD
ENDBRANCH  11   4
BRANCH   9   6
ATOM      6  N   UNL     1      -4.108 -14.935  15.579  0.00  0.00    -0.297 NA
ATOM     16  C   UNL     1      -4.397 -16.157  16.337  0.00  0.00    +0.105 C 
BRANCH   6  15
ATOM     15  C   UNL     1      -5.260 -14.029  15.630  0.00  0.00    +0.090 C 
BRANCH  15  19
ATOM     19  C   UNL     1      -6.126 -14.312  16.858  0.00  0.00    +0.071 C 
BRANCH  19  22
ATOM      8  N   UNL     1      -7.186 -12.694  18.336  0.00  0.00    -0.260 NA
ATOM     22  C   UNL     1      -6.022 -13.205  17.876  0.00  0.00    +0.042 A 
ATOM     27  C   UNL     1      -4.770 -12.772  18.284  0.00  0.00    +0.023 A 
ATOM     32  C   UNL     1      -4.710 -11.750  19.224  0.00  0.00    +0.003 A 
ATOM     35  C   UNL     1      -7.088 -11.702  19.249  0.00  0.00    +0.111 A 
ATOM     36  C   UNL     1      -5.885 -11.200  19.721  0.00  0.00    +0.020 A 
ENDBRANCH  19  22
ENDBRANCH  15  19
ENDBRANCH   6  15
ENDBRANCH   9   6
BRANCH  10  13
ATOM     13  C   UNL     1      -2.519 -12.966  14.038  0.00  0.00    +0.118 C 
BRANCH  13   7
ATOM      7  N   UNL     1      -2.846 -11.663  13.482  0.00  0.00    -0.291 NA
BRANCH   7  17
ATOM     17  C   UNL     1      -2.017 -11.378  12.308  0.00  0.00    +0.120 C 
BRANCH  17  20
ATOM      1  F   UNL     1      -5.106  -9.604   7.941  0.00  0.00    -0.205 F 
ATOM     20  C   UNL     1      -2.842 -10.904  11.141  0.00  0.00    -0.033 A 
ATOM     23  C   UNL     1      -3.546 -11.824  10.364  0.00  0.00    +0.008 A 
ATOM     25  C   UNL     1      -2.905  -9.544  10.836  0.00  0.00    +0.008 A 
ATOM     28  C   UNL     1      -4.311 -11.386   9.283  0.00  0.00    +0.038 A 
ATOM     30  C   UNL     1      -3.669  -9.105   9.756  0.00  0.00    +0.038 A 
ATOM     33  C   UNL     1      -4.373 -10.026   8.979  0.00  0.00    +0.123 A 
ENDBRANCH  17  20
ENDBRANCH   7  17
BRANCH   7  18
ATOM     18  C   UNL     1      -4.266 -11.592  13.126  0.00  0.00    +0.120 C 
BRANCH  18  21
ATOM      2  F   UNL     1      -7.312  -9.079  17.146  0.00  0.00    -0.205 F 
ATOM     21  C   UNL     1      -5.080 -10.921  14.200  0.00  0.00    -0.033 A 
ATOM     24  C   UNL     1      -6.468 -10.856  14.085  0.00  0.00    +0.008 A 
ATOM     26  C   UNL     1      -4.445 -10.364  15.311  0.00  0.00    +0.008 A 
ATOM     29  C   UNL     1      -7.223 -10.234  15.080  0.00  0.00    +0.038 A 
ATOM     31  C   UNL     1      -5.199  -9.742  16.305  0.00  0.00    +0.038 A 
ATOM     34  C   UNL     1      -6.588  -9.677  16.190  0.00  0.00    +0.123 A 
ENDBRANCH  18  21
ENDBRANCH   7  18
ENDBRANCH  13   7
ENDBRANCH  10  13
BRANCH  12  14
ATOM     14  C   UNL     1      -0.885 -16.478  12.162  0.00  0.00    +0.190 C 
BRANCH  14   5
ATOM      5  O   UNL     1       0.043 -15.497  12.599  0.00  0.00    -0.392 OA
ATOM     38  H   UNL     1      -0.340 -14.628  12.390  0.00  0.00    +0.210 HD
ENDBRANCH  14   5
ENDBRANCH  12  14
TORSDOF 13
ENDMDL
