MODEL 1
REMARK VINA RESULT:      -6.7      0.000      0.000
REMARK  Name = 51138117
REMARK  9 active torsions:
REMARK  status: ('A' for Active; 'I' for Inactive)
REMARK    1  A    between atoms: N_3  and  C_8
REMARK    2  A    between atoms: N_4  and  C_25
REMARK    3  A    between atoms: C_5  and  C_8
REMARK    4  A    between atoms: C_9  and  C_15
REMARK    5  A    between atoms: C_10  and  C_16
REMARK    6  A    between atoms: C_15  and  C_18
REMARK    7  A    between atoms: C_18  and  C_23
REMARK    8  A    between atoms: C_18  and  C_24
REMARK    9  A    between atoms: C_25  and  C_26
REMARK                            x       y       z     vdW  Elec       q    Type
REMARK                         _______ _______ _______ _____ _____    ______ ____
ROOT
ATOM      2  N   UNL     1      -6.662 -10.952  16.127  0.00  0.00    -0.299 NA
ATOM      4  N   UNL     1      -3.585 -10.465  12.151  0.00  0.00    -0.343 N 
ATOM      9  C   UNL     1      -5.312 -10.797  16.685  0.00  0.00    +0.085 C 
ATOM     10  C   UNL     1      -7.083  -9.873  15.244  0.00  0.00    +0.145 C 
ATOM     11  C   UNL     1      -6.861 -10.230  13.775  0.00  0.00    +0.065 C 
ATOM     12  C   UNL     1      -4.163 -10.814  15.672  0.00  0.00    -0.021 A 
ATOM     13  C   UNL     1      -4.306 -10.627  14.266  0.00  0.00    +0.008 A 
ATOM     14  C   UNL     1      -5.425 -10.375  13.399  0.00  0.00    -0.020 A 
ATOM     17  C   UNL     1      -3.169 -10.651  13.449  0.00  0.00    +0.050 A 
ATOM     19  C   UNL     1      -4.937 -10.293  12.111  0.00  0.00    +0.090 A 
ATOM     20  C   UNL     1      -2.836 -10.946  16.154  0.00  0.00    +0.006 A 
ATOM     21  C   UNL     1      -1.875 -10.831  13.937  0.00  0.00    +0.026 A 
ATOM     22  C   UNL     1      -1.725 -10.965  15.313  0.00  0.00    +0.002 A 
ATOM     28  H   UNL     1      -6.767 -11.860  15.675  0.00  0.00    +0.123 HD
ENDROOT
BRANCH  10  16
ATOM      1  O   UNL     1      -9.234 -10.622  15.955  0.00  0.00    -0.274 OA
ATOM      3  N   UNL     1      -9.012  -8.459  15.125  0.00  0.00    -0.314 N 
ATOM     16  C   UNL     1      -8.552  -9.712  15.493  0.00  0.00    +0.230 C 
ATOM     29  H   UNL     1      -8.353  -7.768  14.777  0.00  0.00    +0.149 HD
BRANCH   3   8
ATOM      8  C   UNL     1     -10.395  -8.058  15.243  0.00  0.00    +0.107 C 
BRANCH   8   5
ATOM      5  C   UNL     1     -10.508  -6.606  15.563  0.00  0.00    +0.006 C 
ATOM      6  C   UNL     1     -11.595  -5.796  14.918  0.00  0.00    +0.005 C 
ATOM      7  C   UNL     1     -11.670  -6.124  16.380  0.00  0.00    +0.005 C 
ENDBRANCH   8   5
ENDBRANCH   3   8
ENDBRANCH  10  16
BRANCH   9  15
ATOM     15  C   UNL     1      -5.193 -11.920  17.732  0.00  0.00    +0.026 C 
BRANCH  15  18
ATOM     18  C   UNL     1      -4.734 -11.413  19.102  0.00  0.00    -0.015 C 
ATOM     23  C   UNL     1      -5.864 -11.393  20.132  0.00  0.00    +0.007 C 
ATOM     24  C   UNL     1      -3.588 -12.294  19.608  0.00  0.00    +0.007 C 
ENDBRANCH  15  18
ENDBRANCH   9  15
BRANCH   4  25
ATOM     25  C   UNL     1      -2.726 -10.433  10.988  0.00  0.00    +0.148 C 
BRANCH  25  26
ATOM     26  C   UNL     1      -2.018  -9.119  10.834  0.00  0.00    -0.013 C 
ATOM     27  C   UNL     1      -0.715  -8.940  11.079  0.00  0.00    +0.005 C 
ENDBRANCH  25  26
ENDBRANCH   4  25
TORSDOF 7
ENDMDL
MODEL 2
REMARK VINA RESULT:      -6.5     26.511     28.917
REMARK  Name = 51138117
REMARK  9 active torsions:
REMARK  status: ('A' for Active; 'I' for Inactive)
REMARK    1  A    between atoms: N_3  and  C_8
REMARK    2  A    between atoms: N_4  and  C_25
REMARK    3  A    between atoms: C_5  and  C_8
REMARK    4  A    between atoms: C_9  and  C_15
REMARK    5  A    between atoms: C_10  and  C_16
REMARK    6  A    between atoms: C_15  and  C_18
REMARK    7  A    between atoms: C_18  and  C_23
REMARK    8  A    between atoms: C_18  and  C_24
REMARK    9  A    between atoms: C_25  and  C_26
REMARK                            x       y       z     vdW  Elec       q    Type
REMARK                         _______ _______ _______ _____ _____    ______ ____
ROOT
ATOM      2  N   UNL     1      13.490   8.893  19.947  0.00  0.00    -0.299 NA
ATOM      4  N   UNL     1      18.273   8.703  21.558  0.00  0.00    -0.343 N 
ATOM      9  C   UNL     1      13.999   7.579  19.530  0.00  0.00    +0.085 C 
ATOM     10  C   UNL     1      13.593   9.159  21.375  0.00  0.00    +0.145 C 
ATOM     11  C   UNL     1      14.841   9.976  21.706  0.00  0.00    +0.065 C 
ATOM     12  C   UNL     1      15.498   7.344  19.741  0.00  0.00    -0.021 A 
ATOM     13  C   UNL     1      16.339   8.123  20.587  0.00  0.00    +0.008 A 
ATOM     14  C   UNL     1      16.121   9.254  21.448  0.00  0.00    -0.020 A 
ATOM     17  C   UNL     1      17.694   7.793  20.704  0.00  0.00    +0.050 A 
ATOM     19  C   UNL     1      17.336   9.581  22.015  0.00  0.00    +0.090 A 
ATOM     20  C   UNL     1      16.103   6.223  19.118  0.00  0.00    +0.006 A 
ATOM     21  C   UNL     1      18.283   6.713  20.045  0.00  0.00    +0.026 A 
ATOM     22  C   UNL     1      17.456   5.921  19.256  0.00  0.00    +0.002 A 
ATOM     28  H   UNL     1      13.919   9.639  19.401  0.00  0.00    +0.123 HD
ENDROOT
BRANCH  10  16
ATOM      1  O   UNL     1      11.748  10.582  20.855  0.00  0.00    -0.274 OA
ATOM      3  N   UNL     1      12.086   9.937  23.066  0.00  0.00    -0.314 N 
ATOM     16  C   UNL     1      12.375   9.966  21.712  0.00  0.00    +0.230 C 
ATOM     29  H   UNL     1      12.657   9.371  23.686  0.00  0.00    +0.149 HD
BRANCH   3   8
ATOM      8  C   UNL     1      10.975  10.652  23.653  0.00  0.00    +0.107 C 
BRANCH   8   5
ATOM      5  C   UNL     1      11.399  11.997  24.136  0.00  0.00    +0.006 C 
ATOM      6  C   UNL     1      10.414  13.130  24.105  0.00  0.00    +0.005 C 
ATOM      7  C   UNL     1      10.825  12.529  25.417  0.00  0.00    +0.005 C 
ENDBRANCH   8   5
ENDBRANCH   3   8
ENDBRANCH  10  16
BRANCH   9  15
ATOM     15  C   UNL     1      13.584   7.452  18.053  0.00  0.00    +0.026 C 
BRANCH  15  18
ATOM     18  C   UNL     1      13.088   8.772  17.456  0.00  0.00    -0.015 C 
ATOM     23  C   UNL     1      13.893   9.205  16.230  0.00  0.00    +0.007 C 
ATOM     24  C   UNL     1      11.610   8.632  17.080  0.00  0.00    +0.007 C 
ENDBRANCH  15  18
ENDBRANCH   9  15
BRANCH   4  25
ATOM     25  C   UNL     1      19.667   8.728  21.943  0.00  0.00    +0.148 C 
BRANCH  25  26
ATOM     26  C   UNL     1      19.937   7.908  23.171  0.00  0.00    -0.013 C 
ATOM     27  C   UNL     1      20.491   6.690  23.149  0.00  0.00    +0.005 C 
ENDBRANCH  25  26
ENDBRANCH   4  25
TORSDOF 7
ENDMDL
MODEL 3
REMARK VINA RESULT:      -6.4      1.844      2.296
REMARK  Name = 51138117
REMARK  9 active torsions:
REMARK  status: ('A' for Active; 'I' for Inactive)
REMARK    1  A    between atoms: N_3  and  C_8
REMARK    2  A    between atoms: N_4  and  C_25
REMARK    3  A    between atoms: C_5  and  C_8
REMARK    4  A    between atoms: C_9  and  C_15
REMARK    5  A    between atoms: C_10  and  C_16
REMARK    6  A    between atoms: C_15  and  C_18
REMARK    7  A    between atoms: C_18  and  C_23
REMARK    8  A    between atoms: C_18  and  C_24
REMARK    9  A    between atoms: C_25  and  C_26
REMARK                            x       y       z     vdW  Elec       q    Type
REMARK                         _______ _______ _______ _____ _____    ______ ____
ROOT
ATOM      2  N   UNL     1      -6.646 -10.939  16.545  0.00  0.00    -0.299 NA
ATOM      4  N   UNL     1      -3.638 -10.411  12.522  0.00  0.00    -0.343 N 
ATOM      9  C   UNL     1      -5.287 -10.784  17.081  0.00  0.00    +0.085 C 
ATOM     10  C   UNL     1      -7.085  -9.854  15.678  0.00  0.00    +0.145 C 
ATOM     11  C   UNL     1      -6.887 -10.199  14.203  0.00  0.00    +0.065 C 
ATOM     12  C   UNL     1      -4.155 -10.789  16.049  0.00  0.00    -0.021 A 
ATOM     13  C   UNL     1      -4.322 -10.592  14.648  0.00  0.00    +0.008 A 
ATOM     14  C   UNL     1      -5.457 -10.337  13.801  0.00  0.00    -0.020 A 
ATOM     17  C   UNL     1      -3.200 -10.606  13.812  0.00  0.00    +0.050 A 
ATOM     19  C   UNL     1      -4.990 -10.242  12.506  0.00  0.00    +0.090 A 
ATOM     20  C   UNL     1      -2.820 -10.921  16.507  0.00  0.00    +0.006 A 
ATOM     21  C   UNL     1      -1.896 -10.785  14.276  0.00  0.00    +0.026 A 
ATOM     22  C   UNL     1      -1.723 -10.930  15.648  0.00  0.00    +0.002 A 
ATOM     28  H   UNL     1      -6.756 -11.844  16.087  0.00  0.00    +0.123 HD
ENDROOT
BRANCH  10  16
ATOM      1  O   UNL     1      -9.393  -9.838  15.071  0.00  0.00    -0.274 OA
ATOM      3  N   UNL     1      -8.804  -9.374  17.274  0.00  0.00    -0.314 N 
ATOM     16  C   UNL     1      -8.550  -9.700  15.953  0.00  0.00    +0.230 C 
ATOM     29  H   UNL     1      -8.030  -9.310  17.930  0.00  0.00    +0.149 HD
BRANCH   3   8
ATOM      8  C   UNL     1     -10.134  -9.148  17.792  0.00  0.00    +0.107 C 
BRANCH   8   5
ATOM      5  C   UNL     1     -10.612 -10.322  18.577  0.00  0.00    +0.006 C 
ATOM      6  C   UNL     1     -10.733 -10.206  20.068  0.00  0.00    +0.005 C 
ATOM      7  C   UNL     1     -11.967 -10.272  19.218  0.00  0.00    +0.005 C 
ENDBRANCH   8   5
ENDBRANCH   3   8
ENDBRANCH  10  16
BRANCH   9  15
ATOM     15  C   UNL     1      -5.147 -11.914  18.117  0.00  0.00    +0.026 C 
BRANCH  15  18
ATOM     18  C   UNL     1      -5.887 -11.621  19.425  0.00  0.00    -0.015 C 
ATOM     23  C   UNL     1      -6.166 -10.131  19.624  0.00  0.00    +0.007 C 
ATOM     24  C   UNL     1      -7.205 -12.401  19.444  0.00  0.00    +0.007 C 
ENDBRANCH  15  18
ENDBRANCH   9  15
BRANCH   4  25
ATOM     25  C   UNL     1      -2.798 -10.367  11.345  0.00  0.00    +0.148 C 
BRANCH  25  26
ATOM     26  C   UNL     1      -3.062  -9.156  10.498  0.00  0.00    -0.013 C 
ATOM     27  C   UNL     1      -3.822  -9.166   9.398  0.00  0.00    +0.005 C 
ENDBRANCH  25  26
ENDBRANCH   4  25
TORSDOF 7
ENDMDL
MODEL 4
REMARK VINA RESULT:      -6.3      2.329      6.919
REMARK  Name = 51138117
REMARK  9 active torsions:
REMARK  status: ('A' for Active; 'I' for Inactive)
REMARK    1  A    between atoms: N_3  and  C_8
REMARK    2  A    between atoms: N_4  and  C_25
REMARK    3  A    between atoms: C_5  and  C_8
REMARK    4  A    between atoms: C_9  and  C_15
REMARK    5  A    between atoms: C_10  and  C_16
REMARK    6  A    between atoms: C_15  and  C_18
REMARK    7  A    between atoms: C_18  and  C_23
REMARK    8  A    between atoms: C_18  and  C_24
REMARK    9  A    between atoms: C_25  and  C_26
REMARK                            x       y       z     vdW  Elec       q    Type
REMARK                         _______ _______ _______ _____ _____    ______ ____
ROOT
ATOM      2  N   UNL     1      -5.627  -9.883  14.919  0.00  0.00    -0.299 NA
ATOM      4  N   UNL     1      -8.890 -10.633  18.701  0.00  0.00    -0.343 N 
ATOM      9  C   UNL     1      -4.938 -10.765  15.871  0.00  0.00    +0.085 C 
ATOM     10  C   UNL     1      -6.907 -10.386  14.440  0.00  0.00    +0.145 C 
ATOM     11  C   UNL     1      -8.074  -9.795  15.229  0.00  0.00    +0.065 C 
ATOM     12  C   UNL     1      -5.653 -10.999  17.205  0.00  0.00    -0.021 A 
ATOM     13  C   UNL     1      -7.029 -10.727  17.458  0.00  0.00    +0.008 A 
ATOM     14  C   UNL     1      -8.110 -10.214  16.660  0.00  0.00    -0.020 A 
ATOM     17  C   UNL     1      -7.564 -11.000  18.722  0.00  0.00    +0.050 A 
ATOM     19  C   UNL     1      -9.229 -10.165  17.466  0.00  0.00    +0.090 A 
ATOM     20  C   UNL     1      -4.931 -11.605  18.264  0.00  0.00    +0.006 A 
ATOM     21  C   UNL     1      -6.825 -11.554  19.767  0.00  0.00    +0.026 A 
ATOM     22  C   UNL     1      -5.495 -11.866  19.511  0.00  0.00    +0.002 A 
ATOM     28  H   UNL     1      -5.721  -8.941  15.299  0.00  0.00    +0.123 HD
ENDROOT
BRANCH  10  16
ATOM      1  O   UNL     1      -8.008 -10.114  12.340  0.00  0.00    -0.274 OA
ATOM      3  N   UNL     1      -5.831  -9.327  12.581  0.00  0.00    -0.314 N 
ATOM     16  C   UNL     1      -6.998  -9.932  13.015  0.00  0.00    +0.230 C 
ATOM     29  H   UNL     1      -5.061  -9.203  13.233  0.00  0.00    +0.149 HD
BRANCH   3   8
ATOM      8  C   UNL     1      -5.653  -8.822  11.239  0.00  0.00    +0.107 C 
BRANCH   8   5
ATOM      5  C   UNL     1      -4.696  -9.668  10.469  0.00  0.00    +0.006 C 
ATOM      6  C   UNL     1      -4.185  -9.177   9.146  0.00  0.00    +0.005 C 
ATOM      7  C   UNL     1      -3.270  -9.223  10.333  0.00  0.00    +0.005 C 
ENDBRANCH   8   5
ENDBRANCH   3   8
ENDBRANCH  10  16
BRANCH   9  15
ATOM     15  C   UNL     1      -3.546 -10.133  16.049  0.00  0.00    +0.026 C 
BRANCH  15  18
ATOM     18  C   UNL     1      -2.453 -10.862  15.263  0.00  0.00    -0.015 C 
ATOM     23  C   UNL     1      -2.489 -10.543  13.768  0.00  0.00    +0.007 C 
ATOM     24  C   UNL     1      -1.084 -10.489  15.838  0.00  0.00    +0.007 C 
ENDBRANCH  15  18
ENDBRANCH   9  15
BRANCH   4  25
ATOM     25  C   UNL     1      -9.811 -10.740  19.811  0.00  0.00    +0.148 C 
BRANCH  25  26
ATOM     26  C   UNL     1     -11.137 -10.102  19.520  0.00  0.00    -0.013 C 
ATOM     27  C   UNL     1     -12.134 -10.010  20.408  0.00  0.00    +0.005 C 
ENDBRANCH  25  26
ENDBRANCH   4  25
TORSDOF 7
ENDMDL
MODEL 5
REMARK VINA RESULT:      -6.3     27.096     29.521
REMARK  Name = 51138117
REMARK  9 active torsions:
REMARK  status: ('A' for Active; 'I' for Inactive)
REMARK    1  A    between atoms: N_3  and  C_8
REMARK    2  A    between atoms: N_4  and  C_25
REMARK    3  A    between atoms: C_5  and  C_8
REMARK    4  A    between atoms: C_9  and  C_15
REMARK    5  A    between atoms: C_10  and  C_16
REMARK    6  A    between atoms: C_15  and  C_18
REMARK    7  A    between atoms: C_18  and  C_23
REMARK    8  A    between atoms: C_18  and  C_24
REMARK    9  A    between atoms: C_25  and  C_26
REMARK                            x       y       z     vdW  Elec       q    Type
REMARK                         _______ _______ _______ _____ _____    ______ ____
ROOT
ATOM      2  N   UNL     1      14.938   9.670  20.376  0.00  0.00    -0.299 NA
ATOM      4  N   UNL     1      19.437   7.627  21.418  0.00  0.00    -0.343 N 
ATOM      9  C   UNL     1      14.875   8.291  19.874  0.00  0.00    +0.085 C 
ATOM     10  C   UNL     1      15.273   9.788  21.788  0.00  0.00    +0.145 C 
ATOM     11  C   UNL     1      16.762  10.064  21.990  0.00  0.00    +0.065 C 
ATOM     12  C   UNL     1      16.191   7.506  19.905  0.00  0.00    -0.021 A 
ATOM     13  C   UNL     1      17.341   7.864  20.665  0.00  0.00    +0.008 A 
ATOM     14  C   UNL     1      17.648   8.939  21.570  0.00  0.00    -0.020 A 
ATOM     17  C   UNL     1      18.479   7.051  20.617  0.00  0.00    +0.050 A 
ATOM     19  C   UNL     1      18.946   8.757  22.000  0.00  0.00    +0.090 A 
ATOM     20  C   UNL     1      16.268   6.283  19.191  0.00  0.00    +0.006 A 
ATOM     21  C   UNL     1      18.553   5.874  19.870  0.00  0.00    +0.026 A 
ATOM     22  C   UNL     1      17.417   5.495  19.165  0.00  0.00    +0.002 A 
ATOM     28  H   UNL     1      15.559  10.239  19.800  0.00  0.00    +0.123 HD
ENDROOT
BRANCH  10  16
ATOM      1  O   UNL     1      14.495  12.043  21.694  0.00  0.00    -0.274 OA
ATOM      3  N   UNL     1      13.797  10.681  23.449  0.00  0.00    -0.314 N 
ATOM     16  C   UNL     1      14.486  10.964  22.281  0.00  0.00    +0.230 C 
ATOM     29  H   UNL     1      13.838   9.743  23.837  0.00  0.00    +0.149 HD
BRANCH   3   8
ATOM      8  C   UNL     1      12.981  11.652  24.141  0.00  0.00    +0.107 C 
BRANCH   8   5
ATOM      5  C   UNL     1      11.550  11.534  23.739  0.00  0.00    +0.006 C 
ATOM      6  C   UNL     1      10.568  12.564  24.217  0.00  0.00    +0.005 C 
ATOM      7  C   UNL     1      10.976  12.529  22.774  0.00  0.00    +0.005 C 
ENDBRANCH   8   5
ENDBRANCH   3   8
ENDBRANCH  10  16
BRANCH   9  15
ATOM     15  C   UNL     1      14.299   8.420  18.452  0.00  0.00    +0.026 C 
BRANCH  15  18
ATOM     18  C   UNL     1      13.027   7.592  18.245  0.00  0.00    -0.015 C 
ATOM     23  C   UNL     1      12.570   6.884  19.521  0.00  0.00    +0.007 C 
ATOM     24  C   UNL     1      11.909   8.505  17.732  0.00  0.00    +0.007 C 
ENDBRANCH  15  18
ENDBRANCH   9  15
BRANCH   4  25
ATOM     25  C   UNL     1      20.771   7.110  21.641  0.00  0.00    +0.148 C 
BRANCH  25  26
ATOM     26  C   UNL     1      21.682   7.355  20.474  0.00  0.00    -0.013 C 
ATOM     27  C   UNL     1      22.194   8.552  20.165  0.00  0.00    +0.005 C 
ENDBRANCH  25  26
ENDBRANCH   4  25
TORSDOF 7
ENDMDL
MODEL 6
REMARK VINA RESULT:      -6.2      4.100      8.550
REMARK  Name = 51138117
REMARK  9 active torsions:
REMARK  status: ('A' for Active; 'I' for Inactive)
REMARK    1  A    between atoms: N_3  and  C_8
REMARK    2  A    between atoms: N_4  and  C_25
REMARK    3  A    between atoms: C_5  and  C_8
REMARK    4  A    between atoms: C_9  and  C_15
REMARK    5  A    between atoms: C_10  and  C_16
REMARK    6  A    between atoms: C_15  and  C_18
REMARK    7  A    between atoms: C_18  and  C_23
REMARK    8  A    between atoms: C_18  and  C_24
REMARK    9  A    between atoms: C_25  and  C_26
REMARK                            x       y       z     vdW  Elec       q    Type
REMARK                         _______ _______ _______ _____ _____    ______ ____
ROOT
ATOM      2  N   UNL     1      -9.732  -9.326  18.575  0.00  0.00    -0.299 NA
ATOM      4  N   UNL     1     -12.390  -6.589  15.266  0.00  0.00    -0.343 N 
ATOM      9  C   UNL     1     -11.071  -9.930  18.543  0.00  0.00    +0.085 C 
ATOM     10  C   UNL     1      -9.069  -9.246  17.280  0.00  0.00    +0.145 C 
ATOM     11  C   UNL     1      -9.246  -7.869  16.643  0.00  0.00    +0.065 C 
ATOM     12  C   UNL     1     -12.131  -9.166  17.744  0.00  0.00    -0.021 A 
ATOM     13  C   UNL     1     -11.860  -8.147  16.785  0.00  0.00    +0.008 A 
ATOM     14  C   UNL     1     -10.655  -7.550  16.272  0.00  0.00    -0.020 A 
ATOM     17  C   UNL     1     -12.923  -7.535  16.111  0.00  0.00    +0.050 A 
ATOM     19  C   UNL     1     -11.030  -6.594  15.351  0.00  0.00    +0.090 A 
ATOM     20  C   UNL     1     -13.492  -9.536  17.895  0.00  0.00    +0.006 A 
ATOM     21  C   UNL     1     -14.260  -7.880  16.308  0.00  0.00    +0.026 A 
ATOM     22  C   UNL     1     -14.527  -8.906  17.208  0.00  0.00    +0.002 A 
ATOM     28  H   UNL     1      -9.754  -8.415  19.034  0.00  0.00    +0.123 HD
ENDROOT
BRANCH  10  16
ATOM      1  O   UNL     1      -6.746  -9.240  16.733  0.00  0.00    -0.274 OA
ATOM      3  N   UNL     1      -7.405  -9.972  18.842  0.00  0.00    -0.314 N 
ATOM     16  C   UNL     1      -7.616  -9.471  17.569  0.00  0.00    +0.230 C 
ATOM     29  H   UNL     1      -8.198 -10.101  19.465  0.00  0.00    +0.149 HD
BRANCH   3   8
ATOM      8  C   UNL     1      -6.095 -10.296  19.358  0.00  0.00    +0.107 C 
BRANCH   8   5
ATOM      5  C   UNL     1      -5.631 -11.619  18.852  0.00  0.00    +0.006 C 
ATOM      6  C   UNL     1      -4.483 -11.673  17.886  0.00  0.00    +0.005 C 
ATOM      7  C   UNL     1      -4.298 -12.147  19.297  0.00  0.00    +0.005 C 
ENDBRANCH   8   5
ENDBRANCH   3   8
ENDBRANCH  10  16
BRANCH   9  15
ATOM     15  C   UNL     1     -11.456 -10.100  20.024  0.00  0.00    +0.026 C 
BRANCH  15  18
ATOM     18  C   UNL     1     -11.696 -11.561  20.415  0.00  0.00    -0.015 C 
ATOM     23  C   UNL     1     -13.112 -11.807  20.937  0.00  0.00    +0.007 C 
ATOM     24  C   UNL     1     -11.429 -12.458  19.202  0.00  0.00    +0.007 C 
ENDBRANCH  15  18
ENDBRANCH   9  15
BRANCH   4  25
ATOM     25  C   UNL     1     -13.147  -5.720  14.391  0.00  0.00    +0.148 C 
BRANCH  25  26
ATOM     26  C   UNL     1     -12.323  -5.192  13.255  0.00  0.00    -0.013 C 
ATOM     27  C   UNL     1     -12.390  -3.934  12.804  0.00  0.00    +0.005 C 
ENDBRANCH  25  26
ENDBRANCH   4  25
TORSDOF 7
ENDMDL
MODEL 7
REMARK VINA RESULT:      -6.2     23.335     28.561
REMARK  Name = 51138117
REMARK  9 active torsions:
REMARK  status: ('A' for Active; 'I' for Inactive)
REMARK    1  A    between atoms: N_3  and  C_8
REMARK    2  A    between atoms: N_4  and  C_25
REMARK    3  A    between atoms: C_5  and  C_8
REMARK    4  A    between atoms: C_9  and  C_15
REMARK    5  A    between atoms: C_10  and  C_16
REMARK    6  A    between atoms: C_15  and  C_18
REMARK    7  A    between atoms: C_18  and  C_23
REMARK    8  A    between atoms: C_18  and  C_24
REMARK    9  A    between atoms: C_25  and  C_26
REMARK                            x       y       z     vdW  Elec       q    Type
REMARK                         _______ _______ _______ _____ _____    ______ ____
ROOT
ATOM      2  N   UNL     1      14.644   6.838   3.437  0.00  0.00    -0.299 NA
ATOM      4  N   UNL     1      11.017   6.491   6.934  0.00  0.00    -0.343 N 
ATOM      9  C   UNL     1      13.373   6.921   2.703  0.00  0.00    +0.085 C 
ATOM     10  C   UNL     1      14.806   7.833   4.487  0.00  0.00    +0.145 C 
ATOM     11  C   UNL     1      14.431   7.271   5.857  0.00  0.00    +0.065 C 
ATOM     12  C   UNL     1      12.108   6.656   3.524  0.00  0.00    -0.021 A 
ATOM     13  C   UNL     1      12.034   6.676   4.947  0.00  0.00    +0.008 A 
ATOM     14  C   UNL     1      12.985   6.930   5.995  0.00  0.00    -0.020 A 
ATOM     17  C   UNL     1      10.808   6.430   5.576  0.00  0.00    +0.050 A 
ATOM     19  C   UNL     1      12.320   6.796   7.196  0.00  0.00    +0.090 A 
ATOM     20  C   UNL     1      10.885   6.449   2.837  0.00  0.00    +0.006 A 
ATOM     21  C   UNL     1       9.623   6.180   4.883  0.00  0.00    +0.026 A 
ATOM     22  C   UNL     1       9.680   6.208   3.494  0.00  0.00    +0.002 A 
ATOM     28  H   UNL     1      14.795   5.895   3.795  0.00  0.00    +0.123 HD
ENDROOT
BRANCH  10  16
ATOM      1  O   UNL     1      17.029   7.741   3.623  0.00  0.00    -0.274 OA
ATOM      3  N   UNL     1      16.615   8.996   5.540  0.00  0.00    -0.314 N 
ATOM     16  C   UNL     1      16.265   8.176   4.480  0.00  0.00    +0.230 C 
ATOM     29  H   UNL     1      15.895   9.321   6.179  0.00  0.00    +0.149 HD
BRANCH   3   8
ATOM      8  C   UNL     1      17.966   9.453   5.774  0.00  0.00    +0.107 C 
BRANCH   8   5
ATOM      5  C   UNL     1      18.777   8.404   6.456  0.00  0.00    +0.006 C 
ATOM      6  C   UNL     1      20.151   8.088   5.940  0.00  0.00    +0.005 C 
ATOM      7  C   UNL     1      19.988   8.811   7.244  0.00  0.00    +0.005 C 
ENDBRANCH   8   5
ENDBRANCH   3   8
ENDBRANCH  10  16
BRANCH   9  15
ATOM     15  C   UNL     1      13.535   5.935   1.532  0.00  0.00    +0.026 C 
BRANCH  15  18
ATOM     18  C   UNL     1      13.916   4.524   1.987  0.00  0.00    -0.015 C 
ATOM     23  C   UNL     1      12.784   3.514   1.789  0.00  0.00    +0.007 C 
ATOM     24  C   UNL     1      15.158   4.063   1.219  0.00  0.00    +0.007 C 
ENDBRANCH  15  18
ENDBRANCH   9  15
BRANCH   4  25
ATOM     25  C   UNL     1      10.010   6.285   7.952  0.00  0.00    +0.148 C 
BRANCH  25  26
ATOM     26  C   UNL     1       9.881   4.843   8.347  0.00  0.00    -0.013 C 
ATOM     27  C   UNL     1       9.398   4.431   9.525  0.00  0.00    +0.005 C 
ENDBRANCH  25  26
ENDBRANCH   4  25
TORSDOF 7
ENDMDL
MODEL 8
REMARK VINA RESULT:      -6.2     22.381     26.793
REMARK  Name = 51138117
REMARK  9 active torsions:
REMARK  status: ('A' for Active; 'I' for Inactive)
REMARK    1  A    between atoms: N_3  and  C_8
REMARK    2  A    between atoms: N_4  and  C_25
REMARK    3  A    between atoms: C_5  and  C_8
REMARK    4  A    between atoms: C_9  and  C_15
REMARK    5  A    between atoms: C_10  and  C_16
REMARK    6  A    between atoms: C_15  and  C_18
REMARK    7  A    between atoms: C_18  and  C_23
REMARK    8  A    between atoms: C_18  and  C_24
REMARK    9  A    between atoms: C_25  and  C_26
REMARK                            x       y       z     vdW  Elec       q    Type
REMARK                         _______ _______ _______ _____ _____    ______ ____
ROOT
ATOM      2  N   UNL     1      12.224   6.151   4.923  0.00  0.00    -0.299 NA
ATOM      4  N   UNL     1      12.874   4.560   0.174  0.00  0.00    -0.343 N 
ATOM      9  C   UNL     1      13.048   7.177   4.269  0.00  0.00    +0.085 C 
ATOM     10  C   UNL     1      10.955   5.879   4.264  0.00  0.00    +0.145 C 
ATOM     11  C   UNL     1      11.048   4.659   3.349  0.00  0.00    +0.065 C 
ATOM     12  C   UNL     1      13.543   6.838   2.859  0.00  0.00    -0.021 A 
ATOM     13  C   UNL     1      13.012   5.810   2.028  0.00  0.00    +0.008 A 
ATOM     14  C   UNL     1      11.952   4.849   2.178  0.00  0.00    -0.020 A 
ATOM     17  C   UNL     1      13.548   5.612   0.750  0.00  0.00    +0.050 A 
ATOM     19  C   UNL     1      11.911   4.099   1.021  0.00  0.00    +0.090 A 
ATOM     20  C   UNL     1      14.556   7.647   2.284  0.00  0.00    +0.006 A 
ATOM     21  C   UNL     1      14.578   6.389   0.218  0.00  0.00    +0.026 A 
ATOM     22  C   UNL     1      15.066   7.424   1.007  0.00  0.00    +0.002 A 
ATOM     28  H   UNL     1      12.757   5.294   5.066  0.00  0.00    +0.123 HD
ENDROOT
BRANCH  10  16
ATOM      1  O   UNL     1       9.135   4.712   5.276  0.00  0.00    -0.274 OA
ATOM      3  N   UNL     1      10.179   6.420   6.464  0.00  0.00    -0.314 N 
ATOM     16  C   UNL     1       9.991   5.587   5.374  0.00  0.00    +0.230 C 
ATOM     29  H   UNL     1      10.937   7.095   6.451  0.00  0.00    +0.149 HD
BRANCH   3   8
ATOM      8  C   UNL     1       9.364   6.358   7.656  0.00  0.00    +0.107 C 
BRANCH   8   5
ATOM      5  C   UNL     1       9.987   5.481   8.688  0.00  0.00    +0.006 C 
ATOM      6  C   UNL     1       9.131   4.914   9.782  0.00  0.00    +0.005 C 
ATOM      7  C   UNL     1       9.657   4.017   8.701  0.00  0.00    +0.005 C 
ENDBRANCH   8   5
ENDBRANCH   3   8
ENDBRANCH  10  16
BRANCH   9  15
ATOM     15  C   UNL     1      14.202   7.436   5.254  0.00  0.00    +0.026 C 
BRANCH  15  18
ATOM     18  C   UNL     1      14.229   8.875   5.777  0.00  0.00    -0.015 C 
ATOM     23  C   UNL     1      13.262   9.098   6.941  0.00  0.00    +0.007 C 
ATOM     24  C   UNL     1      15.654   9.225   6.217  0.00  0.00    +0.007 C 
ENDBRANCH  15  18
ENDBRANCH   9  15
BRANCH   4  25
ATOM     25  C   UNL     1      13.123   4.021  -1.145  0.00  0.00    +0.148 C 
BRANCH  25  26
ATOM     26  C   UNL     1      12.327   2.779  -1.416  0.00  0.00    -0.013 C 
ATOM     27  C   UNL     1      12.108   2.284  -2.640  0.00  0.00    +0.005 C 
ENDBRANCH  25  26
ENDBRANCH   4  25
TORSDOF 7
ENDMDL
MODEL 9
REMARK VINA RESULT:      -6.1     26.564     29.474
REMARK  Name = 51138117
REMARK  9 active torsions:
REMARK  status: ('A' for Active; 'I' for Inactive)
REMARK    1  A    between atoms: N_3  and  C_8
REMARK    2  A    between atoms: N_4  and  C_25
REMARK    3  A    between atoms: C_5  and  C_8
REMARK    4  A    between atoms: C_9  and  C_15
REMARK    5  A    between atoms: C_10  and  C_16
REMARK    6  A    between atoms: C_15  and  C_18
REMARK    7  A    between atoms: C_18  and  C_23
REMARK    8  A    between atoms: C_18  and  C_24
REMARK    9  A    between atoms: C_25  and  C_26
REMARK                            x       y       z     vdW  Elec       q    Type
REMARK                         _______ _______ _______ _____ _____    ______ ____
ROOT
ATOM      2  N   UNL     1      15.966   9.557  22.032  0.00  0.00    -0.299 NA
ATOM      4  N   UNL     1      12.688   8.091  18.480  0.00  0.00    -0.343 N 
ATOM      9  C   UNL     1      14.653   9.522  22.691  0.00  0.00    +0.085 C 
ATOM     10  C   UNL     1      16.366   8.303  21.408  0.00  0.00    +0.145 C 
ATOM     11  C   UNL     1      16.054   8.295  19.913  0.00  0.00    +0.065 C 
ATOM     12  C   UNL     1      13.450   9.281  21.774  0.00  0.00    -0.021 A 
ATOM     13  C   UNL     1      13.520   8.765  20.448  0.00  0.00    +0.008 A 
ATOM     14  C   UNL     1      14.596   8.327  19.600  0.00  0.00    -0.020 A 
ATOM     17  C   UNL     1      12.340   8.577  19.719  0.00  0.00    +0.050 A 
ATOM     19  C   UNL     1      14.040   7.932  18.401  0.00  0.00    +0.090 A 
ATOM     20  C   UNL     1      12.148   9.507  22.290  0.00  0.00    +0.006 A 
ATOM     21  C   UNL     1      11.070   8.851  20.227  0.00  0.00    +0.026 A 
ATOM     22  C   UNL     1      10.993   9.309  21.537  0.00  0.00    +0.002 A 
ATOM     28  H   UNL     1      16.021  10.332  21.371  0.00  0.00    +0.123 HD
ENDROOT
BRANCH  10  16
ATOM      1  O   UNL     1      18.563   9.225  21.549  0.00  0.00    -0.274 OA
ATOM      3  N   UNL     1      18.286   6.929  21.809  0.00  0.00    -0.314 N 
ATOM     16  C   UNL     1      17.851   8.226  21.599  0.00  0.00    +0.230 C 
ATOM     29  H   UNL     1      17.605   6.176  21.860  0.00  0.00    +0.149 HD
BRANCH   3   8
ATOM      8  C   UNL     1      19.676   6.581  21.999  0.00  0.00    +0.107 C 
BRANCH   8   5
ATOM      5  C   UNL     1      20.310   6.181  20.710  0.00  0.00    +0.006 C 
ATOM      6  C   UNL     1      21.804   6.057  20.636  0.00  0.00    +0.005 C 
ATOM      7  C   UNL     1      20.946   4.827  20.597  0.00  0.00    +0.005 C 
ENDBRANCH   8   5
ENDBRANCH   3   8
ENDBRANCH  10  16
BRANCH   9  15
ATOM     15  C   UNL     1      14.562  10.861  23.445  0.00  0.00    +0.026 C 
BRANCH  15  18
ATOM     18  C   UNL     1      14.976  12.060  22.588  0.00  0.00    -0.015 C 
ATOM     23  C   UNL     1      13.779  12.875  22.095  0.00  0.00    +0.007 C 
ATOM     24  C   UNL     1      15.914  12.960  23.397  0.00  0.00    +0.007 C 
ENDBRANCH  15  18
ENDBRANCH   9  15
BRANCH   4  25
ATOM     25  C   UNL     1      11.767   7.770  17.412  0.00  0.00    +0.148 C 
BRANCH  25  26
ATOM     26  C   UNL     1      11.410   8.968  16.583  0.00  0.00    -0.013 C 
ATOM     27  C   UNL     1      12.175   9.448  15.595  0.00  0.00    +0.005 C 
ENDBRANCH  25  26
ENDBRANCH   4  25
TORSDOF 7
ENDMDL
MODEL 10
REMARK VINA RESULT:      -6.0     27.554     30.791
REMARK  Name = 51138117
REMARK  9 active torsions:
REMARK  status: ('A' for Active; 'I' for Inactive)
REMARK    1  A    between atoms: N_3  and  C_8
REMARK    2  A    between atoms: N_4  and  C_25
REMARK    3  A    between atoms: C_5  and  C_8
REMARK    4  A    between atoms: C_9  and  C_15
REMARK    5  A    between atoms: C_10  and  C_16
REMARK    6  A    between atoms: C_15  and  C_18
REMARK    7  A    between atoms: C_18  and  C_23
REMARK    8  A    between atoms: C_18  and  C_24
REMARK    9  A    between atoms: C_25  and  C_26
REMARK                            x       y       z     vdW  Elec       q    Type
REMARK                         _______ _______ _______ _____ _____    ______ ____
ROOT
ATOM      2  N   UNL     1      18.957   8.685  21.308  0.00  0.00    -0.299 NA
ATOM      4  N   UNL     1      14.366   7.322  19.704  0.00  0.00    -0.343 N 
ATOM      9  C   UNL     1      18.015   9.588  21.982  0.00  0.00    +0.085 C 
ATOM     10  C   UNL     1      18.704   7.268  21.528  0.00  0.00    +0.145 C 
ATOM     11  C   UNL     1      17.905   6.655  20.379  0.00  0.00    +0.065 C 
ATOM     12  C   UNL     1      16.556   9.500  21.522  0.00  0.00    -0.021 A 
ATOM     13  C   UNL     1      15.996   8.424  20.775  0.00  0.00    +0.008 A 
ATOM     14  C   UNL     1      16.516   7.187  20.258  0.00  0.00    -0.020 A 
ATOM     17  C   UNL     1      14.640   8.459  20.428  0.00  0.00    +0.050 A 
ATOM     19  C   UNL     1      15.484   6.549  19.601  0.00  0.00    +0.090 A 
ATOM     20  C   UNL     1      15.655  10.518  21.924  0.00  0.00    +0.006 A 
ATOM     21  C   UNL     1      13.779   9.494  20.793  0.00  0.00    +0.026 A 
ATOM     22  C   UNL     1      14.310  10.522  21.563  0.00  0.00    +0.002 A 
ATOM     28  H   UNL     1      19.017   8.899  20.313  0.00  0.00    +0.123 HD
ENDROOT
BRANCH  10  16
ATOM      1  O   UNL     1      20.876   6.910  22.451  0.00  0.00    -0.274 OA
ATOM      3  N   UNL     1      20.258   5.740  20.536  0.00  0.00    -0.314 N 
ATOM     16  C   UNL     1      20.059   6.630  21.578  0.00  0.00    +0.230 C 
ATOM     29  H   UNL     1      19.503   5.562  19.880  0.00  0.00    +0.149 HD
BRANCH   3   8
ATOM      8  C   UNL     1      21.491   5.011  20.343  0.00  0.00    +0.107 C 
BRANCH   8   5
ATOM      5  C   UNL     1      21.455   3.700  21.052  0.00  0.00    +0.006 C 
ATOM      6  C   UNL     1      22.716   2.892  21.162  0.00  0.00    +0.005 C 
ATOM      7  C   UNL     1      22.147   3.564  22.377  0.00  0.00    +0.005 C 
ENDBRANCH   8   5
ENDBRANCH   3   8
ENDBRANCH  10  16
BRANCH   9  15
ATOM     15  C   UNL     1      18.613  10.993  21.784  0.00  0.00    +0.026 C 
BRANCH  15  18
ATOM     18  C   UNL     1      19.046  11.259  20.339  0.00  0.00    -0.015 C 
ATOM     23  C   UNL     1      18.093  12.200  19.601  0.00  0.00    +0.007 C 
ATOM     24  C   UNL     1      20.459  11.849  20.337  0.00  0.00    +0.007 C 
ENDBRANCH  15  18
ENDBRANCH   9  15
BRANCH   4  25
ATOM     25  C   UNL     1      13.080   6.970  19.143  0.00  0.00    +0.148 C 
BRANCH  25  26
ATOM     26  C   UNL     1      12.821   7.651  17.831  0.00  0.00    -0.013 C 
ATOM     27  C   UNL     1      13.786   8.066  17.002  0.00  0.00    +0.005 C 
ENDBRANCH  25  26
ENDBRANCH   4  25
TORSDOF 7
ENDMDL
