MODEL 1
REMARK VINA RESULT:      -6.6      0.000      0.000
REMARK  Name = 75536265
REMARK  9 active torsions:
REMARK  status: ('A' for Active; 'I' for Inactive)
REMARK    1  A    between atoms: O_3  and  C_8
REMARK    2  A    between atoms: N_5  and  C_12
REMARK    3  A    between atoms: N_5  and  C_15
REMARK    4  A    between atoms: C_7  and  C_12
REMARK    5  A    between atoms: C_9  and  C_13
REMARK    6  A    between atoms: C_13  and  C_14
REMARK    7  A    between atoms: C_15  and  C_17
REMARK    8  A    between atoms: C_18  and  C_21
REMARK    9  A    between atoms: C_24  and  C_27
REMARK                            x       y       z     vdW  Elec       q    Type
REMARK                         _______ _______ _______ _____ _____    ______ ____
ROOT
ATOM      2  O   UNL     1      11.157  11.582  21.743  0.00  0.00    -0.369 OA
ATOM      7  C   UNL     1      11.541  12.716  22.531  0.00  0.00    +0.161 C 
ATOM      8  C   UNL     1      10.995  12.612  23.961  0.00  0.00    +0.145 C 
ATOM      9  C   UNL     1      11.525  10.311  22.285  0.00  0.00    +0.125 C 
ATOM     10  C   UNL     1      11.295  11.258  24.600  0.00  0.00    +0.036 C 
ATOM     11  C   UNL     1      10.904  10.116  23.668  0.00  0.00    +0.034 C 
ENDROOT
BRANCH   8   3
ATOM      3  O   UNL     1       9.575  12.773  23.925  0.00  0.00    -0.389 OA
ATOM     32  H   UNL     1       9.203  11.998  23.469  0.00  0.00    +0.210 HD
ENDBRANCH   8   3
BRANCH   7  12
ATOM     12  C   UNL     1      13.051  12.935  22.483  0.00  0.00    +0.115 C 
BRANCH  12   5
ATOM      5  N   UNL     1      13.443  13.572  21.234  0.00  0.00    -0.309 NA
ATOM     31  H   UNL     1      12.724  13.405  20.532  0.00  0.00    +0.122 HD
BRANCH   5  15
ATOM     15  C   UNL     1      14.723  13.055  20.765  0.00  0.00    +0.116 C 
BRANCH  15  17
ATOM     17  C   UNL     1      14.546  11.963  19.744  0.00  0.00    -0.034 A 
ATOM     19  C   UNL     1      15.614  11.123  19.428  0.00  0.00    +0.005 A 
ATOM     20  C   UNL     1      13.313  11.791  19.115  0.00  0.00    +0.005 A 
ATOM     22  C   UNL     1      15.448  10.109  18.484  0.00  0.00    +0.003 A 
ATOM     23  C   UNL     1      13.147  10.777  18.171  0.00  0.00    +0.003 A 
ATOM     24  C   UNL     1      14.215   9.936  17.855  0.00  0.00    -0.050 A 
ATOM     27  C   UNL     1      14.038   8.852  16.847  0.00  0.00    +0.044 C 
ENDBRANCH  15  17
ENDBRANCH   5  15
ENDBRANCH  12   5
ENDBRANCH   7  12
BRANCH   9  13
ATOM     13  C   UNL     1      11.041   9.240  21.316  0.00  0.00    +0.090 C 
BRANCH  13  14
ATOM      4  O   UNL     1      13.182   6.859  19.664  0.00  0.00    -0.354 OA
ATOM      6  N   UNL     1      11.944   7.444  19.897  0.00  0.00    -0.083 NA
ATOM     14  C   UNL     1      12.174   8.388  20.814  0.00  0.00    +0.087 A 
ATOM     16  C   UNL     1      13.526   8.444  21.194  0.00  0.00    +0.076 A 
ATOM     18  C   UNL     1      14.117   7.463  20.442  0.00  0.00    +0.167 A 
BRANCH  18  21
ATOM      1  F   UNL     1      19.305   5.522  19.926  0.00  0.00    -0.205 F 
ATOM     21  C   UNL     1      15.455   6.964  20.309  0.00  0.00    +0.020 A 
ATOM     25  C   UNL     1      16.337   7.034  21.388  0.00  0.00    +0.014 A 
ATOM     26  C   UNL     1      15.874   6.407  19.101  0.00  0.00    +0.014 A 
ATOM     28  C   UNL     1      17.637   6.548  21.259  0.00  0.00    +0.039 A 
ATOM     29  C   UNL     1      17.175   5.921  18.971  0.00  0.00    +0.039 A 
ATOM     30  C   UNL     1      18.056   5.991  20.050  0.00  0.00    +0.123 A 
ENDBRANCH  18  21
ENDBRANCH  13  14
ENDBRANCH   9  13
TORSDOF 8
ENDMDL
MODEL 2
REMARK VINA RESULT:      -6.5     27.540     30.377
REMARK  Name = 75536265
REMARK  9 active torsions:
REMARK  status: ('A' for Active; 'I' for Inactive)
REMARK    1  A    between atoms: O_3  and  C_8
REMARK    2  A    between atoms: N_5  and  C_12
REMARK    3  A    between atoms: N_5  and  C_15
REMARK    4  A    between atoms: C_7  and  C_12
REMARK    5  A    between atoms: C_9  and  C_13
REMARK    6  A    between atoms: C_13  and  C_14
REMARK    7  A    between atoms: C_15  and  C_17
REMARK    8  A    between atoms: C_18  and  C_21
REMARK    9  A    between atoms: C_24  and  C_27
REMARK                            x       y       z     vdW  Elec       q    Type
REMARK                         _______ _______ _______ _____ _____    ______ ____
ROOT
ATOM      2  O   UNL     1     -16.037   2.261  24.489  0.00  0.00    -0.369 OA
ATOM      7  C   UNL     1     -16.109   3.336  23.544  0.00  0.00    +0.161 C 
ATOM      8  C   UNL     1     -17.463   3.355  22.822  0.00  0.00    +0.145 C 
ATOM      9  C   UNL     1     -17.080   2.238  25.466  0.00  0.00    +0.125 C 
ATOM     10  C   UNL     1     -18.639   3.276  23.793  0.00  0.00    +0.036 C 
ATOM     11  C   UNL     1     -18.448   2.138  24.791  0.00  0.00    +0.034 C 
ENDROOT
BRANCH   8   3
ATOM      3  O   UNL     1     -17.537   2.222  21.953  0.00  0.00    -0.389 OA
ATOM     32  H   UNL     1     -16.717   2.198  21.431  0.00  0.00    +0.210 HD
ENDBRANCH   8   3
BRANCH   7  12
ATOM     12  C   UNL     1     -15.764   4.670  24.200  0.00  0.00    +0.115 C 
BRANCH  12   5
ATOM      5  N   UNL     1     -14.409   5.080  23.862  0.00  0.00    -0.309 NA
ATOM     31  H   UNL     1     -14.270   6.048  24.149  0.00  0.00    +0.122 HD
BRANCH   5  15
ATOM     15  C   UNL     1     -14.166   4.948  22.431  0.00  0.00    +0.116 C 
BRANCH  15  17
ATOM     17  C   UNL     1     -13.523   6.182  21.856  0.00  0.00    -0.034 A 
ATOM     19  C   UNL     1     -12.253   6.106  21.283  0.00  0.00    +0.005 A 
ATOM     20  C   UNL     1     -14.199   7.403  21.895  0.00  0.00    +0.005 A 
ATOM     22  C   UNL     1     -11.659   7.250  20.749  0.00  0.00    +0.003 A 
ATOM     23  C   UNL     1     -13.605   8.546  21.360  0.00  0.00    +0.003 A 
ATOM     24  C   UNL     1     -12.335   8.470  20.787  0.00  0.00    -0.050 A 
ATOM     27  C   UNL     1     -11.700   9.692  20.215  0.00  0.00    +0.044 C 
ENDBRANCH  15  17
ENDBRANCH   5  15
ENDBRANCH  12   5
ENDBRANCH   7  12
BRANCH   9  13
ATOM     13  C   UNL     1     -16.834   1.040  26.374  0.00  0.00    +0.090 C 
BRANCH  13  14
ATOM      4  O   UNL     1     -15.613   1.256  29.758  0.00  0.00    -0.354 OA
ATOM      6  N   UNL     1     -16.109   0.544  28.673  0.00  0.00    -0.083 NA
ATOM     14  C   UNL     1     -16.295   1.457  27.715  0.00  0.00    +0.087 A 
ATOM     16  C   UNL     1     -15.938   2.750  28.135  0.00  0.00    +0.076 A 
ATOM     18  C   UNL     1     -15.515   2.569  29.425  0.00  0.00    +0.167 A 
BRANCH  18  21
ATOM      1  F   UNL     1     -13.561   5.931  33.403  0.00  0.00    -0.205 F 
ATOM     21  C   UNL     1     -15.012   3.435  30.451  0.00  0.00    +0.020 A 
ATOM     25  C   UNL     1     -13.851   3.093  31.145  0.00  0.00    +0.014 A 
ATOM     26  C   UNL     1     -15.683   4.620  30.754  0.00  0.00    +0.014 A 
ATOM     28  C   UNL     1     -13.361   3.936  32.142  0.00  0.00    +0.039 A 
ATOM     29  C   UNL     1     -15.193   5.462  31.752  0.00  0.00    +0.039 A 
ATOM     30  C   UNL     1     -14.032   5.121  32.446  0.00  0.00    +0.123 A 
ENDBRANCH  18  21
ENDBRANCH  13  14
ENDBRANCH   9  13
TORSDOF 8
ENDMDL
MODEL 3
REMARK VINA RESULT:      -6.3     27.973     30.666
REMARK  Name = 75536265
REMARK  9 active torsions:
REMARK  status: ('A' for Active; 'I' for Inactive)
REMARK    1  A    between atoms: O_3  and  C_8
REMARK    2  A    between atoms: N_5  and  C_12
REMARK    3  A    between atoms: N_5  and  C_15
REMARK    4  A    between atoms: C_7  and  C_12
REMARK    5  A    between atoms: C_9  and  C_13
REMARK    6  A    between atoms: C_13  and  C_14
REMARK    7  A    between atoms: C_15  and  C_17
REMARK    8  A    between atoms: C_18  and  C_21
REMARK    9  A    between atoms: C_24  and  C_27
REMARK                            x       y       z     vdW  Elec       q    Type
REMARK                         _______ _______ _______ _____ _____    ______ ____
ROOT
ATOM      2  O   UNL     1     -16.351   2.563  23.465  0.00  0.00    -0.369 OA
ATOM      7  C   UNL     1     -15.975   3.845  22.946  0.00  0.00    +0.161 C 
ATOM      8  C   UNL     1     -17.169   4.559  22.301  0.00  0.00    +0.145 C 
ATOM      9  C   UNL     1     -17.437   2.578  24.395  0.00  0.00    +0.125 C 
ATOM     10  C   UNL     1     -18.397   4.572  23.208  0.00  0.00    +0.036 C 
ATOM     11  C   UNL     1     -18.688   3.177  23.753  0.00  0.00    +0.034 C 
ENDROOT
BRANCH   8   3
ATOM      3  O   UNL     1     -17.522   3.871  21.098  0.00  0.00    -0.389 OA
ATOM     32  H   UNL     1     -16.710   3.475  20.737  0.00  0.00    +0.210 HD
ENDBRANCH   8   3
BRANCH   7  12
ATOM     12  C   UNL     1     -15.280   4.689  24.012  0.00  0.00    +0.115 C 
BRANCH  12   5
ATOM      5  N   UNL     1     -14.620   5.840  23.415  0.00  0.00    -0.309 NA
ATOM     31  H   UNL     1     -15.324   6.520  23.131  0.00  0.00    +0.122 HD
BRANCH   5  15
ATOM     15  C   UNL     1     -13.821   5.443  22.262  0.00  0.00    +0.116 C 
BRANCH  15  17
ATOM     17  C   UNL     1     -13.157   6.625  21.607  0.00  0.00    -0.034 A 
ATOM     19  C   UNL     1     -11.969   6.453  20.897  0.00  0.00    +0.005 A 
ATOM     20  C   UNL     1     -13.731   7.892  21.710  0.00  0.00    +0.005 A 
ATOM     22  C   UNL     1     -11.355   7.548  20.289  0.00  0.00    +0.003 A 
ATOM     23  C   UNL     1     -13.118   8.987  21.101  0.00  0.00    +0.003 A 
ATOM     24  C   UNL     1     -11.929   8.815  20.391  0.00  0.00    -0.050 A 
ATOM     27  C   UNL     1     -11.274   9.986  19.740  0.00  0.00    +0.044 C 
ENDBRANCH  15  17
ENDBRANCH   5  15
ENDBRANCH  12   5
ENDBRANCH   7  12
BRANCH   9  13
ATOM     13  C   UNL     1     -17.686   1.140  24.833  0.00  0.00    +0.090 C 
BRANCH  13  14
ATOM      4  O   UNL     1     -17.692   0.173  28.305  0.00  0.00    -0.354 OA
ATOM      6  N   UNL     1     -18.184   0.101  27.008  0.00  0.00    -0.083 NA
ATOM     14  C   UNL     1     -17.433   0.953  26.304  0.00  0.00    +0.087 A 
ATOM     16  C   UNL     1     -16.460   1.586  27.097  0.00  0.00    +0.076 A 
ATOM     18  C   UNL     1     -16.664   1.060  28.346  0.00  0.00    +0.167 A 
BRANCH  18  21
ATOM      1  F   UNL     1     -14.272   1.761  33.319  0.00  0.00    -0.205 F 
ATOM     21  C   UNL     1     -16.049   1.241  29.628  0.00  0.00    +0.020 A 
ATOM     25  C   UNL     1     -15.507   0.146  30.302  0.00  0.00    +0.014 A 
ATOM     26  C   UNL     1     -15.991   2.511  30.201  0.00  0.00    +0.014 A 
ATOM     28  C   UNL     1     -14.907   0.321  31.548  0.00  0.00    +0.039 A 
ATOM     29  C   UNL     1     -15.391   2.687  31.448  0.00  0.00    +0.039 A 
ATOM     30  C   UNL     1     -14.849   1.592  32.121  0.00  0.00    +0.123 A 
ENDBRANCH  18  21
ENDBRANCH  13  14
ENDBRANCH   9  13
TORSDOF 8
ENDMDL
MODEL 4
REMARK VINA RESULT:      -6.0     15.047     18.748
REMARK  Name = 75536265
REMARK  9 active torsions:
REMARK  status: ('A' for Active; 'I' for Inactive)
REMARK    1  A    between atoms: O_3  and  C_8
REMARK    2  A    between atoms: N_5  and  C_12
REMARK    3  A    between atoms: N_5  and  C_15
REMARK    4  A    between atoms: C_7  and  C_12
REMARK    5  A    between atoms: C_9  and  C_13
REMARK    6  A    between atoms: C_13  and  C_14
REMARK    7  A    between atoms: C_15  and  C_17
REMARK    8  A    between atoms: C_18  and  C_21
REMARK    9  A    between atoms: C_24  and  C_27
REMARK                            x       y       z     vdW  Elec       q    Type
REMARK                         _______ _______ _______ _____ _____    ______ ____
ROOT
ATOM      2  O   UNL     1      13.351   4.811   1.711  0.00  0.00    -0.369 OA
ATOM      7  C   UNL     1      14.675   5.317   1.498  0.00  0.00    +0.161 C 
ATOM      8  C   UNL     1      15.507   4.358   0.637  0.00  0.00    +0.145 C 
ATOM      9  C   UNL     1      12.618   4.505   0.522  0.00  0.00    +0.125 C 
ATOM     10  C   UNL     1      14.773   3.932  -0.632  0.00  0.00    +0.036 C 
ATOM     11  C   UNL     1      13.358   3.460  -0.312  0.00  0.00    +0.034 C 
ENDROOT
BRANCH   8   3
ATOM      3  O   UNL     1      15.784   3.179   1.398  0.00  0.00    -0.389 OA
ATOM     32  H   UNL     1      14.938   2.723   1.551  0.00  0.00    +0.210 HD
ENDBRANCH   8   3
BRANCH   7  12
ATOM     12  C   UNL     1      14.639   6.739   0.942  0.00  0.00    +0.115 C 
BRANCH  12   5
ATOM      5  N   UNL     1      14.369   7.702   1.999  0.00  0.00    -0.309 NA
ATOM     31  H   UNL     1      14.691   7.323   2.889  0.00  0.00    +0.122 HD
BRANCH   5  15
ATOM     15  C   UNL     1      12.946   8.007   2.077  0.00  0.00    +0.116 C 
BRANCH  15  17
ATOM     17  C   UNL     1      12.530   8.391   3.472  0.00  0.00    -0.034 A 
ATOM     19  C   UNL     1      11.546   9.361   3.665  0.00  0.00    +0.005 A 
ATOM     20  C   UNL     1      13.129   7.775   4.571  0.00  0.00    +0.005 A 
ATOM     22  C   UNL     1      11.160   9.714   4.959  0.00  0.00    +0.003 A 
ATOM     23  C   UNL     1      12.742   8.127   5.864  0.00  0.00    +0.003 A 
ATOM     24  C   UNL     1      11.758   9.097   6.058  0.00  0.00    -0.050 A 
ATOM     27  C   UNL     1      11.344   9.474   7.440  0.00  0.00    +0.044 C 
ENDBRANCH  15  17
ENDBRANCH   5  15
ENDBRANCH  12   5
ENDBRANCH   7  12
BRANCH   9  13
ATOM     13  C   UNL     1      11.248   3.989   0.948  0.00  0.00    +0.090 C 
BRANCH  13  14
ATOM      4  O   UNL     1       9.562   6.513   2.891  0.00  0.00    -0.354 OA
ATOM      6  N   UNL     1       9.992   5.973   1.686  0.00  0.00    -0.083 NA
ATOM     14  C   UNL     1      10.636   4.851   2.018  0.00  0.00    +0.087 A 
ATOM     16  C   UNL     1      10.644   4.633   3.407  0.00  0.00    +0.076 A 
ATOM     18  C   UNL     1       9.955   5.706   3.910  0.00  0.00    +0.167 A 
BRANCH  18  21
ATOM      1  F   UNL     1       8.491   7.367   9.013  0.00  0.00    -0.205 F 
ATOM     21  C   UNL     1       9.579   6.134   5.225  0.00  0.00    +0.020 A 
ATOM     25  C   UNL     1       8.594   7.110   5.385  0.00  0.00    +0.014 A 
ATOM     26  C   UNL     1      10.196   5.576   6.344  0.00  0.00    +0.014 A 
ATOM     28  C   UNL     1       8.226   7.526   6.664  0.00  0.00    +0.039 A 
ATOM     29  C   UNL     1       9.829   5.993   7.623  0.00  0.00    +0.039 A 
ATOM     30  C   UNL     1       8.844   6.967   7.783  0.00  0.00    +0.123 A 
ENDBRANCH  18  21
ENDBRANCH  13  14
ENDBRANCH   9  13
TORSDOF 8
ENDMDL
MODEL 5
REMARK VINA RESULT:      -6.0     14.983     18.335
REMARK  Name = 75536265
REMARK  9 active torsions:
REMARK  status: ('A' for Active; 'I' for Inactive)
REMARK    1  A    between atoms: O_3  and  C_8
REMARK    2  A    between atoms: N_5  and  C_12
REMARK    3  A    between atoms: N_5  and  C_15
REMARK    4  A    between atoms: C_7  and  C_12
REMARK    5  A    between atoms: C_9  and  C_13
REMARK    6  A    between atoms: C_13  and  C_14
REMARK    7  A    between atoms: C_15  and  C_17
REMARK    8  A    between atoms: C_18  and  C_21
REMARK    9  A    between atoms: C_24  and  C_27
REMARK                            x       y       z     vdW  Elec       q    Type
REMARK                         _______ _______ _______ _____ _____    ______ ____
ROOT
ATOM      2  O   UNL     1      11.461   6.184   6.708  0.00  0.00    -0.369 OA
ATOM      7  C   UNL     1      10.502   5.155   6.980  0.00  0.00    +0.161 C 
ATOM      8  C   UNL     1       9.627   5.510   8.189  0.00  0.00    +0.145 C 
ATOM      9  C   UNL     1      10.912   7.490   6.512  0.00  0.00    +0.125 C 
ATOM     10  C   UNL     1       9.043   6.917   8.089  0.00  0.00    +0.036 C 
ATOM     11  C   UNL     1      10.127   7.935   7.745  0.00  0.00    +0.034 C 
ENDROOT
BRANCH   8   3
ATOM      3  O   UNL     1      10.430   5.454   9.371  0.00  0.00    -0.389 OA
ATOM     32  H   UNL     1      10.810   4.560   9.424  0.00  0.00    +0.210 HD
ENDBRANCH   8   3
BRANCH   7  12
ATOM     12  C   UNL     1       9.688   4.817   5.732  0.00  0.00    +0.115 C 
BRANCH  12   5
ATOM      5  N   UNL     1      10.561   4.470   4.621  0.00  0.00    -0.309 NA
ATOM     31  H   UNL     1      11.522   4.706   4.863  0.00  0.00    +0.122 HD
BRANCH   5  15
ATOM     15  C   UNL     1      10.168   5.175   3.408  0.00  0.00    +0.116 C 
BRANCH  15  17
ATOM     17  C   UNL     1      10.849   4.615   2.188  0.00  0.00    -0.034 A 
ATOM     19  C   UNL     1      10.353   4.904   0.917  0.00  0.00    +0.005 A 
ATOM     20  C   UNL     1      11.977   3.806   2.330  0.00  0.00    +0.005 A 
ATOM     22  C   UNL     1      10.986   4.386  -0.213  0.00  0.00    +0.003 A 
ATOM     23  C   UNL     1      12.611   3.289   1.200  0.00  0.00    +0.003 A 
ATOM     24  C   UNL     1      12.115   3.578  -0.072  0.00  0.00    -0.050 A 
ATOM     27  C   UNL     1      12.792   3.026  -1.280  0.00  0.00    +0.044 C 
ENDBRANCH  15  17
ENDBRANCH   5  15
ENDBRANCH  12   5
ENDBRANCH   7  12
BRANCH   9  13
ATOM     13  C   UNL     1      12.072   8.439   6.236  0.00  0.00    +0.090 C 
BRANCH  13  14
ATOM      4  O   UNL     1      14.686   7.317   4.024  0.00  0.00    -0.354 OA
ATOM      6  N   UNL     1      14.219   7.729   5.265  0.00  0.00    -0.083 NA
ATOM     14  C   UNL     1      12.917   7.966   5.085  0.00  0.00    +0.087 A 
ATOM     16  C   UNL     1      12.510   7.725   3.761  0.00  0.00    +0.076 A 
ATOM     18  C   UNL     1      13.659   7.318   3.135  0.00  0.00    +0.167 A 
BRANCH  18  21
ATOM      1  F   UNL     1      14.943   5.738  -2.042  0.00  0.00    -0.205 F 
ATOM     21  C   UNL     1      13.989   6.910   1.801  0.00  0.00    +0.020 A 
ATOM     25  C   UNL     1      13.257   7.401   0.720  0.00  0.00    +0.014 A 
ATOM     26  C   UNL     1      15.043   6.022   1.584  0.00  0.00    +0.014 A 
ATOM     28  C   UNL     1      13.579   7.005  -0.578  0.00  0.00    +0.039 A 
ATOM     29  C   UNL     1      15.365   5.626   0.287  0.00  0.00    +0.039 A 
ATOM     30  C   UNL     1      14.633   6.118  -0.795  0.00  0.00    +0.123 A 
ENDBRANCH  18  21
ENDBRANCH  13  14
ENDBRANCH   9  13
TORSDOF 8
ENDMDL
MODEL 6
REMARK VINA RESULT:      -6.0      2.283      3.721
REMARK  Name = 75536265
REMARK  9 active torsions:
REMARK  status: ('A' for Active; 'I' for Inactive)
REMARK    1  A    between atoms: O_3  and  C_8
REMARK    2  A    between atoms: N_5  and  C_12
REMARK    3  A    between atoms: N_5  and  C_15
REMARK    4  A    between atoms: C_7  and  C_12
REMARK    5  A    between atoms: C_9  and  C_13
REMARK    6  A    between atoms: C_13  and  C_14
REMARK    7  A    between atoms: C_15  and  C_17
REMARK    8  A    between atoms: C_18  and  C_21
REMARK    9  A    between atoms: C_24  and  C_27
REMARK                            x       y       z     vdW  Elec       q    Type
REMARK                         _______ _______ _______ _____ _____    ______ ____
ROOT
ATOM      2  O   UNL     1      12.903  12.189  23.805  0.00  0.00    -0.369 OA
ATOM      7  C   UNL     1      11.507  11.890  23.678  0.00  0.00    +0.161 C 
ATOM      8  C   UNL     1      10.893  12.596  22.462  0.00  0.00    +0.145 C 
ATOM      9  C   UNL     1      13.696  11.894  22.652  0.00  0.00    +0.125 C 
ATOM     10  C   UNL     1      11.711  12.381  21.191  0.00  0.00    +0.036 C 
ATOM     11  C   UNL     1      13.188  12.672  21.437  0.00  0.00    +0.034 C 
ENDROOT
BRANCH   8   3
ATOM      3  O   UNL     1      10.849  14.002  22.721  0.00  0.00    -0.389 OA
ATOM     32  H   UNL     1      10.578  14.122  23.647  0.00  0.00    +0.210 HD
ENDBRANCH   8   3
BRANCH   7  12
ATOM     12  C   UNL     1      11.264  10.383  23.678  0.00  0.00    +0.115 C 
BRANCH  12   5
ATOM      5  N   UNL     1      10.453   9.987  22.537  0.00  0.00    -0.309 NA
ATOM     31  H   UNL     1       9.477  10.214  22.724  0.00  0.00    +0.122 HD
BRANCH   5  15
ATOM     15  C   UNL     1      10.588   8.561  22.269  0.00  0.00    +0.116 C 
BRANCH  15  17
ATOM     17  C   UNL     1      11.464   8.295  21.075  0.00  0.00    -0.034 A 
ATOM     19  C   UNL     1      12.477   7.338  21.150  0.00  0.00    +0.005 A 
ATOM     20  C   UNL     1      11.262   9.005  19.891  0.00  0.00    +0.005 A 
ATOM     22  C   UNL     1      13.287   7.091  20.042  0.00  0.00    +0.003 A 
ATOM     23  C   UNL     1      12.071   8.756  18.782  0.00  0.00    +0.003 A 
ATOM     24  C   UNL     1      13.084   7.800  18.858  0.00  0.00    -0.050 A 
ATOM     27  C   UNL     1      13.949   7.534  17.672  0.00  0.00    +0.044 C 
ENDBRANCH  15  17
ENDBRANCH   5  15
ENDBRANCH  12   5
ENDBRANCH   7  12
BRANCH   9  13
ATOM     13  C   UNL     1      15.135  12.273  22.976  0.00  0.00    +0.090 C 
BRANCH  13  14
ATOM      4  O   UNL     1      18.013  10.427  21.836  0.00  0.00    -0.354 OA
ATOM      6  N   UNL     1      17.410  11.563  22.359  0.00  0.00    -0.083 NA
ATOM     14  C   UNL     1      16.112  11.259  22.443  0.00  0.00    +0.087 A 
ATOM     16  C   UNL     1      15.839   9.957  21.990  0.00  0.00    +0.076 A 
ATOM     18  C   UNL     1      17.067   9.476  21.620  0.00  0.00    +0.167 A 
BRANCH  18  21
ATOM      1  F   UNL     1      18.910   4.663  19.525  0.00  0.00    -0.205 F 
ATOM     21  C   UNL     1      17.543   8.236  21.079  0.00  0.00    +0.020 A 
ATOM     25  C   UNL     1      18.789   7.740  21.463  0.00  0.00    +0.014 A 
ATOM     26  C   UNL     1      16.759   7.526  20.170  0.00  0.00    +0.014 A 
ATOM     28  C   UNL     1      19.250   6.533  20.938  0.00  0.00    +0.039 A 
ATOM     29  C   UNL     1      17.221   6.320  19.645  0.00  0.00    +0.039 A 
ATOM     30  C   UNL     1      18.466   5.823  20.029  0.00  0.00    +0.123 A 
ENDBRANCH  18  21
ENDBRANCH  13  14
ENDBRANCH   9  13
TORSDOF 8
ENDMDL
MODEL 7
REMARK VINA RESULT:      -5.9      2.589      5.464
REMARK  Name = 75536265
REMARK  9 active torsions:
REMARK  status: ('A' for Active; 'I' for Inactive)
REMARK    1  A    between atoms: O_3  and  C_8
REMARK    2  A    between atoms: N_5  and  C_12
REMARK    3  A    between atoms: N_5  and  C_15
REMARK    4  A    between atoms: C_7  and  C_12
REMARK    5  A    between atoms: C_9  and  C_13
REMARK    6  A    between atoms: C_13  and  C_14
REMARK    7  A    between atoms: C_15  and  C_17
REMARK    8  A    between atoms: C_18  and  C_21
REMARK    9  A    between atoms: C_24  and  C_27
REMARK                            x       y       z     vdW  Elec       q    Type
REMARK                         _______ _______ _______ _____ _____    ______ ____
ROOT
ATOM      2  O   UNL     1      13.172   8.966  19.440  0.00  0.00    -0.369 OA
ATOM      7  C   UNL     1      12.283   9.456  20.451  0.00  0.00    +0.161 C 
ATOM      8  C   UNL     1      11.166   8.447  20.750  0.00  0.00    +0.145 C 
ATOM      9  C   UNL     1      13.762   7.693  19.713  0.00  0.00    +0.125 C 
ATOM     10  C   UNL     1      11.706   7.041  21.000  0.00  0.00    +0.036 C 
ATOM     11  C   UNL     1      12.682   6.628  19.903  0.00  0.00    +0.034 C 
ENDROOT
BRANCH   8   3
ATOM      3  O   UNL     1      10.289   8.384  19.623  0.00  0.00    -0.389 OA
ATOM     32  H   UNL     1      10.161   7.446  19.402  0.00  0.00    +0.210 HD
ENDBRANCH   8   3
BRANCH   7  12
ATOM     12  C   UNL     1      13.051   9.884  21.699  0.00  0.00    +0.115 C 
BRANCH  12   5
ATOM      5  N   UNL     1      13.042  11.332  21.844  0.00  0.00    -0.309 NA
ATOM     31  H   UNL     1      13.562  11.588  22.682  0.00  0.00    +0.122 HD
BRANCH   5  15
ATOM     15  C   UNL     1      11.679  11.839  21.932  0.00  0.00    +0.116 C 
BRANCH  15  17
ATOM     17  C   UNL     1      11.463  12.651  23.181  0.00  0.00    -0.034 A 
ATOM     19  C   UNL     1      10.931  12.049  24.322  0.00  0.00    +0.005 A 
ATOM     20  C   UNL     1      11.795  14.006  23.198  0.00  0.00    +0.005 A 
ATOM     22  C   UNL     1      10.733  12.802  25.479  0.00  0.00    +0.003 A 
ATOM     23  C   UNL     1      11.598  14.758  24.356  0.00  0.00    +0.003 A 
ATOM     24  C   UNL     1      11.067  14.157  25.496  0.00  0.00    -0.050 A 
ATOM     27  C   UNL     1      10.856  14.961  26.735  0.00  0.00    +0.044 C 
ENDBRANCH  15  17
ENDBRANCH   5  15
ENDBRANCH  12   5
ENDBRANCH   7  12
BRANCH   9  13
ATOM     13  C   UNL     1      14.668   7.344  18.539  0.00  0.00    +0.090 C 
BRANCH  13  14
ATOM      4  O   UNL     1      17.712   5.476  19.016  0.00  0.00    -0.354 OA
ATOM      6  N   UNL     1      16.530   5.748  18.340  0.00  0.00    -0.083 NA
ATOM     14  C   UNL     1      15.982   6.773  18.997  0.00  0.00    +0.087 A 
ATOM     16  C   UNL     1      16.766   7.187  20.088  0.00  0.00    +0.076 A 
ATOM     18  C   UNL     1      17.843   6.340  20.056  0.00  0.00    +0.167 A 
BRANCH  18  21
ATOM      1  F   UNL     1      22.429   5.727  23.144  0.00  0.00    -0.205 F 
ATOM     21  C   UNL     1      19.025   6.183  20.851  0.00  0.00    +0.020 A 
ATOM     25  C   UNL     1      19.180   6.923  22.024  0.00  0.00    +0.014 A 
ATOM     26  C   UNL     1      20.020   5.290  20.453  0.00  0.00    +0.014 A 
ATOM     28  C   UNL     1      20.330   6.769  22.798  0.00  0.00    +0.039 A 
ATOM     29  C   UNL     1      21.170   5.137  21.227  0.00  0.00    +0.039 A 
ATOM     30  C   UNL     1      21.324   5.876  22.400  0.00  0.00    +0.123 A 
ENDBRANCH  18  21
ENDBRANCH  13  14
ENDBRANCH   9  13
TORSDOF 8
ENDMDL
MODEL 8
REMARK VINA RESULT:      -5.9     27.184     29.262
REMARK  Name = 75536265
REMARK  9 active torsions:
REMARK  status: ('A' for Active; 'I' for Inactive)
REMARK    1  A    between atoms: O_3  and  C_8
REMARK    2  A    between atoms: N_5  and  C_12
REMARK    3  A    between atoms: N_5  and  C_15
REMARK    4  A    between atoms: C_7  and  C_12
REMARK    5  A    between atoms: C_9  and  C_13
REMARK    6  A    between atoms: C_13  and  C_14
REMARK    7  A    between atoms: C_15  and  C_17
REMARK    8  A    between atoms: C_18  and  C_21
REMARK    9  A    between atoms: C_24  and  C_27
REMARK                            x       y       z     vdW  Elec       q    Type
REMARK                         _______ _______ _______ _____ _____    ______ ____
ROOT
ATOM      2  O   UNL     1      -4.128 -12.290  15.875  0.00  0.00    -0.369 OA
ATOM      7  C   UNL     1      -5.378 -12.721  16.428  0.00  0.00    +0.161 C 
ATOM      8  C   UNL     1      -5.280 -12.914  17.946  0.00  0.00    +0.145 C 
ATOM      9  C   UNL     1      -3.583 -11.103  16.456  0.00  0.00    +0.125 C 
ATOM     10  C   UNL     1      -4.653 -11.711  18.645  0.00  0.00    +0.036 C 
ATOM     11  C   UNL     1      -3.358 -11.293  17.956  0.00  0.00    +0.034 C 
ENDROOT
BRANCH   8   3
ATOM      3  O   UNL     1      -4.457 -14.053  18.214  0.00  0.00    -0.389 OA
ATOM     32  H   UNL     1      -4.358 -14.545  17.380  0.00  0.00    +0.210 HD
ENDBRANCH   8   3
BRANCH   7  12
ATOM     12  C   UNL     1      -6.513 -11.787  16.017  0.00  0.00    +0.115 C 
BRANCH  12   5
ATOM      5  N   UNL     1      -6.230 -11.157  14.736  0.00  0.00    -0.309 NA
ATOM     31  H   UNL     1      -6.545 -10.188  14.761  0.00  0.00    +0.122 HD
BRANCH   5  15
ATOM     15  C   UNL     1      -6.893 -11.865  13.648  0.00  0.00    +0.116 C 
BRANCH  15  17
ATOM     17  C   UNL     1      -7.126 -10.973  12.458  0.00  0.00    -0.034 A 
ATOM     19  C   UNL     1      -6.785  -9.622  12.521  0.00  0.00    +0.005 A 
ATOM     20  C   UNL     1      -7.683 -11.499  11.292  0.00  0.00    +0.005 A 
ATOM     22  C   UNL     1      -7.000  -8.797  11.417  0.00  0.00    +0.003 A 
ATOM     23  C   UNL     1      -7.897 -10.673  10.188  0.00  0.00    +0.003 A 
ATOM     24  C   UNL     1      -7.555  -9.322  10.251  0.00  0.00    -0.050 A 
ATOM     27  C   UNL     1      -7.783  -8.439   9.070  0.00  0.00    +0.044 C 
ENDBRANCH  15  17
ENDBRANCH   5  15
ENDBRANCH  12   5
ENDBRANCH   7  12
BRANCH   9  13
ATOM     13  C   UNL     1      -2.269 -10.805  15.744  0.00  0.00    +0.090 C 
BRANCH  13  14
ATOM      4  O   UNL     1      -1.962 -11.579  12.238  0.00  0.00    -0.354 OA
ATOM      6  N   UNL     1      -1.561 -11.697  13.562  0.00  0.00    -0.083 NA
ATOM     14  C   UNL     1      -2.405 -10.923  14.250  0.00  0.00    +0.087 A 
ATOM     16  C   UNL     1      -3.351 -10.297  13.420  0.00  0.00    +0.076 A 
ATOM     18  C   UNL     1      -3.030 -10.742  12.165  0.00  0.00    +0.167 A 
BRANCH  18  21
ATOM      1  F   UNL     1      -5.092  -9.889   7.070  0.00  0.00    -0.205 F 
ATOM     21  C   UNL     1      -3.560 -10.522  10.851  0.00  0.00    +0.020 A 
ATOM     25  C   UNL     1      -4.071 -11.593  10.117  0.00  0.00    +0.014 A 
ATOM     26  C   UNL     1      -3.566  -9.238  10.308  0.00  0.00    +0.014 A 
ATOM     28  C   UNL     1      -4.588 -11.379   8.840  0.00  0.00    +0.039 A 
ATOM     29  C   UNL     1      -4.082  -9.024   9.030  0.00  0.00    +0.039 A 
ATOM     30  C   UNL     1      -4.594 -10.094   8.297  0.00  0.00    +0.123 A 
ENDBRANCH  18  21
ENDBRANCH  13  14
ENDBRANCH   9  13
TORSDOF 8
ENDMDL
MODEL 9
REMARK VINA RESULT:      -5.9     27.626     30.170
REMARK  Name = 75536265
REMARK  9 active torsions:
REMARK  status: ('A' for Active; 'I' for Inactive)
REMARK    1  A    between atoms: O_3  and  C_8
REMARK    2  A    between atoms: N_5  and  C_12
REMARK    3  A    between atoms: N_5  and  C_15
REMARK    4  A    between atoms: C_7  and  C_12
REMARK    5  A    between atoms: C_9  and  C_13
REMARK    6  A    between atoms: C_13  and  C_14
REMARK    7  A    between atoms: C_15  and  C_17
REMARK    8  A    between atoms: C_18  and  C_21
REMARK    9  A    between atoms: C_24  and  C_27
REMARK                            x       y       z     vdW  Elec       q    Type
REMARK                         _______ _______ _______ _____ _____    ______ ____
ROOT
ATOM      2  O   UNL     1      -4.183 -11.849  13.555  0.00  0.00    -0.369 OA
ATOM      7  C   UNL     1      -2.927 -12.007  14.227  0.00  0.00    +0.161 C 
ATOM      8  C   UNL     1      -1.763 -12.062  13.230  0.00  0.00    +0.145 C 
ATOM      9  C   UNL     1      -4.269 -10.719  12.683  0.00  0.00    +0.125 C 
ATOM     10  C   UNL     1      -1.808 -10.918  12.220  0.00  0.00    +0.036 C 
ATOM     11  C   UNL     1      -3.196 -10.794  11.597  0.00  0.00    +0.034 C 
ENDROOT
BRANCH   8   3
ATOM      3  O   UNL     1      -1.838 -13.291  12.501  0.00  0.00    -0.389 OA
ATOM     32  H   UNL     1      -1.177 -13.896  12.879  0.00  0.00    +0.210 HD
ENDBRANCH   8   3
BRANCH   7  12
ATOM     12  C   UNL     1      -2.741 -10.940  15.303  0.00  0.00    +0.115 C 
BRANCH  12   5
ATOM      5  N   UNL     1      -3.324 -11.369  16.566  0.00  0.00    -0.309 NA
ATOM     31  H   UNL     1      -3.737 -12.293  16.447  0.00  0.00    +0.122 HD
BRANCH   5  15
ATOM     15  C   UNL     1      -4.339 -10.427  17.019  0.00  0.00    +0.116 C 
BRANCH  15  17
ATOM     17  C   UNL     1      -5.452 -11.116  17.762  0.00  0.00    -0.034 A 
ATOM     19  C   UNL     1      -5.908 -12.364  17.336  0.00  0.00    +0.005 A 
ATOM     20  C   UNL     1      -6.027 -10.507  18.878  0.00  0.00    +0.005 A 
ATOM     22  C   UNL     1      -6.938 -13.003  18.027  0.00  0.00    +0.003 A 
ATOM     23  C   UNL     1      -7.056 -11.147  19.569  0.00  0.00    +0.003 A 
ATOM     24  C   UNL     1      -7.511 -12.395  19.143  0.00  0.00    -0.050 A 
ATOM     27  C   UNL     1      -8.611 -13.079  19.883  0.00  0.00    +0.044 C 
ENDBRANCH  15  17
ENDBRANCH   5  15
ENDBRANCH  12   5
ENDBRANCH   7  12
BRANCH   9  13
ATOM     13  C   UNL     1      -5.663 -10.718  12.069  0.00  0.00    +0.090 C 
BRANCH  13  14
ATOM      4  O   UNL     1      -8.421 -11.746  14.149  0.00  0.00    -0.354 OA
ATOM      6  N   UNL     1      -7.581 -11.905  13.054  0.00  0.00    -0.083 NA
ATOM     14  C   UNL     1      -6.733 -10.874  13.114  0.00  0.00    +0.087 A 
ATOM     16  C   UNL     1      -6.989 -10.039  14.216  0.00  0.00    +0.076 A 
ATOM     18  C   UNL     1      -8.058 -10.631  14.834  0.00  0.00    +0.167 A 
BRANCH  18  21
ATOM      1  F   UNL     1     -11.083  -9.486  19.360  0.00  0.00    -0.205 F 
ATOM     21  C   UNL     1      -8.839 -10.335  16.000  0.00  0.00    +0.020 A 
ATOM     25  C   UNL     1      -9.800 -11.243  16.444  0.00  0.00    +0.014 A 
ATOM     26  C   UNL     1      -8.636  -9.140  16.690  0.00  0.00    +0.014 A 
ATOM     28  C   UNL     1     -10.558 -10.957  17.579  0.00  0.00    +0.039 A 
ATOM     29  C   UNL     1      -9.395  -8.853  17.824  0.00  0.00    +0.039 A 
ATOM     30  C   UNL     1     -10.355  -9.761  18.269  0.00  0.00    +0.123 A 
ENDBRANCH  18  21
ENDBRANCH  13  14
ENDBRANCH   9  13
TORSDOF 8
ENDMDL
MODEL 10
REMARK VINA RESULT:      -5.8      2.635      4.900
REMARK  Name = 75536265
REMARK  9 active torsions:
REMARK  status: ('A' for Active; 'I' for Inactive)
REMARK    1  A    between atoms: O_3  and  C_8
REMARK    2  A    between atoms: N_5  and  C_12
REMARK    3  A    between atoms: N_5  and  C_15
REMARK    4  A    between atoms: C_7  and  C_12
REMARK    5  A    between atoms: C_9  and  C_13
REMARK    6  A    between atoms: C_13  and  C_14
REMARK    7  A    between atoms: C_15  and  C_17
REMARK    8  A    between atoms: C_18  and  C_21
REMARK    9  A    between atoms: C_24  and  C_27
REMARK                            x       y       z     vdW  Elec       q    Type
REMARK                         _______ _______ _______ _____ _____    ______ ____
ROOT
ATOM      2  O   UNL     1      14.384   8.732  18.020  0.00  0.00    -0.369 OA
ATOM      7  C   UNL     1      14.311   9.777  17.043  0.00  0.00    +0.161 C 
ATOM      8  C   UNL     1      13.204   9.506  16.016  0.00  0.00    +0.145 C 
ATOM      9  C   UNL     1      13.164   8.464  18.717  0.00  0.00    +0.125 C 
ATOM     10  C   UNL     1      11.874   9.154  16.676  0.00  0.00    +0.036 C 
ATOM     11  C   UNL     1      12.059   8.073  17.736  0.00  0.00    +0.034 C 
ENDROOT
BRANCH   8   3
ATOM      3  O   UNL     1      13.595   8.397  15.201  0.00  0.00    -0.389 OA
ATOM     32  H   UNL     1      14.523   8.535  14.944  0.00  0.00    +0.210 HD
ENDBRANCH   8   3
BRANCH   7  12
ATOM     12  C   UNL     1      14.185  11.146  17.709  0.00  0.00    +0.115 C 
BRANCH  12   5
ATOM      5  N   UNL     1      15.265  11.362  18.660  0.00  0.00    -0.309 NA
ATOM     31  H   UNL     1      15.541  10.467  19.063  0.00  0.00    +0.122 HD
BRANCH   5  15
ATOM     15  C   UNL     1      14.854  12.276  19.718  0.00  0.00    +0.116 C 
BRANCH  15  17
ATOM     17  C   UNL     1      13.819  11.659  20.620  0.00  0.00    -0.034 A 
ATOM     19  C   UNL     1      14.157  10.578  21.435  0.00  0.00    +0.005 A 
ATOM     20  C   UNL     1      12.521  12.170  20.643  0.00  0.00    +0.005 A 
ATOM     22  C   UNL     1      13.198  10.008  22.272  0.00  0.00    +0.003 A 
ATOM     23  C   UNL     1      11.562  11.600  21.481  0.00  0.00    +0.003 A 
ATOM     24  C   UNL     1      11.901  10.519  22.296  0.00  0.00    -0.050 A 
ATOM     27  C   UNL     1      10.876   9.911  23.192  0.00  0.00    +0.044 C 
ENDBRANCH  15  17
ENDBRANCH   5  15
ENDBRANCH  12   5
ENDBRANCH   7  12
BRANCH   9  13
ATOM     13  C   UNL     1      13.438   7.336  19.705  0.00  0.00    +0.090 C 
BRANCH  13  14
ATOM      4  O   UNL     1      16.765   6.101  19.079  0.00  0.00    -0.354 OA
ATOM      6  N   UNL     1      15.430   6.268  18.733  0.00  0.00    -0.083 NA
ATOM     14  C   UNL     1      14.895   6.966  19.738  0.00  0.00    +0.087 A 
ATOM     16  C   UNL     1      15.836   7.265  20.739  0.00  0.00    +0.076 A 
ATOM     18  C   UNL     1      16.996   6.700  20.276  0.00  0.00    +0.167 A 
BRANCH  18  21
ATOM      1  F   UNL     1      22.213   6.368  22.176  0.00  0.00    -0.205 F 
ATOM     21  C   UNL     1      18.340   6.614  20.767  0.00  0.00    +0.020 A 
ATOM     25  C   UNL     1      19.202   5.635  20.271  0.00  0.00    +0.014 A 
ATOM     26  C   UNL     1      18.786   7.509  21.739  0.00  0.00    +0.014 A 
ATOM     28  C   UNL     1      20.510   5.552  20.747  0.00  0.00    +0.039 A 
ATOM     29  C   UNL     1      20.094   7.425  22.216  0.00  0.00    +0.039 A 
ATOM     30  C   UNL     1      20.956   6.447  21.719  0.00  0.00    +0.123 A 
ENDBRANCH  18  21
ENDBRANCH  13  14
ENDBRANCH   9  13
TORSDOF 8
ENDMDL
