REMARK  Name = 40777250
REMARK  7 active torsions:
REMARK  status: ('A' for Active; 'I' for Inactive)
REMARK    1  A    between atoms: N_4  and  C_16
REMARK    2  A    between atoms: N_7  and  C_26
REMARK    3  A    between atoms: C_10  and  C_17
REMARK    4  A    between atoms: C_11  and  C_16
REMARK    5  A    between atoms: C_19  and  C_22
REMARK    6  A    between atoms: C_20  and  C_23
REMARK    7  A    between atoms: C_32  and  C_35
REMARK                            x       y       z     vdW  Elec       q    Type
REMARK                         _______ _______ _______ _____ _____    ______ ____
ROOT
ATOM      3  N   UNL     1      -0.200   2.955   0.732  0.00  0.00    -0.297 NA
ATOM      9  C   UNL     1      -0.691   2.301  -1.741  0.00  0.00    +0.002 C 
ATOM     10  C   UNL     1      -1.953   2.085  -0.860  0.00  0.00    +0.055 C 
ATOM     11  C   UNL     1       0.861   2.045   0.226  0.00  0.00    +0.074 C 
ATOM     12  C   UNL     1       0.482   1.483  -1.161  0.00  0.00    +0.024 C 
ATOM     13  C   UNL     1      -0.311   3.792  -1.615  0.00  0.00    +0.019 C 
ATOM     14  C   UNL     1      -1.527   2.300   0.620  0.00  0.00    +0.094 C 
ATOM     15  C   UNL     1      -0.208   4.164  -0.126  0.00  0.00    +0.085 C 
ENDROOT
BRANCH  10  17
ATOM      5  N   UNL     1      -2.291  -0.067  -1.974  0.00  0.00    -0.237 NA
ATOM      6  N   UNL     1      -4.143  -1.512  -1.440  0.00  0.00    -0.232 NA
ATOM     17  C   UNL     1      -2.751   0.803  -1.051  0.00  0.00    +0.050 A 
ATOM     18  C   UNL     1      -3.885   0.588  -0.294  0.00  0.00    +0.052 A 
ATOM     19  C   UNL     1      -4.547  -0.599  -0.533  0.00  0.00    +0.075 A 
ATOM     20  C   UNL     1      -3.024  -1.187  -2.115  0.00  0.00    +0.127 A 
ATOM     23  C   UNL     1      -2.548  -2.172  -3.128  0.00  0.00    +0.088 C 
BRANCH  19  22
ATOM      1  F   UNL     1      -9.179  -1.925   2.266  0.00  0.00    -0.205 F 
ATOM     22  C   UNL     1      -5.747  -0.942   0.192  0.00  0.00    +0.001 A 
ATOM     24  C   UNL     1      -5.713  -1.059   1.581  0.00  0.00    +0.013 A 
ATOM     25  C   UNL     1      -6.941  -1.157  -0.497  0.00  0.00    +0.013 A 
ATOM     27  C   UNL     1      -6.872  -1.391   2.282  0.00  0.00    +0.039 A 
ATOM     28  C   UNL     1      -8.100  -1.489   0.204  0.00  0.00    +0.039 A 
ATOM     29  C   UNL     1      -8.066  -1.606   1.593  0.00  0.00    +0.123 A 
ENDBRANCH  19  22
ENDBRANCH  10  17
BRANCH  11  16
ATOM     16  C   UNL     1       1.195   0.930   1.220  0.00  0.00    +0.124 C 
BRANCH  16   4
ATOM      2  O   UNL     1       3.972   1.394   1.747  0.00  0.00    -0.253 OA
ATOM      4  N   UNL     1       2.296   0.145   0.755  0.00  0.00    -0.298 N 
ATOM      7  N   UNL     1       4.492  -0.503   0.466  0.00  0.00    -0.269 N 
ATOM     21  C   UNL     1       3.640   0.434   1.056  0.00  0.00    +0.304 C 
ATOM     36  H   UNL     1       2.098  -0.663   0.173  0.00  0.00    +0.150 HD
ATOM     37  H   UNL     1       4.052  -1.240  -0.079  0.00  0.00    +0.156 HD
BRANCH   7  26
ATOM     26  C   UNL     1       5.904  -0.556   0.534  0.00  0.00    +0.036 A 
ATOM     30  C   UNL     1       6.597  -1.572  -0.124  0.00  0.00    +0.042 A 
ATOM     31  C   UNL     1       6.604   0.410   1.258  0.00  0.00    +0.023 A 
ATOM     32  C   UNL     1       7.990  -1.623  -0.057  0.00  0.00    +0.054 A 
ATOM     33  C   UNL     1       7.996   0.359   1.324  0.00  0.00    +0.003 A 
ATOM     34  C   UNL     1       8.689  -0.657   0.667  0.00  0.00    +0.019 A 
BRANCH  32  35
ATOM      8  N   UNL     1       9.278  -3.508  -1.278  0.00  0.00    -0.191 NA
ATOM     35  C   UNL     1       8.700  -2.663  -0.731  0.00  0.00    +0.099 C 
ENDBRANCH  32  35
ENDBRANCH   7  26
ENDBRANCH  16   4
ENDBRANCH  11  16
TORSDOF 6
