REMARK  Name = 11882990
REMARK  14 active torsions:
REMARK  status: ('A' for Active; 'I' for Inactive)
REMARK    1  A    between atoms: O_2  and  C_15
REMARK    2  A    between atoms: O_3  and  C_20
REMARK    3  A    between atoms: N_8  and  C_26
REMARK    4  A    between atoms: C_10  and  C_18
REMARK    5  A    between atoms: C_12  and  C_20
REMARK    6  A    between atoms: C_12  and  C_21
REMARK    7  A    between atoms: C_13  and  C_23
REMARK    8  A    between atoms: C_23  and  C_24
REMARK    9  A    between atoms: C_26  and  C_28
REMARK   10  A    between atoms: C_27  and  C_29
REMARK   11  A    between atoms: C_35  and  C_38
REMARK   12  A    between atoms: C_38  and  C_39
REMARK   13  A    between atoms: C_38  and  C_40
REMARK   14  A    between atoms: C_38  and  C_41
REMARK                            x       y       z     vdW  Elec       q    Type
REMARK                         _______ _______ _______ _____ _____    ______ ____
ROOT
ATOM      1  S   UNL     1      -0.701   2.689   0.202  0.00  0.00    -0.057 S 
ATOM      5  O   UNL     1       2.351  -0.805  -0.178  0.00  0.00    -0.270 OA
ATOM      7  N   UNL     1      -0.453   0.127  -0.059  0.00  0.00    -0.229 NA
ATOM      9  N   UNL     1       1.583   1.411   0.055  0.00  0.00    -0.261 N 
ATOM     10  C   UNL     1      -4.277  -0.154   0.347  0.00  0.00    -0.019 C 
ATOM     11  C   UNL     1      -4.532   1.270  -0.318  0.00  0.00    +0.011 C 
ATOM     12  C   UNL     1      -6.018   1.800  -0.330  0.00  0.00    +0.021 C 
ATOM     13  C   UNL     1      -2.844  -0.673  -0.133  0.00  0.00    +0.054 C 
ATOM     14  C   UNL     1      -5.352  -1.155  -0.151  0.00  0.00    +0.010 C 
ATOM     15  C   UNL     1      -6.963   0.662  -0.808  0.00  0.00    +0.123 C 
ATOM     16  C   UNL     1      -3.495   2.322   0.175  0.00  0.00    +0.049 C 
ATOM     17  C   UNL     1      -6.779  -0.638  -0.033  0.00  0.00    +0.032 C 
ATOM     18  C   UNL     1      -4.318  -0.111   1.894  0.00  0.00    +0.012 C 
ATOM     19  C   UNL     1      -1.806   0.412  -0.009  0.00  0.00    +0.058 A 
ATOM     21  C   UNL     1      -6.134   2.960  -1.358  0.00  0.00    +0.016 C 
ATOM     22  C   UNL     1      -2.119   1.750   0.110  0.00  0.00    +0.015 A 
ATOM     25  C   UNL     1       0.223   1.250   0.050  0.00  0.00    +0.165 A 
ATOM     27  C   UNL     1       2.550   0.398  -0.056  0.00  0.00    +0.250 C 
ATOM     45  H   UNL     1       1.876   2.381   0.109  0.00  0.00    +0.157 HD
ENDROOT
BRANCH  27  29
ATOM     29  C   UNL     1       3.962   0.864  -0.052  0.00  0.00    +0.037 A 
ATOM     31  C   UNL     1       4.304   2.053   0.592  0.00  0.00    +0.013 A 
ATOM     32  C   UNL     1       4.947   0.110  -0.693  0.00  0.00    +0.013 A 
ATOM     35  C   UNL     1       6.612   1.735  -0.044  0.00  0.00    -0.042 A 
ATOM     36  C   UNL     1       5.628   2.489   0.596  0.00  0.00    +0.005 A 
ATOM     37  C   UNL     1       6.271   0.546  -0.689  0.00  0.00    +0.005 A 
BRANCH  35  38
ATOM     38  C   UNL     1       8.029   2.201  -0.041  0.00  0.00    -0.013 C 
ATOM     39  C   UNL     1       8.552   2.431  -1.493  0.00  0.00    +0.015 C 
ATOM     40  C   UNL     1       8.968   1.156   0.637  0.00  0.00    +0.015 C 
ATOM     41  C   UNL     1       8.292   3.547   0.713  0.00  0.00    +0.015 C 
ENDBRANCH  35  38
ENDBRANCH  27  29
BRANCH  15   2
ATOM      2  O   UNL     1      -8.328   1.067  -0.707  0.00  0.00    -0.391 OA
ATOM     42  H   UNL     1      -8.877   0.345  -1.058  0.00  0.00    +0.210 HD
ENDBRANCH  15   2
BRANCH  12  20
ATOM     20  C   UNL     1      -6.499   2.388   1.015  0.00  0.00    +0.165 C 
BRANCH  20   3
ATOM      3  O   UNL     1      -7.828   2.824   0.845  0.00  0.00    -0.394 OA
ATOM     43  H   UNL     1      -8.121   3.201   1.692  0.00  0.00    +0.209 HD
ENDBRANCH  20   3
ENDBRANCH  12  20
BRANCH  13  23
ATOM     23  C   UNL     1      -2.381  -1.974   0.536  0.00  0.00    +0.106 C 
BRANCH  23  24
ATOM      4  O   UNL     1      -1.060  -2.379  -1.451  0.00  0.00    -0.276 OA
ATOM      8  N   UNL     1      -1.003  -3.911   0.295  0.00  0.00    -0.308 N 
ATOM     24  C   UNL     1      -1.417  -2.747  -0.335  0.00  0.00    +0.214 C 
ATOM     44  H   UNL     1      -1.346  -4.119   1.229  0.00  0.00    +0.149 HD
BRANCH   8  26
ATOM     26  C   UNL     1      -0.082  -4.849  -0.305  0.00  0.00    +0.178 C 
BRANCH  26  28
ATOM      6  O   UNL     1       2.175  -4.193  -0.915  0.00  0.00    -0.466 OA
ATOM     28  C   UNL     1       1.319  -4.501   0.095  0.00  0.00    +0.122 A 
ATOM     30  C   UNL     1       1.958  -4.421   1.310  0.00  0.00    +0.046 A 
ATOM     33  C   UNL     1       3.292  -4.039   1.029  0.00  0.00    +0.041 A 
ATOM     34  C   UNL     1       3.373  -3.913  -0.338  0.00  0.00    +0.195 A 
ENDBRANCH  26  28
ENDBRANCH   8  26
ENDBRANCH  23  24
ENDBRANCH  13  23
TORSDOF 9
