MODEL 1
REMARK VINA RESULT:      -6.7      0.000      0.000
REMARK  Name = 45783392
REMARK  7 active torsions:
REMARK  status: ('A' for Active; 'I' for Inactive)
REMARK    1  A    between atoms: O_3  and  C_26
REMARK    2  A    between atoms: O_3  and  C_27
REMARK    3  A    between atoms: N_4  and  C_9
REMARK    4  A    between atoms: N_7  and  C_24
REMARK    5  A    between atoms: C_10  and  C_18
REMARK    6  A    between atoms: C_19  and  C_20
REMARK    7  A    between atoms: C_24  and  C_26
REMARK                            x       y       z     vdW  Elec       q    Type
REMARK                         _______ _______ _______ _____ _____    ______ ____
ROOT
ATOM      2  O   UNL     1      16.183   6.018  18.568  0.00  0.00    -0.336 OA
ATOM      5  N   UNL     1      16.158   7.597  20.158  0.00  0.00    -0.190 NA
ATOM      6  N   UNL     1      17.420   5.935  19.219  0.00  0.00    -0.056 NA
ATOM     18  C   UNL     1      15.502   7.020  19.182  0.00  0.00    +0.245 A 
ATOM     19  C   UNL     1      17.330   6.897  20.143  0.00  0.00    +0.205 A 
ENDROOT
BRANCH  19  20
ATOM      7  N   UNL     1      17.659   9.470  21.298  0.00  0.00    -0.326 N 
ATOM      8  N   UNL     1      19.557   8.736  22.506  0.00  0.00    -0.240 NA
ATOM     20  C   UNL     1      18.391   7.185  21.063  0.00  0.00    +0.062 A 
ATOM     21  C   UNL     1      18.567   8.435  21.636  0.00  0.00    +0.130 A 
ATOM     22  C   UNL     1      19.289   6.180  21.405  0.00  0.00    +0.016 A 
ATOM     23  C   UNL     1      20.321   6.451  22.297  0.00  0.00    +0.020 A 
ATOM     25  C   UNL     1      20.410   7.734  22.815  0.00  0.00    +0.113 A 
ATOM     28  H   UNL     1      17.183   9.371  20.408  0.00  0.00    +0.148 HD
BRANCH   7  24
ATOM     24  C   UNL     1      17.760  10.787  21.837  0.00  0.00    +0.131 C 
BRANCH  24  26
ATOM     26  C   UNL     1      16.400  11.463  21.814  0.00  0.00    +0.178 C 
BRANCH  26   3
ATOM      3  O   UNL     1      15.380  10.474  21.768  0.00  0.00    -0.381 OA
ATOM     27  C   UNL     1      14.621  10.453  22.969  0.00  0.00    +0.194 C 
ENDBRANCH  26   3
ENDBRANCH  24  26
ENDBRANCH   7  24
ENDBRANCH  19  20
BRANCH  18  10
ATOM      4  N   UNL     1      13.451   8.416  19.382  0.00  0.00    -0.288 NA
ATOM     10  C   UNL     1      14.112   7.314  18.656  0.00  0.00    +0.146 C 
ATOM     11  C   UNL     1      12.540   9.051  18.429  0.00  0.00    +0.085 C 
ATOM     12  C   UNL     1      14.116   7.761  17.183  0.00  0.00    +0.030 C 
ATOM     13  C   UNL     1      13.383   9.095  17.171  0.00  0.00    +0.017 C 
BRANCH   4   9
ATOM      1  O   UNL     1      10.302   7.275  21.913  0.00  0.00    -0.380 OA
ATOM      9  C   UNL     1      12.761   7.978  20.593  0.00  0.00    +0.062 C 
ATOM     14  C   UNL     1      11.737   9.027  21.032  0.00  0.00    +0.047 C 
ATOM     15  C   UNL     1      12.071   6.628  20.377  0.00  0.00    +0.047 C 
ATOM     16  C   UNL     1      10.933   8.518  22.223  0.00  0.00    +0.161 C 
ATOM     17  C   UNL     1      11.248   6.251  21.604  0.00  0.00    +0.161 C 
ENDBRANCH   4   9
ENDBRANCH  18  10
TORSDOF 6
ENDMDL
MODEL 2
REMARK VINA RESULT:      -6.6      1.953      3.825
REMARK  Name = 45783392
REMARK  7 active torsions:
REMARK  status: ('A' for Active; 'I' for Inactive)
REMARK    1  A    between atoms: O_3  and  C_26
REMARK    2  A    between atoms: O_3  and  C_27
REMARK    3  A    between atoms: N_4  and  C_9
REMARK    4  A    between atoms: N_7  and  C_24
REMARK    5  A    between atoms: C_10  and  C_18
REMARK    6  A    between atoms: C_19  and  C_20
REMARK    7  A    between atoms: C_24  and  C_26
REMARK                            x       y       z     vdW  Elec       q    Type
REMARK                         _______ _______ _______ _____ _____    ______ ____
ROOT
ATOM      2  O   UNL     1      16.301   5.859  18.943  0.00  0.00    -0.336 OA
ATOM      5  N   UNL     1      16.377   7.785  20.086  0.00  0.00    -0.190 NA
ATOM      6  N   UNL     1      17.549   5.887  19.578  0.00  0.00    -0.056 NA
ATOM     18  C   UNL     1      15.675   7.012  19.295  0.00  0.00    +0.245 A 
ATOM     19  C   UNL     1      17.519   7.052  20.231  0.00  0.00    +0.205 A 
ENDROOT
BRANCH  19  20
ATOM      7  N   UNL     1      20.013   5.694  20.300  0.00  0.00    -0.326 N 
ATOM      8  N   UNL     1      20.884   7.275  21.831  0.00  0.00    -0.240 NA
ATOM     20  C   UNL     1      18.612   7.514  21.036  0.00  0.00    +0.062 A 
ATOM     21  C   UNL     1      19.836   6.863  21.083  0.00  0.00    +0.130 A 
ATOM     22  C   UNL     1      18.455   8.659  21.809  0.00  0.00    +0.016 A 
ATOM     23  C   UNL     1      19.510   9.114  22.592  0.00  0.00    +0.020 A 
ATOM     25  C   UNL     1      20.694   8.392  22.568  0.00  0.00    +0.113 A 
ATOM     28  H   UNL     1      19.167   5.190  20.057  0.00  0.00    +0.148 HD
BRANCH   7  24
ATOM     24  C   UNL     1      21.234   4.958  20.282  0.00  0.00    +0.131 C 
BRANCH  24  26
ATOM     26  C   UNL     1      21.048   3.625  20.985  0.00  0.00    +0.178 C 
BRANCH  26   3
ATOM      3  O   UNL     1      22.120   3.415  21.895  0.00  0.00    -0.381 OA
ATOM     27  C   UNL     1      23.349   3.902  21.373  0.00  0.00    +0.194 C 
ENDBRANCH  26   3
ENDBRANCH  24  26
ENDBRANCH   7  24
ENDBRANCH  19  20
BRANCH  18  10
ATOM      4  N   UNL     1      13.556   8.313  19.413  0.00  0.00    -0.288 NA
ATOM     10  C   UNL     1      14.285   7.226  18.731  0.00  0.00    +0.146 C 
ATOM     11  C   UNL     1      12.639   8.880  18.424  0.00  0.00    +0.085 C 
ATOM     12  C   UNL     1      14.303   7.638  17.247  0.00  0.00    +0.030 C 
ATOM     13  C   UNL     1      13.509   8.934  17.185  0.00  0.00    +0.017 C 
BRANCH   4   9
ATOM      1  O   UNL     1      10.384   7.238  21.944  0.00  0.00    -0.380 OA
ATOM      9  C   UNL     1      12.860   7.871  20.619  0.00  0.00    +0.062 C 
ATOM     14  C   UNL     1      11.885   8.951  21.096  0.00  0.00    +0.047 C 
ATOM     15  C   UNL     1      12.110   6.559  20.374  0.00  0.00    +0.047 C 
ATOM     16  C   UNL     1      11.071   8.444  22.281  0.00  0.00    +0.161 C 
ATOM     17  C   UNL     1      11.283   6.184  21.598  0.00  0.00    +0.161 C 
ENDBRANCH   4   9
ENDBRANCH  18  10
TORSDOF 6
ENDMDL
MODEL 3
REMARK VINA RESULT:      -6.4     16.357     19.757
REMARK  Name = 45783392
REMARK  7 active torsions:
REMARK  status: ('A' for Active; 'I' for Inactive)
REMARK    1  A    between atoms: O_3  and  C_26
REMARK    2  A    between atoms: O_3  and  C_27
REMARK    3  A    between atoms: N_4  and  C_9
REMARK    4  A    between atoms: N_7  and  C_24
REMARK    5  A    between atoms: C_10  and  C_18
REMARK    6  A    between atoms: C_19  and  C_20
REMARK    7  A    between atoms: C_24  and  C_26
REMARK                            x       y       z     vdW  Elec       q    Type
REMARK                         _______ _______ _______ _____ _____    ______ ____
ROOT
ATOM      2  O   UNL     1      11.256   3.394   3.106  0.00  0.00    -0.336 OA
ATOM      5  N   UNL     1      11.406   5.429   2.182  0.00  0.00    -0.190 NA
ATOM      6  N   UNL     1      10.456   4.236   3.888  0.00  0.00    -0.056 NA
ATOM     18  C   UNL     1      11.779   4.176   2.125  0.00  0.00    +0.245 A 
ATOM     19  C   UNL     1      10.595   5.418   3.281  0.00  0.00    +0.205 A 
ENDROOT
BRANCH  19  20
ATOM      7  N   UNL     1      10.672   6.207   6.008  0.00  0.00    -0.326 N 
ATOM      8  N   UNL     1       9.360   8.120   5.540  0.00  0.00    -0.240 NA
ATOM     20  C   UNL     1       9.941   6.607   3.745  0.00  0.00    +0.062 A 
ATOM     21  C   UNL     1       9.967   7.006   5.073  0.00  0.00    +0.130 A 
ATOM     22  C   UNL     1       9.246   7.401   2.840  0.00  0.00    +0.016 A 
ATOM     23  C   UNL     1       8.607   8.555   3.283  0.00  0.00    +0.020 A 
ATOM     25  C   UNL     1       8.695   8.868   4.631  0.00  0.00    +0.113 A 
ATOM     28  H   UNL     1      10.791   5.231   5.759  0.00  0.00    +0.148 HD
BRANCH   7  24
ATOM     24  C   UNL     1      10.756   6.538   7.393  0.00  0.00    +0.131 C 
BRANCH  24  26
ATOM     26  C   UNL     1       9.692   5.785   8.172  0.00  0.00    +0.178 C 
BRANCH  26   3
ATOM      3  O   UNL     1      10.313   4.981   9.167  0.00  0.00    -0.381 OA
ATOM     27  C   UNL     1       9.388   4.586  10.170  0.00  0.00    +0.194 C 
ENDBRANCH  26   3
ENDBRANCH  24  26
ENDBRANCH   7  24
ENDBRANCH  19  20
BRANCH  18  10
ATOM      4  N   UNL     1      12.691   4.150  -0.190  0.00  0.00    -0.288 NA
ATOM     10  C   UNL     1      12.693   3.491   1.131  0.00  0.00    +0.146 C 
ATOM     11  C   UNL     1      14.010   3.909  -0.775  0.00  0.00    +0.085 C 
ATOM     12  C   UNL     1      14.169   3.506   1.572  0.00  0.00    +0.030 C 
ATOM     13  C   UNL     1      14.925   4.135   0.412  0.00  0.00    +0.017 C 
BRANCH   4   9
ATOM      1  O   UNL     1      10.540   3.403  -3.718  0.00  0.00    -0.380 OA
ATOM      9  C   UNL     1      11.611   3.690  -1.062  0.00  0.00    +0.062 C 
ATOM     14  C   UNL     1      11.017   4.868  -1.838  0.00  0.00    +0.047 C 
ATOM     15  C   UNL     1      12.107   2.616  -2.035  0.00  0.00    +0.047 C 
ATOM     16  C   UNL     1       9.975   4.373  -2.836  0.00  0.00    +0.161 C 
ATOM     17  C   UNL     1      11.005   2.246  -3.021  0.00  0.00    +0.161 C 
ENDBRANCH   4   9
ENDBRANCH  18  10
TORSDOF 6
ENDMDL
MODEL 4
REMARK VINA RESULT:      -6.3     26.810     28.794
REMARK  Name = 45783392
REMARK  7 active torsions:
REMARK  status: ('A' for Active; 'I' for Inactive)
REMARK    1  A    between atoms: O_3  and  C_26
REMARK    2  A    between atoms: O_3  and  C_27
REMARK    3  A    between atoms: N_4  and  C_9
REMARK    4  A    between atoms: N_7  and  C_24
REMARK    5  A    between atoms: C_10  and  C_18
REMARK    6  A    between atoms: C_19  and  C_20
REMARK    7  A    between atoms: C_24  and  C_26
REMARK                            x       y       z     vdW  Elec       q    Type
REMARK                         _______ _______ _______ _____ _____    ______ ____
ROOT
ATOM      2  O   UNL     1      -2.269 -10.368  14.728  0.00  0.00    -0.336 OA
ATOM      5  N   UNL     1      -4.361 -11.142  14.934  0.00  0.00    -0.190 NA
ATOM      6  N   UNL     1      -2.551 -10.369  16.099  0.00  0.00    -0.056 NA
ATOM     18  C   UNL     1      -3.387 -10.837  14.114  0.00  0.00    +0.245 A 
ATOM     19  C   UNL     1      -3.801 -10.838  16.141  0.00  0.00    +0.205 A 
ENDROOT
BRANCH  19  20
ATOM      7  N   UNL     1      -6.393  -9.745  16.535  0.00  0.00    -0.326 N 
ATOM      8  N   UNL     1      -6.485 -10.634  18.726  0.00  0.00    -0.240 NA
ATOM     20  C   UNL     1      -4.519 -11.012  17.370  0.00  0.00    +0.062 A 
ATOM     21  C   UNL     1      -5.784 -10.486  17.580  0.00  0.00    +0.130 A 
ATOM     22  C   UNL     1      -3.936 -11.737  18.404  0.00  0.00    +0.016 A 
ATOM     23  C   UNL     1      -4.626 -11.911  19.599  0.00  0.00    +0.020 A 
ATOM     25  C   UNL     1      -5.887 -11.344  19.708  0.00  0.00    +0.113 A 
ATOM     28  H   UNL     1      -5.761  -9.323  15.863  0.00  0.00    +0.148 HD
BRANCH   7  24
ATOM     24  C   UNL     1      -7.691  -9.166  16.658  0.00  0.00    +0.131 C 
BRANCH  24  26
ATOM     26  C   UNL     1      -8.610  -9.717  15.582  0.00  0.00    +0.178 C 
BRANCH  26   3
ATOM      3  O   UNL     1      -9.723  -8.848  15.420  0.00  0.00    -0.381 OA
ATOM     27  C   UNL     1      -9.740  -7.832  16.412  0.00  0.00    +0.194 C 
ENDBRANCH  26   3
ENDBRANCH  24  26
ENDBRANCH   7  24
ENDBRANCH  19  20
BRANCH  18  10
ATOM      4  N   UNL     1      -4.169  -9.914  11.939  0.00  0.00    -0.288 NA
ATOM     10  C   UNL     1      -3.337 -10.937  12.603  0.00  0.00    +0.146 C 
ATOM     11  C   UNL     1      -3.536  -9.640  10.649  0.00  0.00    +0.085 C 
ATOM     12  C   UNL     1      -1.921 -10.717  12.039  0.00  0.00    +0.030 C 
ATOM     13  C   UNL     1      -2.068  -9.594  11.024  0.00  0.00    +0.017 C 
BRANCH   4   9
ATOM      1  O   UNL     1      -8.144  -9.872  10.588  0.00  0.00    -0.380 OA
ATOM      9  C   UNL     1      -5.567 -10.314  11.792  0.00  0.00    +0.062 C 
ATOM     14  C   UNL     1      -6.494  -9.178  12.232  0.00  0.00    +0.047 C 
ATOM     15  C   UNL     1      -5.877 -10.714  10.346  0.00  0.00    +0.047 C 
ATOM     16  C   UNL     1      -7.949  -9.548  11.965  0.00  0.00    +0.161 C 
ATOM     17  C   UNL     1      -7.365 -10.999  10.183  0.00  0.00    +0.161 C 
ENDBRANCH   4   9
ENDBRANCH  18  10
TORSDOF 6
ENDMDL
MODEL 5
REMARK VINA RESULT:      -6.0     26.162     28.985
REMARK  Name = 45783392
REMARK  7 active torsions:
REMARK  status: ('A' for Active; 'I' for Inactive)
REMARK    1  A    between atoms: O_3  and  C_26
REMARK    2  A    between atoms: O_3  and  C_27
REMARK    3  A    between atoms: N_4  and  C_9
REMARK    4  A    between atoms: N_7  and  C_24
REMARK    5  A    between atoms: C_10  and  C_18
REMARK    6  A    between atoms: C_19  and  C_20
REMARK    7  A    between atoms: C_24  and  C_26
REMARK                            x       y       z     vdW  Elec       q    Type
REMARK                         _______ _______ _______ _____ _____    ______ ____
ROOT
ATOM      2  O   UNL     1      -7.605 -11.677  13.496  0.00  0.00    -0.336 OA
ATOM      5  N   UNL     1      -6.405  -9.803  13.747  0.00  0.00    -0.190 NA
ATOM      6  N   UNL     1      -6.739 -11.620  12.398  0.00  0.00    -0.056 NA
ATOM     18  C   UNL     1      -7.344 -10.570  14.239  0.00  0.00    +0.245 A 
ATOM     19  C   UNL     1      -6.064 -10.488  12.616  0.00  0.00    +0.205 A 
ENDROOT
BRANCH  19  20
ATOM      7  N   UNL     1      -3.365 -11.349  12.822  0.00  0.00    -0.326 N 
ATOM      8  N   UNL     1      -2.743  -9.990  10.988  0.00  0.00    -0.240 NA
ATOM     20  C   UNL     1      -5.045 -10.012  11.725  0.00  0.00    +0.062 A 
ATOM     21  C   UNL     1      -3.724 -10.421  11.812  0.00  0.00    +0.130 A 
ATOM     22  C   UNL     1      -5.381  -9.102  10.729  0.00  0.00    +0.016 A 
ATOM     23  C   UNL     1      -4.400  -8.636   9.861  0.00  0.00    +0.020 A 
ATOM     25  C   UNL     1      -3.107  -9.107  10.031  0.00  0.00    +0.113 A 
ATOM     28  H   UNL     1      -3.970 -11.375  13.637  0.00  0.00    +0.148 HD
BRANCH   7  24
ATOM     24  C   UNL     1      -2.032 -11.827  12.989  0.00  0.00    +0.131 C 
BRANCH  24  26
ATOM     26  C   UNL     1      -1.808 -12.252  14.430  0.00  0.00    +0.178 C 
BRANCH  26   3
ATOM      3  O   UNL     1      -2.245 -11.217  15.302  0.00  0.00    -0.381 OA
ATOM     27  C   UNL     1      -1.158 -10.416  15.745  0.00  0.00    +0.194 C 
ENDBRANCH  26   3
ENDBRANCH  24  26
ENDBRANCH   7  24
ENDBRANCH  19  20
BRANCH  18  10
ATOM      4  N   UNL     1      -7.380  -9.804  16.607  0.00  0.00    -0.288 NA
ATOM     10  C   UNL     1      -8.161 -10.396  15.503  0.00  0.00    +0.146 C 
ATOM     11  C   UNL     1      -8.332  -9.063  17.436  0.00  0.00    +0.085 C 
ATOM     12  C   UNL     1      -9.354  -9.442  15.312  0.00  0.00    +0.030 C 
ATOM     13  C   UNL     1      -9.192  -8.382  16.391  0.00  0.00    +0.017 C 
BRANCH   4   9
ATOM      1  O   UNL     1      -4.786 -11.377  19.510  0.00  0.00    -0.380 OA
ATOM      9  C   UNL     1      -6.633 -10.794  17.380  0.00  0.00    +0.062 C 
ATOM     14  C   UNL     1      -5.128 -10.542  17.253  0.00  0.00    +0.047 C 
ATOM     15  C   UNL     1      -7.046 -10.771  18.854  0.00  0.00    +0.047 C 
ATOM     16  C   UNL     1      -4.353 -11.497  18.155  0.00  0.00    +0.161 C 
ATOM     17  C   UNL     1      -6.166 -11.712  19.667  0.00  0.00    +0.161 C 
ENDBRANCH   4   9
ENDBRANCH  18  10
TORSDOF 6
ENDMDL
MODEL 6
REMARK VINA RESULT:      -6.0      2.172      3.546
REMARK  Name = 45783392
REMARK  7 active torsions:
REMARK  status: ('A' for Active; 'I' for Inactive)
REMARK    1  A    between atoms: O_3  and  C_26
REMARK    2  A    between atoms: O_3  and  C_27
REMARK    3  A    between atoms: N_4  and  C_9
REMARK    4  A    between atoms: N_7  and  C_24
REMARK    5  A    between atoms: C_10  and  C_18
REMARK    6  A    between atoms: C_19  and  C_20
REMARK    7  A    between atoms: C_24  and  C_26
REMARK                            x       y       z     vdW  Elec       q    Type
REMARK                         _______ _______ _______ _____ _____    ______ ____
ROOT
ATOM      2  O   UNL     1      15.625   6.163  19.063  0.00  0.00    -0.336 OA
ATOM      5  N   UNL     1      16.687   7.249  20.709  0.00  0.00    -0.190 NA
ATOM      6  N   UNL     1      16.945   5.695  19.050  0.00  0.00    -0.056 NA
ATOM     18  C   UNL     1      15.559   7.074  20.068  0.00  0.00    +0.245 A 
ATOM     19  C   UNL     1      17.508   6.382  20.048  0.00  0.00    +0.205 A 
ENDROOT
BRANCH  19  20
ATOM      7  N   UNL     1      18.971   8.458  21.320  0.00  0.00    -0.326 N 
ATOM      8  N   UNL     1      20.917   7.112  21.383  0.00  0.00    -0.240 NA
ATOM     20  C   UNL     1      18.887   6.227  20.410  0.00  0.00    +0.062 A 
ATOM     21  C   UNL     1      19.617   7.229  21.030  0.00  0.00    +0.130 A 
ATOM     22  C   UNL     1      19.535   5.027  20.133  0.00  0.00    +0.016 A 
ATOM     23  C   UNL     1      20.872   4.869  20.480  0.00  0.00    +0.020 A 
ATOM     25  C   UNL     1      21.512   5.932  21.098  0.00  0.00    +0.113 A 
ATOM     28  H   UNL     1      18.165   8.683  20.747  0.00  0.00    +0.148 HD
BRANCH   7  24
ATOM     24  C   UNL     1      19.639   9.546  21.957  0.00  0.00    +0.131 C 
BRANCH  24  26
ATOM     26  C   UNL     1      19.884  10.662  20.956  0.00  0.00    +0.178 C 
BRANCH  26   3
ATOM      3  O   UNL     1      19.845  11.915  21.625  0.00  0.00    -0.381 OA
ATOM     27  C   UNL     1      19.541  11.760  23.005  0.00  0.00    +0.194 C 
ENDBRANCH  26   3
ENDBRANCH  24  26
ENDBRANCH   7  24
ENDBRANCH  19  20
BRANCH  18  10
ATOM      4  N   UNL     1      13.245   7.431  19.224  0.00  0.00    -0.288 NA
ATOM     10  C   UNL     1      14.215   7.735  20.294  0.00  0.00    +0.146 C 
ATOM     11  C   UNL     1      11.919   7.480  19.841  0.00  0.00    +0.085 C 
ATOM     12  C   UNL     1      13.530   7.262  21.589  0.00  0.00    +0.030 C 
ATOM     13  C   UNL     1      12.159   6.765  21.155  0.00  0.00    +0.017 C 
BRANCH   4   9
ATOM      1  O   UNL     1      12.863   8.832  15.284  0.00  0.00    -0.380 OA
ATOM      9  C   UNL     1      13.352   8.330  18.076  0.00  0.00    +0.062 C 
ATOM     14  C   UNL     1      14.185   7.681  16.968  0.00  0.00    +0.047 C 
ATOM     15  C   UNL     1      11.967   8.706  17.540  0.00  0.00    +0.047 C 
ATOM     16  C   UNL     1      14.195   8.566  15.726  0.00  0.00    +0.161 C 
ATOM     17  C   UNL     1      12.099   9.533  16.266  0.00  0.00    +0.161 C 
ENDBRANCH   4   9
ENDBRANCH  18  10
TORSDOF 6
ENDMDL
MODEL 7
REMARK VINA RESULT:      -5.9     26.156     29.242
REMARK  Name = 45783392
REMARK  7 active torsions:
REMARK  status: ('A' for Active; 'I' for Inactive)
REMARK    1  A    between atoms: O_3  and  C_26
REMARK    2  A    between atoms: O_3  and  C_27
REMARK    3  A    between atoms: N_4  and  C_9
REMARK    4  A    between atoms: N_7  and  C_24
REMARK    5  A    between atoms: C_10  and  C_18
REMARK    6  A    between atoms: C_19  and  C_20
REMARK    7  A    between atoms: C_24  and  C_26
REMARK                            x       y       z     vdW  Elec       q    Type
REMARK                         _______ _______ _______ _____ _____    ______ ____
ROOT
ATOM      2  O   UNL     1      -6.440 -12.339  16.997  0.00  0.00    -0.336 OA
ATOM      5  N   UNL     1      -5.389 -10.366  17.139  0.00  0.00    -0.190 NA
ATOM      6  N   UNL     1      -5.340 -12.420  16.134  0.00  0.00    -0.056 NA
ATOM     18  C   UNL     1      -6.395 -11.098  17.547  0.00  0.00    +0.245 A 
ATOM     19  C   UNL     1      -4.770 -11.220  16.273  0.00  0.00    +0.205 A 
ENDROOT
BRANCH  19  20
ATOM      7  N   UNL     1      -4.778 -10.782  13.467  0.00  0.00    -0.326 N 
ATOM      8  N   UNL     1      -2.468 -10.268  13.493  0.00  0.00    -0.240 NA
ATOM     20  C   UNL     1      -3.584 -10.842  15.561  0.00  0.00    +0.062 A 
ATOM     21  C   UNL     1      -3.569 -10.625  14.191  0.00  0.00    +0.130 A 
ATOM     22  C   UNL     1      -2.391 -10.683  16.257  0.00  0.00    +0.016 A 
ATOM     23  C   UNL     1      -1.236 -10.317  15.574  0.00  0.00    +0.020 A 
ATOM     25  C   UNL     1      -1.327 -10.122  14.204  0.00  0.00    +0.113 A 
ATOM     28  H   UNL     1      -5.473 -11.389  13.887  0.00  0.00    +0.148 HD
BRANCH   7  24
ATOM     24  C   UNL     1      -4.861 -10.579  12.057  0.00  0.00    +0.131 C 
BRANCH  24  26
ATOM     26  C   UNL     1      -5.630  -9.305  11.759  0.00  0.00    +0.178 C 
BRANCH  26   3
ATOM      3  O   UNL     1      -4.878  -8.496  10.865  0.00  0.00    -0.381 OA
ATOM     27  C   UNL     1      -3.821  -9.230  10.262  0.00  0.00    +0.194 C 
ENDBRANCH  26   3
ENDBRANCH  24  26
ENDBRANCH   7  24
ENDBRANCH  19  20
BRANCH  18  10
ATOM      4  N   UNL     1      -8.836 -10.795  17.923  0.00  0.00    -0.288 NA
ATOM     10  C   UNL     1      -7.493 -10.755  18.533  0.00  0.00    +0.146 C 
ATOM     11  C   UNL     1      -9.766 -11.155  18.995  0.00  0.00    +0.085 C 
ATOM     12  C   UNL     1      -7.566 -11.747  19.709  0.00  0.00    +0.030 C 
ATOM     13  C   UNL     1      -9.003 -12.246  19.718  0.00  0.00    +0.017 C 
BRANCH   4   9
ATOM      1  O   UNL     1     -11.107  -8.053  15.698  0.00  0.00    -0.380 OA
ATOM      9  C   UNL     1      -9.210  -9.543  17.268  0.00  0.00    +0.062 C 
ATOM     14  C   UNL     1      -9.379  -9.761  15.762  0.00  0.00    +0.047 C 
ATOM     15  C   UNL     1     -10.500  -8.972  17.864  0.00  0.00    +0.047 C 
ATOM     16  C   UNL     1      -9.887  -8.487  15.096  0.00  0.00    +0.161 C 
ATOM     17  C   UNL     1     -10.946  -7.742  17.082  0.00  0.00    +0.161 C 
ENDBRANCH   4   9
ENDBRANCH  18  10
TORSDOF 6
ENDMDL
MODEL 8
REMARK VINA RESULT:      -5.8     26.019     29.564
REMARK  Name = 45783392
REMARK  7 active torsions:
REMARK  status: ('A' for Active; 'I' for Inactive)
REMARK    1  A    between atoms: O_3  and  C_26
REMARK    2  A    between atoms: O_3  and  C_27
REMARK    3  A    between atoms: N_4  and  C_9
REMARK    4  A    between atoms: N_7  and  C_24
REMARK    5  A    between atoms: C_10  and  C_18
REMARK    6  A    between atoms: C_19  and  C_20
REMARK    7  A    between atoms: C_24  and  C_26
REMARK                            x       y       z     vdW  Elec       q    Type
REMARK                         _______ _______ _______ _____ _____    ______ ____
ROOT
ATOM      2  O   UNL     1      -4.686  -9.752  16.712  0.00  0.00    -0.336 OA
ATOM      5  N   UNL     1      -5.288 -11.893  16.982  0.00  0.00    -0.190 NA
ATOM      6  N   UNL     1      -5.847  -9.735  17.494  0.00  0.00    -0.056 NA
ATOM     18  C   UNL     1      -4.426 -11.061  16.454  0.00  0.00    +0.245 A 
ATOM     19  C   UNL     1      -6.141 -11.033  17.610  0.00  0.00    +0.205 A 
ENDROOT
BRANCH  19  20
ATOM      7  N   UNL     1      -8.724  -9.903  17.265  0.00  0.00    -0.326 N 
ATOM      8  N   UNL     1      -9.638 -11.385  18.867  0.00  0.00    -0.240 NA
ATOM     20  C   UNL     1      -7.280 -11.503  18.345  0.00  0.00    +0.062 A 
ATOM     21  C   UNL     1      -8.547 -10.963  18.189  0.00  0.00    +0.130 A 
ATOM     22  C   UNL     1      -7.123 -12.543  19.255  0.00  0.00    +0.016 A 
ATOM     23  C   UNL     1      -8.222 -13.005  19.971  0.00  0.00    +0.020 A 
ATOM     25  C   UNL     1      -9.447 -12.398  19.742  0.00  0.00    +0.113 A 
ATOM     28  H   UNL     1      -7.898  -9.353  17.055  0.00  0.00    +0.148 HD
BRANCH   7  24
ATOM     24  C   UNL     1      -9.989  -9.285  17.036  0.00  0.00    +0.131 C 
BRANCH  24  26
ATOM     26  C   UNL     1      -9.805  -7.796  16.802  0.00  0.00    +0.178 C 
BRANCH  26   3
ATOM      3  O   UNL     1     -11.069  -7.148  16.860  0.00  0.00    -0.381 OA
ATOM     27  C   UNL     1     -11.202  -6.171  15.836  0.00  0.00    +0.194 C 
ENDBRANCH  26   3
ENDBRANCH  24  26
ENDBRANCH   7  24
ENDBRANCH  19  20
BRANCH  18  10
ATOM      4  N   UNL     1      -3.171 -10.573  14.361  0.00  0.00    -0.288 NA
ATOM     10  C   UNL     1      -3.201 -11.354  15.613  0.00  0.00    +0.146 C 
ATOM     11  C   UNL     1      -1.759 -10.380  14.028  0.00  0.00    +0.085 C 
ATOM     12  C   UNL     1      -1.887 -10.992  16.331  0.00  0.00    +0.030 C 
ATOM     13  C   UNL     1      -1.160 -10.053  15.381  0.00  0.00    +0.017 C 
BRANCH   4   9
ATOM      1  O   UNL     1      -4.815 -11.131  10.539  0.00  0.00    -0.380 OA
ATOM      9  C   UNL     1      -3.912 -11.203  13.271  0.00  0.00    +0.062 C 
ATOM     14  C   UNL     1      -5.053 -10.294  12.808  0.00  0.00    +0.047 C 
ATOM     15  C   UNL     1      -2.990 -11.529  12.093  0.00  0.00    +0.047 C 
ATOM     16  C   UNL     1      -5.750 -10.895  11.592  0.00  0.00    +0.161 C 
ATOM     17  C   UNL     1      -3.800 -12.061  10.917  0.00  0.00    +0.161 C 
ENDBRANCH   4   9
ENDBRANCH  18  10
TORSDOF 6
ENDMDL
MODEL 9
REMARK VINA RESULT:      -5.8     27.280     29.176
REMARK  Name = 45783392
REMARK  7 active torsions:
REMARK  status: ('A' for Active; 'I' for Inactive)
REMARK    1  A    between atoms: O_3  and  C_26
REMARK    2  A    between atoms: O_3  and  C_27
REMARK    3  A    between atoms: N_4  and  C_9
REMARK    4  A    between atoms: N_7  and  C_24
REMARK    5  A    between atoms: C_10  and  C_18
REMARK    6  A    between atoms: C_19  and  C_20
REMARK    7  A    between atoms: C_24  and  C_26
REMARK                            x       y       z     vdW  Elec       q    Type
REMARK                         _______ _______ _______ _____ _____    ______ ____
ROOT
ATOM      2  O   UNL     1      -5.658 -11.965  13.280  0.00  0.00    -0.336 OA
ATOM      5  N   UNL     1      -4.124 -11.044  14.629  0.00  0.00    -0.190 NA
ATOM      6  N   UNL     1      -6.199 -12.007  14.572  0.00  0.00    -0.056 NA
ATOM     18  C   UNL     1      -4.436 -11.384  13.403  0.00  0.00    +0.245 A 
ATOM     19  C   UNL     1      -5.237 -11.447  15.310  0.00  0.00    +0.205 A 
ENDROOT
BRANCH  19  20
ATOM      7  N   UNL     1      -7.393 -10.013  16.477  0.00  0.00    -0.326 N 
ATOM      8  N   UNL     1      -6.535 -10.400  18.649  0.00  0.00    -0.240 NA
ATOM     20  C   UNL     1      -5.354 -11.275  16.729  0.00  0.00    +0.062 A 
ATOM     21  C   UNL     1      -6.399 -10.578  17.316  0.00  0.00    +0.130 A 
ATOM     22  C   UNL     1      -4.387 -11.824  17.565  0.00  0.00    +0.016 A 
ATOM     23  C   UNL     1      -4.493 -11.662  18.942  0.00  0.00    +0.020 A 
ATOM     25  C   UNL     1      -5.577 -10.948  19.429  0.00  0.00    +0.113 A 
ATOM     28  H   UNL     1      -7.111  -9.817  15.523  0.00  0.00    +0.148 HD
BRANCH   7  24
ATOM     24  C   UNL     1      -8.504  -9.280  16.989  0.00  0.00    +0.131 C 
BRANCH  24  26
ATOM     26  C   UNL     1      -9.326  -8.715  15.843  0.00  0.00    +0.178 C 
BRANCH  26   3
ATOM      3  O   UNL     1      -9.734  -7.391  16.162  0.00  0.00    -0.381 OA
ATOM     27  C   UNL     1     -11.003  -7.377  16.801  0.00  0.00    +0.194 C 
ENDBRANCH  26   3
ENDBRANCH  24  26
ENDBRANCH   7  24
ENDBRANCH  19  20
BRANCH  18  10
ATOM      4  N   UNL     1      -3.844  -9.902  11.494  0.00  0.00    -0.288 NA
ATOM     10  C   UNL     1      -3.636 -11.218  12.128  0.00  0.00    +0.146 C 
ATOM     11  C   UNL     1      -2.606  -9.586  10.780  0.00  0.00    +0.085 C 
ATOM     12  C   UNL     1      -2.116 -11.302  12.366  0.00  0.00    +0.030 C 
ATOM     13  C   UNL     1      -1.551 -10.018  11.778  0.00  0.00    +0.017 C 
BRANCH   4   9
ATOM      1  O   UNL     1      -6.144  -9.217   8.049  0.00  0.00    -0.380 OA
ATOM      9  C   UNL     1      -5.011  -9.864  10.615  0.00  0.00    +0.062 C 
ATOM     14  C   UNL     1      -5.310  -8.424  10.190  0.00  0.00    +0.047 C 
ATOM     15  C   UNL     1      -4.798 -10.743   9.378  0.00  0.00    +0.047 C 
ATOM     16  C   UNL     1      -6.450  -8.396   9.177  0.00  0.00    +0.161 C 
ATOM     17  C   UNL     1      -5.966 -10.587   8.411  0.00  0.00    +0.161 C 
ENDBRANCH   4   9
ENDBRANCH  18  10
TORSDOF 6
ENDMDL
MODEL 10
REMARK VINA RESULT:      -5.7     27.469     29.551
REMARK  Name = 45783392
REMARK  7 active torsions:
REMARK  status: ('A' for Active; 'I' for Inactive)
REMARK    1  A    between atoms: O_3  and  C_26
REMARK    2  A    between atoms: O_3  and  C_27
REMARK    3  A    between atoms: N_4  and  C_9
REMARK    4  A    between atoms: N_7  and  C_24
REMARK    5  A    between atoms: C_10  and  C_18
REMARK    6  A    between atoms: C_19  and  C_20
REMARK    7  A    between atoms: C_24  and  C_26
REMARK                            x       y       z     vdW  Elec       q    Type
REMARK                         _______ _______ _______ _____ _____    ______ ____
ROOT
ATOM      2  O   UNL     1      -5.748 -12.112  16.031  0.00  0.00    -0.336 OA
ATOM      5  N   UNL     1      -5.059 -10.067  15.430  0.00  0.00    -0.190 NA
ATOM      6  N   UNL     1      -5.093 -12.267  14.804  0.00  0.00    -0.056 NA
ATOM     18  C   UNL     1      -5.684 -10.787  16.327  0.00  0.00    +0.245 A 
ATOM     19  C   UNL     1      -4.715 -11.018  14.514  0.00  0.00    +0.205 A 
ENDROOT
BRANCH  19  20
ATOM      7  N   UNL     1      -6.034 -10.580  12.037  0.00  0.00    -0.326 N 
ATOM      8  N   UNL     1      -3.970 -10.159  10.959  0.00  0.00    -0.240 NA
ATOM     20  C   UNL     1      -3.994 -10.688  13.319  0.00  0.00    +0.062 A 
ATOM     21  C   UNL     1      -4.622 -10.471  12.102  0.00  0.00    +0.130 A 
ATOM     22  C   UNL     1      -2.609 -10.577  13.366  0.00  0.00    +0.016 A 
ATOM     23  C   UNL     1      -1.903 -10.257  12.211  0.00  0.00    +0.020 A 
ATOM     25  C   UNL     1      -2.624 -10.059  11.044  0.00  0.00    +0.113 A 
ATOM     28  H   UNL     1      -6.468 -11.159  12.748  0.00  0.00    +0.148 HD
BRANCH   7  24
ATOM     24  C   UNL     1      -6.767 -10.374  10.831  0.00  0.00    +0.131 C 
BRANCH  24  26
ATOM     26  C   UNL     1      -7.896  -9.388  11.070  0.00  0.00    +0.178 C 
BRANCH  26   3
ATOM      3  O   UNL     1      -7.972  -8.481   9.978  0.00  0.00    -0.381 OA
ATOM     27  C   UNL     1      -6.776  -8.489   9.210  0.00  0.00    +0.194 C 
ENDBRANCH  26   3
ENDBRANCH  24  26
ENDBRANCH   7  24
ENDBRANCH  19  20
BRANCH  18  10
ATOM      4  N   UNL     1      -7.639 -10.994  17.853  0.00  0.00    -0.288 NA
ATOM     10  C   UNL     1      -6.329 -10.353  17.627  0.00  0.00    +0.146 C 
ATOM     11  C   UNL     1      -7.809 -11.088  19.303  0.00  0.00    +0.085 C 
ATOM     12  C   UNL     1      -5.490 -10.729  18.862  0.00  0.00    +0.030 C 
ATOM     13  C   UNL     1      -6.430 -11.529  19.752  0.00  0.00    +0.017 C 
BRANCH   4   9
ATOM      1  O   UNL     1     -10.866  -8.347  17.399  0.00  0.00    -0.380 OA
ATOM      9  C   UNL     1      -8.746 -10.286  17.214  0.00  0.00    +0.062 C 
ATOM     14  C   UNL     1     -10.056 -10.571  17.953  0.00  0.00    +0.047 C 
ATOM     15  C   UNL     1      -8.485  -8.777  17.172  0.00  0.00    +0.047 C 
ATOM     16  C   UNL     1     -11.189  -9.738  17.363  0.00  0.00    +0.161 C 
ATOM     17  C   UNL     1      -9.704  -8.043  16.626  0.00  0.00    +0.161 C 
ENDBRANCH   4   9
ENDBRANCH  18  10
TORSDOF 6
ENDMDL
