MODEL 1
REMARK VINA RESULT:      -7.9      0.000      0.000
REMARK  Name = 40777976
REMARK  8 active torsions:
REMARK  status: ('A' for Active; 'I' for Inactive)
REMARK    1  A    between atoms: O_2  and  C_9
REMARK    2  A    between atoms: O_3  and  C_10
REMARK    3  A    between atoms: N_6  and  C_15
REMARK    4  A    between atoms: N_7  and  C_21
REMARK    5  A    between atoms: C_8  and  C_15
REMARK    6  A    between atoms: C_11  and  C_18
REMARK    7  A    between atoms: C_12  and  C_19
REMARK    8  A    between atoms: C_18  and  C_20
REMARK                            x       y       z     vdW  Elec       q    Type
REMARK                         _______ _______ _______ _____ _____    ______ ____
ROOT
ATOM      1  O   UNL     1      10.946   9.220  20.543  0.00  0.00    -0.366 OA
ATOM      8  C   UNL     1      10.659   9.128  21.957  0.00  0.00    +0.167 C 
ATOM      9  C   UNL     1      10.848   7.663  22.339  0.00  0.00    +0.176 C 
ATOM     10  C   UNL     1      11.885   7.208  21.333  0.00  0.00    +0.175 C 
ATOM     11  C   UNL     1      11.445   7.952  20.084  0.00  0.00    +0.159 C 
ENDROOT
BRANCH   9   2
ATOM      2  O   UNL     1       9.612   6.985  22.119  0.00  0.00    -0.387 OA
ATOM     28  H   UNL     1       9.071   7.549  21.539  0.00  0.00    +0.210 HD
ENDBRANCH   9   2
BRANCH  10   3
ATOM      3  O   UNL     1      11.897   5.809  21.139  0.00  0.00    -0.387 OA
ATOM     29  H   UNL     1      12.641   5.604  20.547  0.00  0.00    +0.210 HD
ENDBRANCH  10   3
BRANCH   8  15
ATOM     15  C   UNL     1      11.613  10.062  22.688  0.00  0.00    +0.138 C 
BRANCH  15   6
ATOM      4  O   UNL     1      11.364  11.189  25.351  0.00  0.00    -0.276 OA
ATOM      6  N   UNL     1      10.960  11.282  23.059  0.00  0.00    -0.313 N 
ATOM     19  C   UNL     1      10.889  11.750  24.367  0.00  0.00    +0.216 C 
ATOM     27  H   UNL     1      10.550  11.838  22.314  0.00  0.00    +0.149 HD
BRANCH  19  12
ATOM     12  C   UNL     1      10.172  13.061  24.474  0.00  0.00    +0.075 C 
ATOM     13  C   UNL     1      10.587  13.988  23.326  0.00  0.00    +0.013 C 
ATOM     14  C   UNL     1      10.555  13.782  25.766  0.00  0.00    +0.013 C 
ATOM     16  C   UNL     1      11.105  15.262  23.986  0.00  0.00    +0.001 C 
ATOM     17  C   UNL     1      11.606  14.799  25.344  0.00  0.00    +0.001 C 
ENDBRANCH  19  12
ENDBRANCH  15   6
ENDBRANCH   8  15
BRANCH  11  18
ATOM     18  C   UNL     1      12.570   8.175  19.089  0.00  0.00    +0.130 C 
BRANCH  18  20
ATOM      5  O   UNL     1      14.246   9.152  20.514  0.00  0.00    -0.275 OA
ATOM      7  N   UNL     1      14.722   7.160  19.363  0.00  0.00    -0.285 N 
ATOM     20  C   UNL     1      13.938   8.243  19.751  0.00  0.00    +0.220 C 
ATOM     30  H   UNL     1      14.317   6.490  18.711  0.00  0.00    +0.155 HD
BRANCH   7  21
ATOM     21  C   UNL     1      16.048   6.869  19.760  0.00  0.00    +0.033 A 
ATOM     22  C   UNL     1      16.814   5.966  19.023  0.00  0.00    +0.023 A 
ATOM     23  C   UNL     1      16.588   7.484  20.890  0.00  0.00    +0.023 A 
ATOM     24  C   UNL     1      18.121   5.678  19.416  0.00  0.00    +0.002 A 
ATOM     25  C   UNL     1      17.895   7.196  21.282  0.00  0.00    +0.002 A 
ATOM     26  C   UNL     1      18.662   6.293  20.545  0.00  0.00    +0.000 A 
ENDBRANCH   7  21
ENDBRANCH  18  20
ENDBRANCH  11  18
TORSDOF 8
ENDMDL
MODEL 2
REMARK VINA RESULT:      -7.8      1.693      7.851
REMARK  Name = 40777976
REMARK  8 active torsions:
REMARK  status: ('A' for Active; 'I' for Inactive)
REMARK    1  A    between atoms: O_2  and  C_9
REMARK    2  A    between atoms: O_3  and  C_10
REMARK    3  A    between atoms: N_6  and  C_15
REMARK    4  A    between atoms: N_7  and  C_21
REMARK    5  A    between atoms: C_8  and  C_15
REMARK    6  A    between atoms: C_11  and  C_18
REMARK    7  A    between atoms: C_12  and  C_19
REMARK    8  A    between atoms: C_18  and  C_20
REMARK                            x       y       z     vdW  Elec       q    Type
REMARK                         _______ _______ _______ _____ _____    ______ ____
ROOT
ATOM      1  O   UNL     1      13.594   6.626  19.896  0.00  0.00    -0.366 OA
ATOM      8  C   UNL     1      13.866   7.198  18.596  0.00  0.00    +0.167 C 
ATOM      9  C   UNL     1      12.591   7.916  18.168  0.00  0.00    +0.176 C 
ATOM     10  C   UNL     1      11.984   8.301  19.501  0.00  0.00    +0.175 C 
ATOM     11  C   UNL     1      12.306   7.082  20.346  0.00  0.00    +0.159 C 
ENDROOT
BRANCH   9   2
ATOM      2  O   UNL     1      11.756   6.973  17.497  0.00  0.00    -0.387 OA
ATOM     28  H   UNL     1      11.089   7.478  16.999  0.00  0.00    +0.210 HD
ENDBRANCH   9   2
BRANCH  10   3
ATOM      3  O   UNL     1      10.595   8.546  19.432  0.00  0.00    -0.387 OA
ATOM     29  H   UNL     1      10.262   8.109  18.630  0.00  0.00    +0.210 HD
ENDBRANCH  10   3
BRANCH   8  15
ATOM     15  C   UNL     1      15.058   8.134  18.739  0.00  0.00    +0.138 C 
BRANCH  15   6
ATOM      4  O   UNL     1      16.967   5.950  18.637  0.00  0.00    -0.276 OA
ATOM      6  N   UNL     1      15.937   7.698  19.782  0.00  0.00    -0.313 N 
ATOM     19  C   UNL     1      16.825   6.636  19.647  0.00  0.00    +0.216 C 
ATOM     27  H   UNL     1      15.917   8.214  20.657  0.00  0.00    +0.149 HD
BRANCH  19  12
ATOM     12  C   UNL     1      17.644   6.406  20.880  0.00  0.00    +0.075 C 
ATOM     13  C   UNL     1      17.904   7.733  21.601  0.00  0.00    +0.013 C 
ATOM     14  C   UNL     1      19.017   5.840  20.518  0.00  0.00    +0.013 C 
ATOM     16  C   UNL     1      19.419   7.850  21.726  0.00  0.00    +0.001 C 
ATOM     17  C   UNL     1      19.951   7.041  20.556  0.00  0.00    +0.001 C 
ENDBRANCH  19  12
ENDBRANCH  15   6
ENDBRANCH   8  15
BRANCH  11  18
ATOM     18  C   UNL     1      12.361   7.378  21.835  0.00  0.00    +0.130 C 
BRANCH  18  20
ATOM      5  O   UNL     1      10.173   8.284  22.265  0.00  0.00    -0.275 OA
ATOM      7  N   UNL     1      12.070   9.627  22.605  0.00  0.00    -0.285 N 
ATOM     20  C   UNL     1      11.386   8.467  22.255  0.00  0.00    +0.220 C 
ATOM     30  H   UNL     1      13.086   9.618  22.535  0.00  0.00    +0.155 HD
BRANCH   7  21
ATOM     21  C   UNL     1      11.520  10.854  23.046  0.00  0.00    +0.033 A 
ATOM     22  C   UNL     1      11.267  11.875  22.130  0.00  0.00    +0.023 A 
ATOM     23  C   UNL     1      11.230  11.041  24.398  0.00  0.00    +0.023 A 
ATOM     24  C   UNL     1      10.726  13.083  22.565  0.00  0.00    +0.002 A 
ATOM     25  C   UNL     1      10.689  12.250  24.833  0.00  0.00    +0.002 A 
ATOM     26  C   UNL     1      10.436  13.272  23.917  0.00  0.00    +0.000 A 
ENDBRANCH   7  21
ENDBRANCH  18  20
ENDBRANCH  11  18
TORSDOF 8
ENDMDL
MODEL 3
REMARK VINA RESULT:      -7.8      3.057      6.143
REMARK  Name = 40777976
REMARK  8 active torsions:
REMARK  status: ('A' for Active; 'I' for Inactive)
REMARK    1  A    between atoms: O_2  and  C_9
REMARK    2  A    between atoms: O_3  and  C_10
REMARK    3  A    between atoms: N_6  and  C_15
REMARK    4  A    between atoms: N_7  and  C_21
REMARK    5  A    between atoms: C_8  and  C_15
REMARK    6  A    between atoms: C_11  and  C_18
REMARK    7  A    between atoms: C_12  and  C_19
REMARK    8  A    between atoms: C_18  and  C_20
REMARK                            x       y       z     vdW  Elec       q    Type
REMARK                         _______ _______ _______ _____ _____    ______ ____
ROOT
ATOM      1  O   UNL     1      11.735   9.059  20.197  0.00  0.00    -0.366 OA
ATOM      8  C   UNL     1      11.605   9.173  21.633  0.00  0.00    +0.167 C 
ATOM      9  C   UNL     1      11.184   7.797  22.136  0.00  0.00    +0.176 C 
ATOM     10  C   UNL     1      11.793   6.881  21.095  0.00  0.00    +0.175 C 
ATOM     11  C   UNL     1      11.576   7.680  19.822  0.00  0.00    +0.159 C 
ENDROOT
BRANCH   9   2
ATOM      2  O   UNL     1       9.759   7.725  22.087  0.00  0.00    -0.387 OA
ATOM     28  H   UNL     1       9.492   6.926  22.574  0.00  0.00    +0.210 HD
ENDBRANCH   9   2
BRANCH  10   3
ATOM      3  O   UNL     1      11.174   5.613  21.036  0.00  0.00    -0.387 OA
ATOM     29  H   UNL     1      11.861   4.964  20.811  0.00  0.00    +0.210 HD
ENDBRANCH  10   3
BRANCH   8  15
ATOM     15  C   UNL     1      12.949   9.624  22.188  0.00  0.00    +0.138 C 
BRANCH  15   6
ATOM      4  O   UNL     1      15.352   9.499  20.565  0.00  0.00    -0.276 OA
ATOM      6  N   UNL     1      13.912   8.564  22.139  0.00  0.00    -0.313 N 
ATOM     19  C   UNL     1      15.041   8.587  21.327  0.00  0.00    +0.216 C 
ATOM     27  H   UNL     1      13.761   7.767  22.751  0.00  0.00    +0.149 HD
BRANCH  19  12
ATOM     12  C   UNL     1      15.892   7.365  21.487  0.00  0.00    +0.075 C 
ATOM     13  C   UNL     1      17.345   7.675  21.107  0.00  0.00    +0.013 C 
ATOM     14  C   UNL     1      15.430   6.258  20.539  0.00  0.00    +0.013 C 
ATOM     16  C   UNL     1      17.715   6.671  20.021  0.00  0.00    +0.001 C 
ATOM     17  C   UNL     1      16.389   6.334  19.360  0.00  0.00    +0.001 C 
ENDBRANCH  19  12
ENDBRANCH  15   6
ENDBRANCH   8  15
BRANCH  11  18
ATOM     18  C   UNL     1      12.561   7.334  18.719  0.00  0.00    +0.130 C 
BRANCH  18  20
ATOM      5  O   UNL     1      11.888   8.484  16.714  0.00  0.00    -0.275 OA
ATOM      7  N   UNL     1      13.728   9.276  17.941  0.00  0.00    -0.285 N 
ATOM     20  C   UNL     1      12.665   8.422  17.660  0.00  0.00    +0.220 C 
ATOM     30  H   UNL     1      14.287   9.081  18.770  0.00  0.00    +0.155 HD
BRANCH   7  21
ATOM     21  C   UNL     1      14.148  10.404  17.197  0.00  0.00    +0.033 A 
ATOM     22  C   UNL     1      14.000  11.685  17.729  0.00  0.00    +0.023 A 
ATOM     23  C   UNL     1      14.709  10.234  15.931  0.00  0.00    +0.023 A 
ATOM     24  C   UNL     1      14.413  12.796  16.996  0.00  0.00    +0.002 A 
ATOM     25  C   UNL     1      15.122  11.346  15.198  0.00  0.00    +0.002 A 
ATOM     26  C   UNL     1      14.974  12.628  15.729  0.00  0.00    +0.000 A 
ENDBRANCH   7  21
ENDBRANCH  18  20
ENDBRANCH  11  18
TORSDOF 8
ENDMDL
MODEL 4
REMARK VINA RESULT:      -7.7      3.286      5.344
REMARK  Name = 40777976
REMARK  8 active torsions:
REMARK  status: ('A' for Active; 'I' for Inactive)
REMARK    1  A    between atoms: O_2  and  C_9
REMARK    2  A    between atoms: O_3  and  C_10
REMARK    3  A    between atoms: N_6  and  C_15
REMARK    4  A    between atoms: N_7  and  C_21
REMARK    5  A    between atoms: C_8  and  C_15
REMARK    6  A    between atoms: C_11  and  C_18
REMARK    7  A    between atoms: C_12  and  C_19
REMARK    8  A    between atoms: C_18  and  C_20
REMARK                            x       y       z     vdW  Elec       q    Type
REMARK                         _______ _______ _______ _____ _____    ______ ____
ROOT
ATOM      1  O   UNL     1      12.958   7.349  21.654  0.00  0.00    -0.366 OA
ATOM      8  C   UNL     1      11.908   7.098  20.693  0.00  0.00    +0.167 C 
ATOM      9  C   UNL     1      10.977   8.305  20.750  0.00  0.00    +0.176 C 
ATOM     10  C   UNL     1      11.920   9.410  21.176  0.00  0.00    +0.175 C 
ATOM     11  C   UNL     1      12.812   8.685  22.168  0.00  0.00    +0.159 C 
ENDROOT
BRANCH   9   2
ATOM      2  O   UNL     1      10.003   8.065  21.766  0.00  0.00    -0.387 OA
ATOM     28  H   UNL     1       9.212   8.583  21.537  0.00  0.00    +0.210 HD
ENDBRANCH   9   2
BRANCH  10   3
ATOM      3  O   UNL     1      11.261  10.512  21.764  0.00  0.00    -0.387 OA
ATOM     29  H   UNL     1      11.181  11.201  21.083  0.00  0.00    +0.210 HD
ENDBRANCH  10   3
BRANCH   8  15
ATOM     15  C   UNL     1      12.559   6.912  19.329  0.00  0.00    +0.138 C 
BRANCH  15   6
ATOM      4  O   UNL     1      13.929   7.464  16.831  0.00  0.00    -0.276 OA
ATOM      6  N   UNL     1      12.533   8.129  18.573  0.00  0.00    -0.313 N 
ATOM     19  C   UNL     1      13.224   8.307  17.379  0.00  0.00    +0.216 C 
ATOM     27  H   UNL     1      11.958   8.888  18.928  0.00  0.00    +0.149 HD
BRANCH  19  12
ATOM     12  C   UNL     1      13.006   9.663  16.783  0.00  0.00    +0.075 C 
ATOM     13  C   UNL     1      13.863   9.835  15.523  0.00  0.00    +0.013 C 
ATOM     14  C   UNL     1      13.449  10.758  17.754  0.00  0.00    +0.013 C 
ATOM     16  C   UNL     1      14.706  11.084  15.761  0.00  0.00    +0.001 C 
ATOM     17  C   UNL     1      14.835  11.163  17.272  0.00  0.00    +0.001 C 
ENDBRANCH  19  12
ENDBRANCH  15   6
ENDBRANCH   8  15
BRANCH  11  18
ATOM     18  C   UNL     1      14.181   9.323  22.327  0.00  0.00    +0.130 C 
BRANCH  18  20
ATOM      5  O   UNL     1      15.314   9.486  20.210  0.00  0.00    -0.275 OA
ATOM      7  N   UNL     1      15.833   7.719  21.669  0.00  0.00    -0.285 N 
ATOM     20  C   UNL     1      15.169   8.872  21.262  0.00  0.00    +0.220 C 
ATOM     30  H   UNL     1      15.590   7.327  22.576  0.00  0.00    +0.155 HD
BRANCH   7  21
ATOM     21  C   UNL     1      16.822   6.998  20.959  0.00  0.00    +0.033 A 
ATOM     22  C   UNL     1      16.495   6.359  19.762  0.00  0.00    +0.023 A 
ATOM     23  C   UNL     1      18.123   6.924  21.456  0.00  0.00    +0.023 A 
ATOM     24  C   UNL     1      17.469   5.647  19.063  0.00  0.00    +0.002 A 
ATOM     25  C   UNL     1      19.098   6.212  20.757  0.00  0.00    +0.002 A 
ATOM     26  C   UNL     1      18.771   5.574  19.560  0.00  0.00    +0.000 A 
ENDBRANCH   7  21
ENDBRANCH  18  20
ENDBRANCH  11  18
TORSDOF 8
ENDMDL
MODEL 5
REMARK VINA RESULT:      -7.5      2.559      3.405
REMARK  Name = 40777976
REMARK  8 active torsions:
REMARK  status: ('A' for Active; 'I' for Inactive)
REMARK    1  A    between atoms: O_2  and  C_9
REMARK    2  A    between atoms: O_3  and  C_10
REMARK    3  A    between atoms: N_6  and  C_15
REMARK    4  A    between atoms: N_7  and  C_21
REMARK    5  A    between atoms: C_8  and  C_15
REMARK    6  A    between atoms: C_11  and  C_18
REMARK    7  A    between atoms: C_12  and  C_19
REMARK    8  A    between atoms: C_18  and  C_20
REMARK                            x       y       z     vdW  Elec       q    Type
REMARK                         _______ _______ _______ _____ _____    ______ ____
ROOT
ATOM      1  O   UNL     1      11.317   8.841  19.932  0.00  0.00    -0.366 OA
ATOM      8  C   UNL     1      11.130   9.182  21.325  0.00  0.00    +0.167 C 
ATOM      9  C   UNL     1      11.141   7.865  22.094  0.00  0.00    +0.176 C 
ATOM     10  C   UNL     1      12.022   6.997  21.220  0.00  0.00    +0.175 C 
ATOM     11  C   UNL     1      11.596   7.434  19.829  0.00  0.00    +0.159 C 
ENDROOT
BRANCH   9   2
ATOM      2  O   UNL     1       9.808   7.354  22.116  0.00  0.00    -0.387 OA
ATOM     28  H   UNL     1       9.283   7.937  22.692  0.00  0.00    +0.210 HD
ENDBRANCH   9   2
BRANCH  10   3
ATOM      3  O   UNL     1      11.823   5.614  21.425  0.00  0.00    -0.387 OA
ATOM     29  H   UNL     1      12.696   5.187  21.397  0.00  0.00    +0.210 HD
ENDBRANCH  10   3
BRANCH   8  15
ATOM     15  C   UNL     1      12.260  10.118  21.731  0.00  0.00    +0.138 C 
BRANCH  15   6
ATOM      4  O   UNL     1      11.963  12.980  21.348  0.00  0.00    -0.276 OA
ATOM      6  N   UNL     1      12.711  10.898  20.618  0.00  0.00    -0.313 N 
ATOM     19  C   UNL     1      12.525  12.273  20.516  0.00  0.00    +0.216 C 
ATOM     27  H   UNL     1      13.212  10.413  19.879  0.00  0.00    +0.149 HD
BRANCH  19  12
ATOM     12  C   UNL     1      13.115  12.844  19.263  0.00  0.00    +0.075 C 
ATOM     13  C   UNL     1      13.554  11.718  18.320  0.00  0.00    +0.013 C 
ATOM     14  C   UNL     1      14.375  13.652  19.579  0.00  0.00    +0.013 C 
ATOM     16  C   UNL     1      15.032  11.964  18.037  0.00  0.00    +0.001 C 
ATOM     17  C   UNL     1      15.527  12.709  19.265  0.00  0.00    +0.001 C 
ENDBRANCH  19  12
ENDBRANCH  15   6
ENDBRANCH   8  15
BRANCH  11  18
ATOM     18  C   UNL     1      12.661   7.200  18.772  0.00  0.00    +0.130 C 
BRANCH  18  20
ATOM      5  O   UNL     1      14.398   8.723  19.451  0.00  0.00    -0.275 OA
ATOM      7  N   UNL     1      14.828   6.413  19.421  0.00  0.00    -0.285 N 
ATOM     20  C   UNL     1      14.058   7.561  19.254  0.00  0.00    +0.220 C 
ATOM     30  H   UNL     1      14.396   5.517  19.206  0.00  0.00    +0.155 HD
BRANCH   7  21
ATOM     21  C   UNL     1      16.173   6.332  19.853  0.00  0.00    +0.033 A 
ATOM     22  C   UNL     1      17.145   5.793  19.010  0.00  0.00    +0.023 A 
ATOM     23  C   UNL     1      16.527   6.791  21.122  0.00  0.00    +0.023 A 
ATOM     24  C   UNL     1      18.470   5.712  19.436  0.00  0.00    +0.002 A 
ATOM     25  C   UNL     1      17.852   6.710  21.548  0.00  0.00    +0.002 A 
ATOM     26  C   UNL     1      18.825   6.170  20.706  0.00  0.00    +0.000 A 
ENDBRANCH   7  21
ENDBRANCH  18  20
ENDBRANCH  11  18
TORSDOF 8
ENDMDL
MODEL 6
REMARK VINA RESULT:      -7.4      2.376      3.681
REMARK  Name = 40777976
REMARK  8 active torsions:
REMARK  status: ('A' for Active; 'I' for Inactive)
REMARK    1  A    between atoms: O_2  and  C_9
REMARK    2  A    between atoms: O_3  and  C_10
REMARK    3  A    between atoms: N_6  and  C_15
REMARK    4  A    between atoms: N_7  and  C_21
REMARK    5  A    between atoms: C_8  and  C_15
REMARK    6  A    between atoms: C_11  and  C_18
REMARK    7  A    between atoms: C_12  and  C_19
REMARK    8  A    between atoms: C_18  and  C_20
REMARK                            x       y       z     vdW  Elec       q    Type
REMARK                         _______ _______ _______ _____ _____    ______ ____
ROOT
ATOM      1  O   UNL     1      11.279   8.920  20.391  0.00  0.00    -0.366 OA
ATOM      8  C   UNL     1      10.767   9.093  21.732  0.00  0.00    +0.167 C 
ATOM      9  C   UNL     1      10.736   7.704  22.362  0.00  0.00    +0.176 C 
ATOM     10  C   UNL     1      11.861   7.002  21.631  0.00  0.00    +0.175 C 
ATOM     11  C   UNL     1      11.704   7.556  20.225  0.00  0.00    +0.159 C 
ENDROOT
BRANCH   9   2
ATOM      2  O   UNL     1       9.483   7.101  22.040  0.00  0.00    -0.387 OA
ATOM     28  H   UNL     1       8.975   7.747  21.519  0.00  0.00    +0.210 HD
ENDBRANCH   9   2
BRANCH  10   3
ATOM      3  O   UNL     1      11.752   5.594  21.659  0.00  0.00    -0.387 OA
ATOM     29  H   UNL     1      10.895   5.360  21.264  0.00  0.00    +0.210 HD
ENDBRANCH  10   3
BRANCH   8  15
ATOM     15  C   UNL     1      11.692  10.057  22.463  0.00  0.00    +0.138 C 
BRANCH  15   6
ATOM      4  O   UNL     1      11.390  11.051  25.173  0.00  0.00    -0.276 OA
ATOM      6  N   UNL     1      10.986  11.230  22.886  0.00  0.00    -0.313 N 
ATOM     19  C   UNL     1      10.892  11.635  24.214  0.00  0.00    +0.216 C 
ATOM     27  H   UNL     1      10.554  11.801  22.165  0.00  0.00    +0.149 HD
BRANCH  19  12
ATOM     12  C   UNL     1      10.119  12.907  24.376  0.00  0.00    +0.075 C 
ATOM     13  C   UNL     1      10.393  13.850  23.199  0.00  0.00    +0.013 C 
ATOM     14  C   UNL     1      10.566  13.653  25.634  0.00  0.00    +0.013 C 
ATOM     16  C   UNL     1      10.895  15.151  23.816  0.00  0.00    +0.001 C 
ATOM     17  C   UNL     1      11.525  14.721  25.129  0.00  0.00    +0.001 C 
ENDBRANCH  19  12
ENDBRANCH  15   6
ENDBRANCH   8  15
BRANCH  11  18
ATOM     18  C   UNL     1      12.988   7.515  19.415  0.00  0.00    +0.130 C 
BRANCH  18  20
ATOM      5  O   UNL     1      14.650   9.115  20.102  0.00  0.00    -0.275 OA
ATOM      7  N   UNL     1      13.118   9.688  18.416  0.00  0.00    -0.285 N 
ATOM     20  C   UNL     1      13.699   8.859  19.371  0.00  0.00    +0.220 C 
ATOM     30  H   UNL     1      12.324   9.325  17.893  0.00  0.00    +0.155 HD
BRANCH   7  21
ATOM     21  C   UNL     1      13.493  11.010  18.078  0.00  0.00    +0.033 A 
ATOM     22  C   UNL     1      13.274  12.050  18.982  0.00  0.00    +0.023 A 
ATOM     23  C   UNL     1      14.082  11.274  16.841  0.00  0.00    +0.023 A 
ATOM     24  C   UNL     1      13.643  13.352  18.649  0.00  0.00    +0.002 A 
ATOM     25  C   UNL     1      14.451  12.576  16.508  0.00  0.00    +0.002 A 
ATOM     26  C   UNL     1      14.232  13.617  17.412  0.00  0.00    +0.000 A 
ENDBRANCH   7  21
ENDBRANCH  18  20
ENDBRANCH  11  18
TORSDOF 8
ENDMDL
MODEL 7
REMARK VINA RESULT:      -7.3      1.516      2.107
REMARK  Name = 40777976
REMARK  8 active torsions:
REMARK  status: ('A' for Active; 'I' for Inactive)
REMARK    1  A    between atoms: O_2  and  C_9
REMARK    2  A    between atoms: O_3  and  C_10
REMARK    3  A    between atoms: N_6  and  C_15
REMARK    4  A    between atoms: N_7  and  C_21
REMARK    5  A    between atoms: C_8  and  C_15
REMARK    6  A    between atoms: C_11  and  C_18
REMARK    7  A    between atoms: C_12  and  C_19
REMARK    8  A    between atoms: C_18  and  C_20
REMARK                            x       y       z     vdW  Elec       q    Type
REMARK                         _______ _______ _______ _____ _____    ______ ____
ROOT
ATOM      1  O   UNL     1      11.132   8.508  20.362  0.00  0.00    -0.366 OA
ATOM      8  C   UNL     1      10.662   7.732  21.488  0.00  0.00    +0.167 C 
ATOM      9  C   UNL     1      11.598   6.534  21.605  0.00  0.00    +0.176 C 
ATOM     10  C   UNL     1      12.887   7.084  21.032  0.00  0.00    +0.175 C 
ATOM     11  C   UNL     1      12.371   7.947  19.894  0.00  0.00    +0.159 C 
ENDROOT
BRANCH   9   2
ATOM      2  O   UNL     1      11.090   5.493  20.770  0.00  0.00    -0.387 OA
ATOM     28  H   UNL     1      11.767   5.303  20.098  0.00  0.00    +0.210 HD
ENDBRANCH   9   2
BRANCH  10   3
ATOM      3  O   UNL     1      13.770   6.080  20.577  0.00  0.00    -0.387 OA
ATOM     29  H   UNL     1      14.657   6.474  20.525  0.00  0.00    +0.210 HD
ENDBRANCH  10   3
BRANCH   8  15
ATOM     15  C   UNL     1      10.690   8.632  22.717  0.00  0.00    +0.138 C 
BRANCH  15   6
ATOM      4  O   UNL     1      10.597  11.044  24.328  0.00  0.00    -0.276 OA
ATOM      6  N   UNL     1      11.276   9.903  22.414  0.00  0.00    -0.313 N 
ATOM     19  C   UNL     1      11.182  11.012  23.249  0.00  0.00    +0.216 C 
ATOM     27  H   UNL     1      11.805   9.981  21.550  0.00  0.00    +0.149 HD
BRANCH  19  12
ATOM     12  C   UNL     1      11.904  12.207  22.706  0.00  0.00    +0.075 C 
ATOM     13  C   UNL     1      11.884  13.350  23.727  0.00  0.00    +0.013 C 
ATOM     14  C   UNL     1      11.204  12.739  21.455  0.00  0.00    +0.013 C 
ATOM     16  C   UNL     1      11.265  14.542  23.006  0.00  0.00    +0.001 C 
ATOM     17  C   UNL     1      10.373  13.914  21.949  0.00  0.00    +0.001 C 
ENDBRANCH  19  12
ENDBRANCH  15   6
ENDBRANCH   8  15
BRANCH  11  18
ATOM     18  C   UNL     1      13.323   9.065  19.506  0.00  0.00    +0.130 C 
BRANCH  18  20
ATOM      5  O   UNL     1      14.334   9.897  21.526  0.00  0.00    -0.275 OA
ATOM      7  N   UNL     1      15.598   8.565  20.062  0.00  0.00    -0.285 N 
ATOM     20  C   UNL     1      14.462   9.240  20.498  0.00  0.00    +0.220 C 
ATOM     30  H   UNL     1      15.543   8.067  19.175  0.00  0.00    +0.155 HD
BRANCH   7  21
ATOM     21  C   UNL     1      16.857   8.488  20.704  0.00  0.00    +0.033 A 
ATOM     22  C   UNL     1      17.406   7.244  21.016  0.00  0.00    +0.023 A 
ATOM     23  C   UNL     1      17.548   9.656  21.027  0.00  0.00    +0.023 A 
ATOM     24  C   UNL     1      18.645   7.168  21.650  0.00  0.00    +0.002 A 
ATOM     25  C   UNL     1      18.787   9.581  21.661  0.00  0.00    +0.002 A 
ATOM     26  C   UNL     1      19.337   8.336  21.973  0.00  0.00    +0.000 A 
ENDBRANCH   7  21
ENDBRANCH  18  20
ENDBRANCH  11  18
TORSDOF 8
ENDMDL
MODEL 8
REMARK VINA RESULT:      -7.2      2.215      5.449
REMARK  Name = 40777976
REMARK  8 active torsions:
REMARK  status: ('A' for Active; 'I' for Inactive)
REMARK    1  A    between atoms: O_2  and  C_9
REMARK    2  A    between atoms: O_3  and  C_10
REMARK    3  A    between atoms: N_6  and  C_15
REMARK    4  A    between atoms: N_7  and  C_21
REMARK    5  A    between atoms: C_8  and  C_15
REMARK    6  A    between atoms: C_11  and  C_18
REMARK    7  A    between atoms: C_12  and  C_19
REMARK    8  A    between atoms: C_18  and  C_20
REMARK                            x       y       z     vdW  Elec       q    Type
REMARK                         _______ _______ _______ _____ _____    ______ ____
ROOT
ATOM      1  O   UNL     1      13.322  10.203  22.816  0.00  0.00    -0.366 OA
ATOM      8  C   UNL     1      11.916  10.523  22.914  0.00  0.00    +0.167 C 
ATOM      9  C   UNL     1      11.794  11.598  23.989  0.00  0.00    +0.176 C 
ATOM     10  C   UNL     1      13.138  12.289  23.896  0.00  0.00    +0.175 C 
ATOM     11  C   UNL     1      14.068  11.116  23.640  0.00  0.00    +0.159 C 
ENDROOT
BRANCH   9   2
ATOM      2  O   UNL     1      11.658  10.947  25.252  0.00  0.00    -0.387 OA
ATOM     28  H   UNL     1      12.522  10.992  25.696  0.00  0.00    +0.210 HD
ENDBRANCH   9   2
BRANCH  10   3
ATOM      3  O   UNL     1      13.486  12.994  25.070  0.00  0.00    -0.387 OA
ATOM     29  H   UNL     1      14.373  12.697  25.335  0.00  0.00    +0.210 HD
ENDBRANCH  10   3
BRANCH   8  15
ATOM     15  C   UNL     1      11.449  10.996  21.543  0.00  0.00    +0.138 C 
BRANCH  15   6
ATOM      4  O   UNL     1      10.689   8.728  19.900  0.00  0.00    -0.276 OA
ATOM      6  N   UNL     1      12.214  10.385  20.497  0.00  0.00    -0.313 N 
ATOM     19  C   UNL     1      11.770   9.295  19.756  0.00  0.00    +0.216 C 
ATOM     27  H   UNL     1      13.119  10.793  20.280  0.00  0.00    +0.149 HD
BRANCH  19  12
ATOM     12  C   UNL     1      12.753   8.869  18.709  0.00  0.00    +0.075 C 
ATOM     13  C   UNL     1      13.374  10.096  18.032  0.00  0.00    +0.013 C 
ATOM     14  C   UNL     1      12.054   8.078  17.603  0.00  0.00    +0.013 C 
ATOM     16  C   UNL     1      13.105   9.930  16.541  0.00  0.00    +0.001 C 
ATOM     17  C   UNL     1      11.843   9.087  16.483  0.00  0.00    +0.001 C 
ENDBRANCH  19  12
ENDBRANCH  15   6
ENDBRANCH   8  15
BRANCH  11  18
ATOM     18  C   UNL     1      15.353  11.509  22.933  0.00  0.00    +0.130 C 
BRANCH  18  20
ATOM      5  O   UNL     1      15.540  11.060  20.575  0.00  0.00    -0.275 OA
ATOM      7  N   UNL     1      16.040   9.362  22.121  0.00  0.00    -0.285 N 
ATOM     20  C   UNL     1      15.649  10.637  21.722  0.00  0.00    +0.220 C 
ATOM     30  H   UNL     1      16.073   9.167  23.120  0.00  0.00    +0.155 HD
BRANCH   7  21
ATOM     21  C   UNL     1      16.397   8.271  21.294  0.00  0.00    +0.033 A 
ATOM     22  C   UNL     1      15.409   7.562  20.611  0.00  0.00    +0.023 A 
ATOM     23  C   UNL     1      17.736   7.904  21.164  0.00  0.00    +0.023 A 
ATOM     24  C   UNL     1      15.760   6.486  19.796  0.00  0.00    +0.002 A 
ATOM     25  C   UNL     1      18.087   6.828  20.350  0.00  0.00    +0.002 A 
ATOM     26  C   UNL     1      17.099   6.118  19.665  0.00  0.00    +0.000 A 
ENDBRANCH   7  21
ENDBRANCH  18  20
ENDBRANCH  11  18
TORSDOF 8
ENDMDL
MODEL 9
REMARK VINA RESULT:      -7.1     19.656     23.238
REMARK  Name = 40777976
REMARK  8 active torsions:
REMARK  status: ('A' for Active; 'I' for Inactive)
REMARK    1  A    between atoms: O_2  and  C_9
REMARK    2  A    between atoms: O_3  and  C_10
REMARK    3  A    between atoms: N_6  and  C_15
REMARK    4  A    between atoms: N_7  and  C_21
REMARK    5  A    between atoms: C_8  and  C_15
REMARK    6  A    between atoms: C_11  and  C_18
REMARK    7  A    between atoms: C_12  and  C_19
REMARK    8  A    between atoms: C_18  and  C_20
REMARK                            x       y       z     vdW  Elec       q    Type
REMARK                         _______ _______ _______ _____ _____    ______ ____
ROOT
ATOM      1  O   UNL     1      13.222   4.914   0.217  0.00  0.00    -0.366 OA
ATOM      8  C   UNL     1      14.420   5.056  -0.580  0.00  0.00    +0.167 C 
ATOM      9  C   UNL     1      15.572   4.551   0.282  0.00  0.00    +0.176 C 
ATOM     10  C   UNL     1      14.880   3.534   1.166  0.00  0.00    +0.175 C 
ATOM     11  C   UNL     1      13.549   4.216   1.431  0.00  0.00    +0.159 C 
ENDROOT
BRANCH   9   2
ATOM      2  O   UNL     1      16.052   5.644   1.065  0.00  0.00    -0.387 OA
ATOM     28  H   UNL     1      16.961   5.429   1.335  0.00  0.00    +0.210 HD
ENDBRANCH   9   2
BRANCH  10   3
ATOM      3  O   UNL     1      15.583   3.263   2.361  0.00  0.00    -0.387 OA
ATOM     29  H   UNL     1      15.152   2.503   2.786  0.00  0.00    +0.210 HD
ENDBRANCH  10   3
BRANCH   8  15
ATOM     15  C   UNL     1      14.230   4.245  -1.855  0.00  0.00    +0.138 C 
BRANCH  15   6
ATOM      4  O   UNL     1      12.299   2.079  -1.833  0.00  0.00    -0.276 OA
ATOM      6  N   UNL     1      12.868   4.289  -2.298  0.00  0.00    -0.313 N 
ATOM     19  C   UNL     1      12.008   3.197  -2.251  0.00  0.00    +0.216 C 
ATOM     27  H   UNL     1      12.517   5.178  -2.644  0.00  0.00    +0.149 HD
BRANCH  19  12
ATOM     12  C   UNL     1      10.635   3.521  -2.752  0.00  0.00    +0.075 C 
ATOM     13  C   UNL     1       9.998   2.285  -3.398  0.00  0.00    +0.013 C 
ATOM     14  C   UNL     1      10.697   4.590  -3.844  0.00  0.00    +0.013 C 
ATOM     16  C   UNL     1       9.618   2.704  -4.814  0.00  0.00    +0.001 C 
ATOM     17  C   UNL     1      10.600   3.813  -5.149  0.00  0.00    +0.001 C 
ENDBRANCH  19  12
ENDBRANCH  15   6
ENDBRANCH   8  15
BRANCH  11  18
ATOM     18  C   UNL     1      12.434   3.246   1.779  0.00  0.00    +0.130 C 
BRANCH  18  20
ATOM      5  O   UNL     1      10.146   3.846   1.326  0.00  0.00    -0.275 OA
ATOM      7  N   UNL     1      11.199   4.669   3.258  0.00  0.00    -0.285 N 
ATOM     20  C   UNL     1      11.115   3.946   2.071  0.00  0.00    +0.220 C 
ATOM     30  H   UNL     1      12.084   4.655   3.760  0.00  0.00    +0.155 HD
BRANCH   7  21
ATOM     21  C   UNL     1      10.187   5.450   3.865  0.00  0.00    +0.033 A 
ATOM     22  C   UNL     1       9.765   6.635   3.262  0.00  0.00    +0.023 A 
ATOM     23  C   UNL     1       9.613   5.036   5.067  0.00  0.00    +0.023 A 
ATOM     24  C   UNL     1       8.769   7.405   3.861  0.00  0.00    +0.002 A 
ATOM     25  C   UNL     1       8.617   5.806   5.666  0.00  0.00    +0.002 A 
ATOM     26  C   UNL     1       8.194   6.991   5.063  0.00  0.00    +0.000 A 
ENDBRANCH   7  21
ENDBRANCH  18  20
ENDBRANCH  11  18
TORSDOF 8
ENDMDL
MODEL 10
REMARK VINA RESULT:      -7.1     15.651     18.189
REMARK  Name = 40777976
REMARK  8 active torsions:
REMARK  status: ('A' for Active; 'I' for Inactive)
REMARK    1  A    between atoms: O_2  and  C_9
REMARK    2  A    between atoms: O_3  and  C_10
REMARK    3  A    between atoms: N_6  and  C_15
REMARK    4  A    between atoms: N_7  and  C_21
REMARK    5  A    between atoms: C_8  and  C_15
REMARK    6  A    between atoms: C_11  and  C_18
REMARK    7  A    between atoms: C_12  and  C_19
REMARK    8  A    between atoms: C_18  and  C_20
REMARK                            x       y       z     vdW  Elec       q    Type
REMARK                         _______ _______ _______ _____ _____    ______ ____
ROOT
ATOM      1  O   UNL     1       9.915   6.243   5.687  0.00  0.00    -0.366 OA
ATOM      8  C   UNL     1       9.239   5.964   6.934  0.00  0.00    +0.167 C 
ATOM      9  C   UNL     1      10.325   5.581   7.934  0.00  0.00    +0.176 C 
ATOM     10  C   UNL     1      11.521   6.347   7.409  0.00  0.00    +0.175 C 
ATOM     11  C   UNL     1      11.336   6.210   5.908  0.00  0.00    +0.159 C 
ENDROOT
BRANCH   9   2
ATOM      2  O   UNL     1      10.551   4.176   7.826  0.00  0.00    -0.387 OA
ATOM     28  H   UNL     1      11.513   4.039   7.782  0.00  0.00    +0.210 HD
ENDBRANCH   9   2
BRANCH  10   3
ATOM      3  O   UNL     1      12.757   5.818   7.840  0.00  0.00    -0.387 OA
ATOM     29  H   UNL     1      13.445   6.167   7.248  0.00  0.00    +0.210 HD
ENDBRANCH  10   3
BRANCH   8  15
ATOM     15  C   UNL     1       8.471   7.215   7.339  0.00  0.00    +0.138 C 
BRANCH  15   6
ATOM      4  O   UNL     1       9.548   9.795   6.560  0.00  0.00    -0.276 OA
ATOM      6  N   UNL     1       8.114   7.997   6.193  0.00  0.00    -0.313 N 
ATOM     19  C   UNL     1       8.685   9.230   5.894  0.00  0.00    +0.216 C 
ATOM     27  H   UNL     1       7.422   7.608   5.559  0.00  0.00    +0.149 HD
BRANCH  19  12
ATOM     12  C   UNL     1       8.151   9.822   4.627  0.00  0.00    +0.075 C 
ATOM     13  C   UNL     1       7.460   8.743   3.785  0.00  0.00    +0.013 C 
ATOM     14  C   UNL     1       9.289  10.371   3.766  0.00  0.00    +0.013 C 
ATOM     16  C   UNL     1       8.151   8.767   2.426  0.00  0.00    +0.001 C 
ATOM     17  C   UNL     1       9.546   9.287   2.729  0.00  0.00    +0.001 C 
ENDBRANCH  19  12
ENDBRANCH  15   6
ENDBRANCH   8  15
BRANCH  11  18
ATOM     18  C   UNL     1      12.002   7.319   5.113  0.00  0.00    +0.130 C 
BRANCH  18  20
ATOM      5  O   UNL     1      12.744   7.722   2.859  0.00  0.00    -0.275 OA
ATOM      7  N   UNL     1      11.826   5.634   3.421  0.00  0.00    -0.285 N 
ATOM     20  C   UNL     1      12.244   6.940   3.660  0.00  0.00    +0.220 C 
ATOM     30  H   UNL     1      11.422   5.115   4.198  0.00  0.00    +0.155 HD
BRANCH   7  21
ATOM     21  C   UNL     1      11.884   4.920   2.200  0.00  0.00    +0.033 A 
ATOM     22  C   UNL     1      10.868   5.071   1.256  0.00  0.00    +0.023 A 
ATOM     23  C   UNL     1      12.955   4.065   1.942  0.00  0.00    +0.023 A 
ATOM     24  C   UNL     1      10.924   4.366   0.054  0.00  0.00    +0.002 A 
ATOM     25  C   UNL     1      13.011   3.361   0.740  0.00  0.00    +0.002 A 
ATOM     26  C   UNL     1      11.995   3.511  -0.205  0.00  0.00    +0.000 A 
ENDBRANCH   7  21
ENDBRANCH  18  20
ENDBRANCH  11  18
TORSDOF 8
ENDMDL
