REMARK  Name = 75536605
REMARK  7 active torsions:
REMARK  status: ('A' for Active; 'I' for Inactive)
REMARK    1  A    between atoms: O_3  and  C_9
REMARK    2  A    between atoms: N_5  and  C_8
REMARK    3  A    between atoms: N_5  and  C_13
REMARK    4  A    between atoms: N_6  and  C_12
REMARK    5  A    between atoms: C_10  and  C_12
REMARK    6  A    between atoms: C_13  and  C_14
REMARK    7  A    between atoms: C_15  and  C_18
REMARK                            x       y       z     vdW  Elec       q    Type
REMARK                         _______ _______ _______ _____ _____    ______ ____
ROOT
ATOM      2  O   UNL     1       0.690   0.999  -0.033  0.00  0.00    -0.371 OA
ATOM      8  C   UNL     1      -1.351  -0.171   0.299  0.00  0.00    +0.111 C 
ATOM      9  C   UNL     1      -0.429  -1.018  -0.560  0.00  0.00    +0.164 C 
ATOM     10  C   UNL     1       0.925  -0.406  -0.227  0.00  0.00    +0.165 C 
ATOM     11  C   UNL     1      -0.722   1.204   0.149  0.00  0.00    +0.181 C 
ENDROOT
BRANCH   9   3
ATOM      3  O   UNL     1      -0.483  -2.392  -0.228  0.00  0.00    -0.388 OA
ATOM     25  H   UNL     1      -0.274  -2.487   0.717  0.00  0.00    +0.210 HD
ENDBRANCH   9   3
BRANCH   8   5
ATOM      5  N   UNL     1      -2.741  -0.208  -0.126  0.00  0.00    -0.305 NA
ATOM     24  H   UNL     1      -3.006  -1.175  -0.313  0.00  0.00    +0.123 HD
BRANCH   5  13
ATOM     13  C   UNL     1      -3.619   0.331   0.906  0.00  0.00    +0.118 C 
BRANCH  13  14
ATOM      7  N   UNL     1      -7.250  -0.703   0.620  0.00  0.00    -0.263 NA
ATOM     14  C   UNL     1      -5.062   0.317   0.476  0.00  0.00    -0.015 A 
ATOM     16  C   UNL     1      -5.551   1.257  -0.424  0.00  0.00    +0.008 A 
ATOM     17  C   UNL     1      -5.944  -0.634   0.965  0.00  0.00    +0.115 A 
ATOM     19  C   UNL     1      -6.889   1.218  -0.802  0.00  0.00    +0.020 A 
ATOM     21  C   UNL     1      -7.689   0.227  -0.257  0.00  0.00    +0.111 A 
ENDBRANCH  13  14
ENDBRANCH   5  13
ENDBRANCH   8   5
BRANCH  10  12
ATOM     12  C   UNL     1       1.959  -0.607  -1.321  0.00  0.00    +0.138 C 
BRANCH  12   6
ATOM      4  O   UNL     1       4.119  -1.871   0.087  0.00  0.00    -0.270 OA
ATOM      6  N   UNL     1       3.216  -0.012  -0.966  0.00  0.00    -0.308 N 
ATOM     15  C   UNL     1       4.210  -0.703  -0.280  0.00  0.00    +0.251 C 
ATOM     26  H   UNL     1       3.355   0.959  -1.226  0.00  0.00    +0.149 HD
BRANCH  15  18
ATOM      1  S   UNL     1       6.715  -0.715   0.878  0.00  0.00    -0.092 S 
ATOM     18  C   UNL     1       5.443   0.063   0.035  0.00  0.00    +0.074 A 
ATOM     20  C   UNL     1       5.745   1.374  -0.259  0.00  0.00    +0.021 A 
ATOM     22  C   UNL     1       7.036   1.745   0.213  0.00  0.00    +0.008 A 
ATOM     23  C   UNL     1       7.673   0.703   0.851  0.00  0.00    +0.046 A 
ENDBRANCH  15  18
ENDBRANCH  12   6
ENDBRANCH  10  12
TORSDOF 7
