REMARK  Name = 45784192
REMARK  6 active torsions:
REMARK  status: ('A' for Active; 'I' for Inactive)
REMARK    1  A    between atoms: N_2  and  C_8
REMARK    2  A    between atoms: C_4  and  C_10
REMARK    3  A    between atoms: C_8  and  C_9
REMARK    4  A    between atoms: C_9  and  C_11
REMARK    5  A    between atoms: C_9  and  C_12
REMARK    6  A    between atoms: C_17  and  C_19
REMARK                            x       y       z     vdW  Elec       q    Type
REMARK                         _______ _______ _______ _____ _____    ______ ____
ROOT
ATOM      1  O   UNL     1       1.309   1.079   1.077  0.00  0.00    -0.439 OA
ATOM      3  N   UNL     1       1.034  -0.126  -0.822  0.00  0.00    -0.213 NA
ATOM     10  C   UNL     1       0.482   0.654   0.082  0.00  0.00    +0.201 A 
ATOM     13  C   UNL     1       2.336  -0.230  -0.397  0.00  0.00    +0.110 A 
ATOM     14  C   UNL     1       2.508   0.506   0.766  0.00  0.00    +0.155 A 
ATOM     15  C   UNL     1       3.433  -0.923  -0.929  0.00  0.00    +0.035 A 
ATOM     16  C   UNL     1       3.705   0.617   1.463  0.00  0.00    +0.049 A 
ATOM     17  C   UNL     1       4.659  -0.835  -0.253  0.00  0.00    -0.048 A 
ATOM     18  C   UNL     1       4.789  -0.079   0.919  0.00  0.00    +0.007 A 
ATOM     19  C   UNL     1       5.846  -1.561  -0.795  0.00  0.00    +0.044 C 
ENDROOT
BRANCH  10   4
ATOM      2  N   UNL     1      -3.151   0.546  -0.385  0.00  0.00    -0.301 NA
ATOM      4  C   UNL     1      -0.948   1.138   0.158  0.00  0.00    +0.090 C 
ATOM      5  C   UNL     1      -1.962  -0.008   0.267  0.00  0.00    +0.097 C 
ATOM      6  C   UNL     1      -1.417   1.961  -1.054  0.00  0.00    +0.029 C 
ATOM      7  C   UNL     1      -2.644   1.226  -1.578  0.00  0.00    +0.085 C 
BRANCH   2   8
ATOM      8  C   UNL     1      -4.136  -0.476  -0.706  0.00  0.00    +0.087 C 
BRANCH   8   9
ATOM      9  C   UNL     1      -4.721  -1.143   0.551  0.00  0.00    -0.003 C 
ATOM     11  C   UNL     1      -5.407  -0.088   1.423  0.00  0.00    +0.008 C 
ATOM     12  C   UNL     1      -5.715  -2.258   0.215  0.00  0.00    +0.008 C 
ENDBRANCH   8   9
ENDBRANCH   2   8
ENDBRANCH  10   4
TORSDOF 3
