MODEL 1
REMARK VINA RESULT:      -6.7      0.000      0.000
REMARK  Name = 75368651
REMARK  4 active torsions:
REMARK  status: ('A' for Active; 'I' for Inactive)
REMARK    1  A    between atoms: N_2  and  C_6
REMARK    2  A    between atoms: N_4  and  C_17
REMARK    3  A    between atoms: C_17  and  C_18
REMARK    4  A    between atoms: C_19  and  C_22
REMARK                            x       y       z     vdW  Elec       q    Type
REMARK                         _______ _______ _______ _____ _____    ______ ____
ROOT
ATOM      1  O   UNL     1      10.924  10.933  25.244  0.00  0.00    -0.252 OA
ATOM      2  N   UNL     1      11.565  12.531  23.631  0.00  0.00    -0.281 N 
ATOM      3  N   UNL     1      11.063  10.451  22.950  0.00  0.00    -0.278 N 
ATOM      4  N   UNL     1      11.684   9.040  20.597  0.00  0.00    -0.295 NA
ATOM      5  C   UNL     1      11.286  11.191  21.724  0.00  0.00    +0.109 C 
ATOM      7  C   UNL     1      11.846  12.528  22.206  0.00  0.00    +0.133 C 
ATOM      8  C   UNL     1      12.207  10.408  20.790  0.00  0.00    +0.109 C 
ATOM     11  C   UNL     1      11.151  11.263  24.088  0.00  0.00    +0.305 C 
ATOM     12  C   UNL     1      10.691   9.053  22.875  0.00  0.00    +0.125 C 
ATOM     13  C   UNL     1      11.600   8.322  21.885  0.00  0.00    +0.104 C 
ENDROOT
BRANCH   2   6
ATOM      6  C   UNL     1      11.840  13.679  24.463  0.00  0.00    +0.078 C 
ATOM      9  C   UNL     1      12.879  13.331  25.532  0.00  0.00    +0.022 C 
ATOM     10  C   UNL     1      10.550  14.213  25.091  0.00  0.00    +0.022 C 
ATOM     14  C   UNL     1      13.149  14.513  26.459  0.00  0.00    +0.002 C 
ATOM     15  C   UNL     1      10.825  15.395  26.017  0.00  0.00    +0.002 C 
ATOM     16  C   UNL     1      11.862  15.046  27.081  0.00  0.00    +0.000 C 
ENDBRANCH   2   6
BRANCH   4  17
ATOM     17  C   UNL     1      12.525   8.301  19.656  0.00  0.00    +0.120 C 
BRANCH  17  18
ATOM     18  C   UNL     1      12.237   8.682  18.228  0.00  0.00    -0.030 A 
ATOM     19  C   UNL     1      13.207   9.304  17.442  0.00  0.00    -0.046 A 
ATOM     20  C   UNL     1      10.978   8.406  17.693  0.00  0.00    +0.005 A 
ATOM     21  C   UNL     1      12.918   9.649  16.121  0.00  0.00    +0.003 A 
ATOM     22  C   UNL     1      14.561   9.612  17.992  0.00  0.00    +0.044 C 
ATOM     23  C   UNL     1      10.690   8.751  16.373  0.00  0.00    +0.000 A 
ATOM     24  C   UNL     1      11.660   9.372  15.587  0.00  0.00    +0.000 A 
ENDBRANCH  17  18
ENDBRANCH   4  17
TORSDOF 3
ENDMDL
MODEL 2
REMARK VINA RESULT:      -6.6     27.306     29.383
REMARK  Name = 75368651
REMARK  4 active torsions:
REMARK  status: ('A' for Active; 'I' for Inactive)
REMARK    1  A    between atoms: N_2  and  C_6
REMARK    2  A    between atoms: N_4  and  C_17
REMARK    3  A    between atoms: C_17  and  C_18
REMARK    4  A    between atoms: C_19  and  C_22
REMARK                            x       y       z     vdW  Elec       q    Type
REMARK                         _______ _______ _______ _____ _____    ______ ____
ROOT
ATOM      1  O   UNL     1     -17.207   4.269  21.527  0.00  0.00    -0.252 OA
ATOM      2  N   UNL     1     -15.186   4.685  22.670  0.00  0.00    -0.281 N 
ATOM      3  N   UNL     1     -16.751   3.424  23.671  0.00  0.00    -0.278 N 
ATOM      4  N   UNL     1     -17.173   2.734  26.365  0.00  0.00    -0.295 NA
ATOM      5  C   UNL     1     -15.616   3.375  24.570  0.00  0.00    +0.109 C 
ATOM      7  C   UNL     1     -14.654   4.413  23.994  0.00  0.00    +0.133 C 
ATOM      8  C   UNL     1     -16.064   3.641  26.006  0.00  0.00    +0.109 C 
ATOM     11  C   UNL     1     -16.473   4.138  22.498  0.00  0.00    +0.305 C 
ATOM     12  C   UNL     1     -17.951   2.685  24.005  0.00  0.00    +0.125 C 
ATOM     13  C   UNL     1     -18.328   2.934  25.467  0.00  0.00    +0.104 C 
ENDROOT
BRANCH   2   6
ATOM      6  C   UNL     1     -14.502   5.545  21.733  0.00  0.00    +0.078 C 
ATOM      9  C   UNL     1     -12.988   5.478  21.949  0.00  0.00    +0.022 C 
ATOM     10  C   UNL     1     -15.019   6.982  21.841  0.00  0.00    +0.022 C 
ATOM     14  C   UNL     1     -12.244   6.419  21.006  0.00  0.00    +0.002 C 
ATOM     15  C   UNL     1     -14.271   7.920  20.897  0.00  0.00    +0.002 C 
ATOM     16  C   UNL     1     -12.762   7.850  21.113  0.00  0.00    +0.000 C 
ENDBRANCH   2   6
BRANCH   4  17
ATOM     17  C   UNL     1     -17.568   2.939  27.758  0.00  0.00    +0.120 C 
BRANCH  17  18
ATOM     18  C   UNL     1     -16.517   2.447  28.718  0.00  0.00    -0.030 A 
ATOM     19  C   UNL     1     -15.899   3.319  29.612  0.00  0.00    -0.046 A 
ATOM     20  C   UNL     1     -16.163   1.097  28.702  0.00  0.00    +0.005 A 
ATOM     21  C   UNL     1     -14.927   2.842  30.493  0.00  0.00    +0.003 A 
ATOM     22  C   UNL     1     -16.260   4.768  29.648  0.00  0.00    +0.044 C 
ATOM     23  C   UNL     1     -15.192   0.621  29.581  0.00  0.00    +0.000 A 
ATOM     24  C   UNL     1     -14.574   1.493  30.477  0.00  0.00    +0.000 A 
ENDBRANCH  17  18
ENDBRANCH   4  17
TORSDOF 3
ENDMDL
MODEL 3
REMARK VINA RESULT:      -6.4      4.341      7.892
REMARK  Name = 75368651
REMARK  4 active torsions:
REMARK  status: ('A' for Active; 'I' for Inactive)
REMARK    1  A    between atoms: N_2  and  C_6
REMARK    2  A    between atoms: N_4  and  C_17
REMARK    3  A    between atoms: C_17  and  C_18
REMARK    4  A    between atoms: C_19  and  C_22
REMARK                            x       y       z     vdW  Elec       q    Type
REMARK                         _______ _______ _______ _____ _____    ______ ____
ROOT
ATOM      1  O   UNL     1      16.201   5.938  19.031  0.00  0.00    -0.252 OA
ATOM      2  N   UNL     1      16.914   7.509  20.640  0.00  0.00    -0.281 N 
ATOM      3  N   UNL     1      14.712   7.258  20.279  0.00  0.00    -0.278 N 
ATOM      4  N   UNL     1      12.513   8.920  20.839  0.00  0.00    -0.295 NA
ATOM      5  C   UNL     1      14.795   8.185  21.390  0.00  0.00    +0.109 C 
ATOM      7  C   UNL     1      16.284   8.519  21.471  0.00  0.00    +0.133 C 
ATOM      8  C   UNL     1      13.879   9.383  21.152  0.00  0.00    +0.109 C 
ATOM     11  C   UNL     1      15.971   6.790  19.878  0.00  0.00    +0.305 C 
ATOM     12  C   UNL     1      13.410   6.851  19.793  0.00  0.00    +0.125 C 
ATOM     13  C   UNL     1      12.508   8.076  19.626  0.00  0.00    +0.104 C 
ENDROOT
BRANCH   2   6
ATOM      6  C   UNL     1      18.350   7.397  20.528  0.00  0.00    +0.078 C 
ATOM      9  C   UNL     1      18.804   5.973  20.858  0.00  0.00    +0.022 C 
ATOM     10  C   UNL     1      19.044   8.427  21.423  0.00  0.00    +0.022 C 
ATOM     14  C   UNL     1      20.324   5.840  20.799  0.00  0.00    +0.002 C 
ATOM     15  C   UNL     1      20.563   8.290  21.362  0.00  0.00    +0.002 C 
ATOM     16  C   UNL     1      21.014   6.869  21.689  0.00  0.00    +0.000 C 
ENDBRANCH   2   6
BRANCH   4  17
ATOM     17  C   UNL     1      11.613  10.060  20.669  0.00  0.00    +0.120 C 
BRANCH  17  18
ATOM     18  C   UNL     1      11.486  10.867  21.934  0.00  0.00    -0.030 A 
ATOM     19  C   UNL     1      11.751  12.236  21.941  0.00  0.00    -0.046 A 
ATOM     20  C   UNL     1      11.098  10.226  23.111  0.00  0.00    +0.005 A 
ATOM     21  C   UNL     1      11.627  12.964  23.125  0.00  0.00    +0.003 A 
ATOM     22  C   UNL     1      12.169  12.945  20.695  0.00  0.00    +0.044 C 
ATOM     23  C   UNL     1      10.974  10.953  24.294  0.00  0.00    +0.000 A 
ATOM     24  C   UNL     1      11.238  12.323  24.301  0.00  0.00    +0.000 A 
ENDBRANCH  17  18
ENDBRANCH   4  17
TORSDOF 3
ENDMDL
MODEL 4
REMARK VINA RESULT:      -6.4      5.562      8.867
REMARK  Name = 75368651
REMARK  4 active torsions:
REMARK  status: ('A' for Active; 'I' for Inactive)
REMARK    1  A    between atoms: N_2  and  C_6
REMARK    2  A    between atoms: N_4  and  C_17
REMARK    3  A    between atoms: C_17  and  C_18
REMARK    4  A    between atoms: C_19  and  C_22
REMARK                            x       y       z     vdW  Elec       q    Type
REMARK                         _______ _______ _______ _____ _____    ______ ____
ROOT
ATOM      1  O   UNL     1      17.932   5.484  18.579  0.00  0.00    -0.252 OA
ATOM      2  N   UNL     1      18.395   6.544  20.635  0.00  0.00    -0.281 N 
ATOM      3  N   UNL     1      16.347   6.770  19.742  0.00  0.00    -0.278 N 
ATOM      4  N   UNL     1      14.301   8.650  20.177  0.00  0.00    -0.295 NA
ATOM      5  C   UNL     1      16.255   7.423  21.032  0.00  0.00    +0.109 C 
ATOM      7  C   UNL     1      17.702   7.462  21.521  0.00  0.00    +0.133 C 
ATOM      8  C   UNL     1      15.587   8.789  20.889  0.00  0.00    +0.109 C 
ATOM     11  C   UNL     1      17.598   6.174  19.532  0.00  0.00    +0.305 C 
ATOM     12  C   UNL     1      15.174   6.709  18.894  0.00  0.00    +0.125 C 
ATOM     13  C   UNL     1      14.504   8.083  18.828  0.00  0.00    +0.104 C 
ENDROOT
BRANCH   2   6
ATOM      6  C   UNL     1      19.785   6.202  20.823  0.00  0.00    +0.078 C 
ATOM      9  C   UNL     1      20.031   4.736  20.460  0.00  0.00    +0.022 C 
ATOM     10  C   UNL     1      20.227   6.504  22.258  0.00  0.00    +0.022 C 
ATOM     14  C   UNL     1      21.484   4.333  20.701  0.00  0.00    +0.002 C 
ATOM     15  C   UNL     1      21.680   6.100  22.494  0.00  0.00    +0.002 C 
ATOM     16  C   UNL     1      21.923   4.638  22.129  0.00  0.00    +0.000 C 
ENDBRANCH   2   6
BRANCH   4  17
ATOM     17  C   UNL     1      13.624   9.943  20.089  0.00  0.00    +0.120 C 
BRANCH  17  18
ATOM     18  C   UNL     1      12.697  10.172  21.253  0.00  0.00    -0.030 A 
ATOM     19  C   UNL     1      11.464   9.524  21.325  0.00  0.00    -0.046 A 
ATOM     20  C   UNL     1      13.085  11.046  22.268  0.00  0.00    +0.005 A 
ATOM     21  C   UNL     1      10.620   9.750  22.414  0.00  0.00    +0.003 A 
ATOM     22  C   UNL     1      11.025   8.584  20.251  0.00  0.00    +0.044 C 
ATOM     23  C   UNL     1      12.243  11.273  23.355  0.00  0.00    +0.000 A 
ATOM     24  C   UNL     1      11.010  10.624  23.428  0.00  0.00    +0.000 A 
ENDBRANCH  17  18
ENDBRANCH   4  17
TORSDOF 3
ENDMDL
MODEL 5
REMARK VINA RESULT:      -6.3     26.874     29.392
REMARK  Name = 75368651
REMARK  4 active torsions:
REMARK  status: ('A' for Active; 'I' for Inactive)
REMARK    1  A    between atoms: N_2  and  C_6
REMARK    2  A    between atoms: N_4  and  C_17
REMARK    3  A    between atoms: C_17  and  C_18
REMARK    4  A    between atoms: C_19  and  C_22
REMARK                            x       y       z     vdW  Elec       q    Type
REMARK                         _______ _______ _______ _____ _____    ______ ____
ROOT
ATOM      1  O   UNL     1     -17.655   4.264  32.489  0.00  0.00    -0.252 OA
ATOM      2  N   UNL     1     -15.407   3.688  32.060  0.00  0.00    -0.281 N 
ATOM      3  N   UNL     1     -15.850   5.673  33.013  0.00  0.00    -0.278 N 
ATOM      4  N   UNL     1     -14.340   8.037  33.224  0.00  0.00    -0.295 NA
ATOM      5  C   UNL     1     -14.403   5.587  33.008  0.00  0.00    +0.109 C 
ATOM      7  C   UNL     1     -14.118   4.350  32.158  0.00  0.00    +0.133 C 
ATOM      8  C   UNL     1     -13.795   6.885  32.479  0.00  0.00    +0.109 C 
ATOM     11  C   UNL     1     -16.456   4.509  32.521  0.00  0.00    +0.305 C 
ATOM     12  C   UNL     1     -16.487   6.839  33.589  0.00  0.00    +0.125 C 
ATOM     13  C   UNL     1     -15.808   8.112  33.078  0.00  0.00    +0.104 C 
ENDROOT
BRANCH   2   6
ATOM      6  C   UNL     1     -15.561   2.403  31.420  0.00  0.00    +0.078 C 
ATOM      9  C   UNL     1     -14.761   1.333  32.166  0.00  0.00    +0.022 C 
ATOM     10  C   UNL     1     -15.153   2.480  29.946  0.00  0.00    +0.022 C 
ATOM     14  C   UNL     1     -14.863  -0.026  31.479  0.00  0.00    +0.002 C 
ATOM     15  C   UNL     1     -15.256   1.119  29.264  0.00  0.00    +0.002 C 
ATOM     16  C   UNL     1     -14.459   0.053  30.010  0.00  0.00    +0.000 C 
ENDBRANCH   2   6
BRANCH   4  17
ATOM     17  C   UNL     1     -13.719   9.280  32.767  0.00  0.00    +0.120 C 
BRANCH  17  18
ATOM     18  C   UNL     1     -12.321   9.438  33.304  0.00  0.00    -0.030 A 
ATOM     19  C   UNL     1     -11.237   9.599  32.442  0.00  0.00    -0.046 A 
ATOM     20  C   UNL     1     -12.118   9.419  34.684  0.00  0.00    +0.005 A 
ATOM     21  C   UNL     1      -9.949   9.744  32.961  0.00  0.00    +0.003 A 
ATOM     22  C   UNL     1     -11.428   9.621  30.961  0.00  0.00    +0.044 C 
ATOM     23  C   UNL     1     -10.832   9.563  35.202  0.00  0.00    +0.000 A 
ATOM     24  C   UNL     1      -9.747   9.726  34.341  0.00  0.00    +0.000 A 
ENDBRANCH  17  18
ENDBRANCH   4  17
TORSDOF 3
ENDMDL
MODEL 6
REMARK VINA RESULT:      -6.3     27.376     28.584
REMARK  Name = 75368651
REMARK  4 active torsions:
REMARK  status: ('A' for Active; 'I' for Inactive)
REMARK    1  A    between atoms: N_2  and  C_6
REMARK    2  A    between atoms: N_4  and  C_17
REMARK    3  A    between atoms: C_17  and  C_18
REMARK    4  A    between atoms: C_19  and  C_22
REMARK                            x       y       z     vdW  Elec       q    Type
REMARK                         _______ _______ _______ _____ _____    ______ ____
ROOT
ATOM      1  O   UNL     1      -1.893 -10.852  15.481  0.00  0.00    -0.252 OA
ATOM      2  N   UNL     1      -4.232 -10.593  15.309  0.00  0.00    -0.281 N 
ATOM      3  N   UNL     1      -3.024 -10.772  13.424  0.00  0.00    -0.278 N 
ATOM      4  N   UNL     1      -3.579 -10.064  10.759  0.00  0.00    -0.295 NA
ATOM      5  C   UNL     1      -4.401 -10.755  12.973  0.00  0.00    +0.109 C 
ATOM      7  C   UNL     1      -5.190 -10.404  14.233  0.00  0.00    +0.133 C 
ATOM      8  C   UNL     1      -4.568  -9.773  11.815  0.00  0.00    +0.109 C 
ATOM     11  C   UNL     1      -2.919 -10.756  14.821  0.00  0.00    +0.305 C 
ATOM     12  C   UNL     1      -1.961 -10.905  12.449  0.00  0.00    +0.125 C 
ATOM     13  C   UNL     1      -2.202  -9.946  11.280  0.00  0.00    +0.104 C 
ENDROOT
BRANCH   2   6
ATOM      6  C   UNL     1      -4.607 -10.468  16.697  0.00  0.00    +0.078 C 
ATOM      9  C   UNL     1      -4.172 -11.707  17.484  0.00  0.00    +0.022 C 
ATOM     10  C   UNL     1      -6.111 -10.221  16.832  0.00  0.00    +0.022 C 
ATOM     14  C   UNL     1      -4.603 -11.625  18.946  0.00  0.00    +0.002 C 
ATOM     15  C   UNL     1      -6.538 -10.140  18.295  0.00  0.00    +0.002 C 
ATOM     16  C   UNL     1      -6.102 -11.375  19.078  0.00  0.00    +0.000 C 
ENDBRANCH   2   6
BRANCH   4  17
ATOM     17  C   UNL     1      -3.770  -9.169   9.619  0.00  0.00    +0.120 C 
BRANCH  17  18
ATOM     18  C   UNL     1      -5.169  -9.254   9.067  0.00  0.00    -0.030 A 
ATOM     19  C   UNL     1      -5.549 -10.310   8.240  0.00  0.00    -0.046 A 
ATOM     20  C   UNL     1      -6.089  -8.258   9.394  0.00  0.00    +0.005 A 
ATOM     21  C   UNL     1      -6.851 -10.369   7.739  0.00  0.00    +0.003 A 
ATOM     22  C   UNL     1      -4.583 -11.388   7.875  0.00  0.00    +0.044 C 
ATOM     23  C   UNL     1      -7.389  -8.317   8.894  0.00  0.00    +0.000 A 
ATOM     24  C   UNL     1      -7.770  -9.373   8.067  0.00  0.00    +0.000 A 
ENDBRANCH  17  18
ENDBRANCH   4  17
TORSDOF 3
ENDMDL
MODEL 7
REMARK VINA RESULT:      -6.2     26.946     29.532
REMARK  Name = 75368651
REMARK  4 active torsions:
REMARK  status: ('A' for Active; 'I' for Inactive)
REMARK    1  A    between atoms: N_2  and  C_6
REMARK    2  A    between atoms: N_4  and  C_17
REMARK    3  A    between atoms: C_17  and  C_18
REMARK    4  A    between atoms: C_19  and  C_22
REMARK                            x       y       z     vdW  Elec       q    Type
REMARK                         _______ _______ _______ _____ _____    ______ ____
ROOT
ATOM      1  O   UNL     1      -5.024 -11.759  18.890  0.00  0.00    -0.252 OA
ATOM      2  N   UNL     1      -4.892 -10.918  16.690  0.00  0.00    -0.281 N 
ATOM      3  N   UNL     1      -6.688 -10.403  17.935  0.00  0.00    -0.278 N 
ATOM      4  N   UNL     1      -9.259  -9.496  17.245  0.00  0.00    -0.295 NA
ATOM      5  C   UNL     1      -6.861  -9.640  16.716  0.00  0.00    +0.109 C 
ATOM      7  C   UNL     1      -5.763 -10.174  15.797  0.00  0.00    +0.133 C 
ATOM      8  C   UNL     1      -8.282  -9.806  16.182  0.00  0.00    +0.109 C 
ATOM     11  C   UNL     1      -5.476 -11.106  17.959  0.00  0.00    +0.305 C 
ATOM     12  C   UNL     1      -7.674 -10.286  18.989  0.00  0.00    +0.125 C 
ATOM     13  C   UNL     1      -9.083 -10.398  18.402  0.00  0.00    +0.104 C 
ENDROOT
BRANCH   2   6
ATOM      6  C   UNL     1      -3.653 -11.505  16.236  0.00  0.00    +0.078 C 
ATOM      9  C   UNL     1      -2.598 -10.419  16.007  0.00  0.00    +0.022 C 
ATOM     10  C   UNL     1      -3.879 -12.339  14.973  0.00  0.00    +0.022 C 
ATOM     14  C   UNL     1      -1.293 -11.007  15.477  0.00  0.00    +0.002 C 
ATOM     15  C   UNL     1      -2.572 -12.924  14.445  0.00  0.00    +0.002 C 
ATOM     16  C   UNL     1      -1.521 -11.841  14.220  0.00  0.00    +0.000 C 
ENDBRANCH   2   6
BRANCH   4  17
ATOM     17  C   UNL     1     -10.624  -9.592  16.728  0.00  0.00    +0.120 C 
BRANCH  17  18
ATOM     18  C   UNL     1     -11.070  -8.308  16.080  0.00  0.00    -0.030 A 
ATOM     19  C   UNL     1     -11.668  -8.311  14.821  0.00  0.00    -0.046 A 
ATOM     20  C   UNL     1     -10.876  -7.104  16.757  0.00  0.00    +0.005 A 
ATOM     21  C   UNL     1     -12.073  -7.109  14.238  0.00  0.00    +0.003 A 
ATOM     22  C   UNL     1     -11.885  -9.586  14.075  0.00  0.00    +0.044 C 
ATOM     23  C   UNL     1     -11.280  -5.903  16.176  0.00  0.00    +0.000 A 
ATOM     24  C   UNL     1     -11.880  -5.905  14.917  0.00  0.00    +0.000 A 
ENDBRANCH  17  18
ENDBRANCH   4  17
TORSDOF 3
ENDMDL
MODEL 8
REMARK VINA RESULT:      -6.2      5.691      7.979
REMARK  Name = 75368651
REMARK  4 active torsions:
REMARK  status: ('A' for Active; 'I' for Inactive)
REMARK    1  A    between atoms: N_2  and  C_6
REMARK    2  A    between atoms: N_4  and  C_17
REMARK    3  A    between atoms: C_17  and  C_18
REMARK    4  A    between atoms: C_19  and  C_22
REMARK                            x       y       z     vdW  Elec       q    Type
REMARK                         _______ _______ _______ _____ _____    ______ ____
ROOT
ATOM      1  O   UNL     1      13.507   6.988  18.984  0.00  0.00    -0.252 OA
ATOM      2  N   UNL     1      14.034   8.673  20.548  0.00  0.00    -0.281 N 
ATOM      3  N   UNL     1      15.701   7.434  19.693  0.00  0.00    -0.278 N 
ATOM      4  N   UNL     1      18.325   6.942  20.579  0.00  0.00    -0.295 NA
ATOM      5  C   UNL     1      16.369   8.434  20.502  0.00  0.00    +0.109 C 
ATOM      7  C   UNL     1      15.226   9.116  21.251  0.00  0.00    +0.133 C 
ATOM      8  C   UNL     1      17.422   7.778  21.394  0.00  0.00    +0.109 C 
ATOM     11  C   UNL     1      14.313   7.620  19.653  0.00  0.00    +0.305 C 
ATOM     12  C   UNL     1      16.495   6.466  18.966  0.00  0.00    +0.125 C 
ATOM     13  C   UNL     1      17.573   5.880  19.881  0.00  0.00    +0.104 C 
ENDROOT
BRANCH   2   6
ATOM      6  C   UNL     1      12.722   9.179  20.873  0.00  0.00    +0.078 C 
ATOM      9  C   UNL     1      12.803  10.648  21.297  0.00  0.00    +0.022 C 
ATOM     10  C   UNL     1      12.064   8.321  21.957  0.00  0.00    +0.022 C 
ATOM     14  C   UNL     1      11.435  11.194  21.697  0.00  0.00    +0.002 C 
ATOM     15  C   UNL     1      10.697   8.870  22.355  0.00  0.00    +0.002 C 
ATOM     16  C   UNL     1      10.780  10.335  22.775  0.00  0.00    +0.000 C 
ENDBRANCH   2   6
BRANCH   4  17
ATOM     17  C   UNL     1      19.374   6.359  21.414  0.00  0.00    +0.120 C 
BRANCH  17  18
ATOM     18  C   UNL     1      20.744   6.833  21.007  0.00  0.00    -0.030 A 
ATOM     19  C   UNL     1      21.779   5.925  20.783  0.00  0.00    -0.046 A 
ATOM     20  C   UNL     1      20.971   8.201  20.856  0.00  0.00    +0.005 A 
ATOM     21  C   UNL     1      23.041   6.386  20.407  0.00  0.00    +0.003 A 
ATOM     22  C   UNL     1      21.561   4.456  20.940  0.00  0.00    +0.044 C 
ATOM     23  C   UNL     1      22.232   8.661  20.480  0.00  0.00    +0.000 A 
ATOM     24  C   UNL     1      23.268   7.754  20.255  0.00  0.00    +0.000 A 
ENDBRANCH  17  18
ENDBRANCH   4  17
TORSDOF 3
ENDMDL
MODEL 9
REMARK VINA RESULT:      -6.2     26.548     29.252
REMARK  Name = 75368651
REMARK  4 active torsions:
REMARK  status: ('A' for Active; 'I' for Inactive)
REMARK    1  A    between atoms: N_2  and  C_6
REMARK    2  A    between atoms: N_4  and  C_17
REMARK    3  A    between atoms: C_17  and  C_18
REMARK    4  A    between atoms: C_19  and  C_22
REMARK                            x       y       z     vdW  Elec       q    Type
REMARK                         _______ _______ _______ _____ _____    ______ ____
ROOT
ATOM      1  O   UNL     1      -9.846 -10.206  19.121  0.00  0.00    -0.252 OA
ATOM      2  N   UNL     1      -9.626  -9.141  17.027  0.00  0.00    -0.281 N 
ATOM      3  N   UNL     1      -8.049 -10.608  17.663  0.00  0.00    -0.278 N 
ATOM      4  N   UNL     1      -5.398 -11.009  16.812  0.00  0.00    -0.295 NA
ATOM      5  C   UNL     1      -7.683 -10.246  16.309  0.00  0.00    +0.109 C 
ATOM      7  C   UNL     1      -8.622  -9.087  15.979  0.00  0.00    +0.133 C 
ATOM      8  C   UNL     1      -6.195  -9.909  16.233  0.00  0.00    +0.109 C 
ATOM     11  C   UNL     1      -9.251 -10.014  18.069  0.00  0.00    +0.305 C 
ATOM     12  C   UNL     1      -7.242 -11.574  18.380  0.00  0.00    +0.125 C 
ATOM     13  C   UNL     1      -5.758 -11.232  18.227  0.00  0.00    +0.104 C 
ENDROOT
BRANCH   2   6
ATOM      6  C   UNL     1     -10.778  -8.272  17.028  0.00  0.00    +0.078 C 
ATOM      9  C   UNL     1     -11.999  -9.000  16.461  0.00  0.00    +0.022 C 
ATOM     10  C   UNL     1     -10.486  -6.984  16.254  0.00  0.00    +0.022 C 
ATOM     14  C   UNL     1     -13.221  -8.086  16.401  0.00  0.00    +0.002 C 
ATOM     15  C   UNL     1     -11.710  -6.074  16.197  0.00  0.00    +0.002 C 
ATOM     16  C   UNL     1     -12.927  -6.802  15.632  0.00  0.00    +0.000 C 
ENDBRANCH   2   6
BRANCH   4  17
ATOM     17  C   UNL     1      -3.969 -10.724  16.689  0.00  0.00    +0.120 C 
BRANCH  17  18
ATOM     18  C   UNL     1      -3.303 -11.620  15.678  0.00  0.00    -0.030 A 
ATOM     19  C   UNL     1      -2.026 -11.334  15.199  0.00  0.00    -0.046 A 
ATOM     20  C   UNL     1      -3.984 -12.748  15.220  0.00  0.00    +0.005 A 
ATOM     21  C   UNL     1      -1.428 -12.178  14.262  0.00  0.00    +0.003 A 
ATOM     22  C   UNL     1      -1.277 -10.131  15.672  0.00  0.00    +0.044 C 
ATOM     23  C   UNL     1      -3.387 -13.591  14.284  0.00  0.00    +0.000 A 
ATOM     24  C   UNL     1      -2.108 -13.306  13.805  0.00  0.00    +0.000 A 
ENDBRANCH  17  18
ENDBRANCH   4  17
TORSDOF 3
ENDMDL
MODEL 10
REMARK VINA RESULT:      -6.1     15.493     20.249
REMARK  Name = 75368651
REMARK  4 active torsions:
REMARK  status: ('A' for Active; 'I' for Inactive)
REMARK    1  A    between atoms: N_2  and  C_6
REMARK    2  A    between atoms: N_4  and  C_17
REMARK    3  A    between atoms: C_17  and  C_18
REMARK    4  A    between atoms: C_19  and  C_22
REMARK                            x       y       z     vdW  Elec       q    Type
REMARK                         _______ _______ _______ _____ _____    ______ ____
ROOT
ATOM      1  O   UNL     1      12.543   7.755   4.934  0.00  0.00    -0.252 OA
ATOM      2  N   UNL     1      11.041   5.967   5.266  0.00  0.00    -0.281 N 
ATOM      3  N   UNL     1      11.928   6.266   3.225  0.00  0.00    -0.278 N 
ATOM      4  N   UNL     1      11.131   5.379   0.677  0.00  0.00    -0.295 NA
ATOM      5  C   UNL     1      11.169   5.037   3.114  0.00  0.00    +0.109 C 
ATOM      7  C   UNL     1      10.394   4.971   4.429  0.00  0.00    +0.133 C 
ATOM      8  C   UNL     1      10.302   5.059   1.856  0.00  0.00    +0.109 C 
ATOM     11  C   UNL     1      11.920   6.783   4.527  0.00  0.00    +0.305 C 
ATOM     12  C   UNL     1      12.662   6.751   2.074  0.00  0.00    +0.125 C 
ATOM     13  C   UNL     1      11.775   6.699   0.828  0.00  0.00    +0.104 C 
ENDROOT
BRANCH   2   6
ATOM      6  C   UNL     1      10.678   6.154   6.650  0.00  0.00    +0.078 C 
ATOM      9  C   UNL     1      10.283   4.819   7.287  0.00  0.00    +0.022 C 
ATOM     10  C   UNL     1       9.557   7.188   6.781  0.00  0.00    +0.022 C 
ATOM     14  C   UNL     1       9.844   4.996   8.738  0.00  0.00    +0.002 C 
ATOM     15  C   UNL     1       9.120   7.362   8.234  0.00  0.00    +0.002 C 
ATOM     16  C   UNL     1       8.729   6.030   8.867  0.00  0.00    +0.000 C 
ENDBRANCH   2   6
BRANCH   4  17
ATOM     17  C   UNL     1      10.322   5.342  -0.540  0.00  0.00    +0.120 C 
BRANCH  17  18
ATOM     18  C   UNL     1      10.831   4.319  -1.522  0.00  0.00    -0.030 A 
ATOM     19  C   UNL     1      10.214   4.145  -2.759  0.00  0.00    -0.046 A 
ATOM     20  C   UNL     1      11.936   3.540  -1.177  0.00  0.00    +0.005 A 
ATOM     21  C   UNL     1      10.701   3.191  -3.654  0.00  0.00    +0.003 A 
ATOM     22  C   UNL     1       9.029   4.966  -3.151  0.00  0.00    +0.044 C 
ATOM     23  C   UNL     1      12.423   2.587  -2.070  0.00  0.00    +0.000 A 
ATOM     24  C   UNL     1      11.806   2.412  -3.309  0.00  0.00    +0.000 A 
ENDBRANCH  17  18
ENDBRANCH   4  17
TORSDOF 3
ENDMDL
