MODEL 1
REMARK VINA RESULT:      -6.3      0.000      0.000
REMARK  Name = 45783569
REMARK  9 active torsions:
REMARK  status: ('A' for Active; 'I' for Inactive)
REMARK    1  A    between atoms: O_2  and  C_24
REMARK    2  A    between atoms: O_2  and  C_25
REMARK    3  A    between atoms: O_3  and  C_26
REMARK    4  A    between atoms: O_3  and  C_27
REMARK    5  A    between atoms: N_4  and  C_14
REMARK    6  A    between atoms: C_10  and  C_15
REMARK    7  A    between atoms: C_14  and  C_16
REMARK    8  A    between atoms: C_17  and  C_20
REMARK    9  A    between atoms: C_25  and  C_26
REMARK                            x       y       z     vdW  Elec       q    Type
REMARK                         _______ _______ _______ _____ _____    ______ ____
ROOT
ATOM      1  O   UNL     1      15.006   8.363  19.989  0.00  0.00    -0.336 OA
ATOM      5  N   UNL     1      16.071   6.654  19.010  0.00  0.00    -0.190 NA
ATOM      8  N   UNL     1      16.186   8.170  20.719  0.00  0.00    -0.056 NA
ATOM     15  C   UNL     1      15.017   7.430  19.002  0.00  0.00    +0.245 A 
ATOM     17  C   UNL     1      16.760   7.146  20.081  0.00  0.00    +0.204 A 
ENDROOT
BRANCH  17  20
ATOM      9  N   UNL     1      19.763   4.953  20.133  0.00  0.00    -0.221 NA
ATOM     20  C   UNL     1      18.017   6.589  20.487  0.00  0.00    +0.041 A 
ATOM     21  C   UNL     1      18.707   7.100  21.580  0.00  0.00    +0.018 A 
ATOM     22  C   UNL     1      18.582   5.524  19.803  0.00  0.00    +0.126 A 
ATOM     23  C   UNL     1      19.925   6.538  21.951  0.00  0.00    +0.068 A 
ATOM     24  C   UNL     1      20.404   5.476  21.202  0.00  0.00    +0.215 A 
BRANCH  24   2
ATOM      2  O   UNL     1      21.602   4.907  21.548  0.00  0.00    -0.474 OA
BRANCH   2  25
ATOM     25  C   UNL     1      21.753   3.519  21.273  0.00  0.00    +0.258 C 
BRANCH  25  26
ATOM     26  C   UNL     1      23.194   3.119  21.523  0.00  0.00    +0.200 C 
BRANCH  26   3
ATOM      3  O   UNL     1      23.503   1.979  20.730  0.00  0.00    -0.380 OA
ATOM     27  C   UNL     1      24.313   1.055  21.441  0.00  0.00    +0.194 C 
ENDBRANCH  26   3
ENDBRANCH  25  26
ENDBRANCH   2  25
ENDBRANCH  24   2
ENDBRANCH  17  20
BRANCH  15  10
ATOM      4  N   UNL     1      12.660   8.133  18.620  0.00  0.00    -0.284 NA
ATOM     10  C   UNL     1      13.832   7.430  18.060  0.00  0.00    +0.146 C 
ATOM     11  C   UNL     1      14.127   8.157  16.734  0.00  0.00    +0.030 C 
ATOM     12  C   UNL     1      13.035   9.209  16.605  0.00  0.00    +0.017 C 
ATOM     13  C   UNL     1      11.919   8.674  17.480  0.00  0.00    +0.085 C 
BRANCH   4  14
ATOM     14  C   UNL     1      11.828   7.282  19.461  0.00  0.00    +0.159 C 
BRANCH  14  16
ATOM      6  N   UNL     1      12.162   9.068  21.186  0.00  0.00    -0.347 N 
ATOM      7  N   UNL     1      10.635   7.530  21.671  0.00  0.00    -0.239 NA
ATOM     16  C   UNL     1      11.515   7.934  20.782  0.00  0.00    +0.121 A 
ATOM     18  C   UNL     1      11.662   9.409  22.412  0.00  0.00    +0.104 A 
ATOM     19  C   UNL     1      10.722   8.446  22.689  0.00  0.00    +0.130 A 
ATOM     28  H   UNL     1      12.880   9.563  20.675  0.00  0.00    +0.167 HD
ENDBRANCH  14  16
ENDBRANCH   4  14
ENDBRANCH  15  10
TORSDOF 8
ENDMDL
MODEL 2
REMARK VINA RESULT:      -6.1      1.601      2.267
REMARK  Name = 45783569
REMARK  9 active torsions:
REMARK  status: ('A' for Active; 'I' for Inactive)
REMARK    1  A    between atoms: O_2  and  C_24
REMARK    2  A    between atoms: O_2  and  C_25
REMARK    3  A    between atoms: O_3  and  C_26
REMARK    4  A    between atoms: O_3  and  C_27
REMARK    5  A    between atoms: N_4  and  C_14
REMARK    6  A    between atoms: C_10  and  C_15
REMARK    7  A    between atoms: C_14  and  C_16
REMARK    8  A    between atoms: C_17  and  C_20
REMARK    9  A    between atoms: C_25  and  C_26
REMARK                            x       y       z     vdW  Elec       q    Type
REMARK                         _______ _______ _______ _____ _____    ______ ____
ROOT
ATOM      1  O   UNL     1      14.852   8.779  20.369  0.00  0.00    -0.336 OA
ATOM      5  N   UNL     1      15.431   6.646  20.010  0.00  0.00    -0.190 NA
ATOM      8  N   UNL     1      16.222   8.695  20.650  0.00  0.00    -0.056 NA
ATOM     15  C   UNL     1      14.466   7.530  20.000  0.00  0.00    +0.245 A 
ATOM     17  C   UNL     1      16.490   7.407  20.415  0.00  0.00    +0.204 A 
ENDROOT
BRANCH  17  20
ATOM      9  N   UNL     1      19.943   6.898  21.697  0.00  0.00    -0.221 NA
ATOM     20  C   UNL     1      17.800   6.849  20.577  0.00  0.00    +0.041 A 
ATOM     21  C   UNL     1      18.214   5.762  19.816  0.00  0.00    +0.018 A 
ATOM     22  C   UNL     1      18.694   7.376  21.495  0.00  0.00    +0.126 A 
ATOM     23  C   UNL     1      19.493   5.242  19.994  0.00  0.00    +0.068 A 
ATOM     24  C   UNL     1      20.311   5.841  20.938  0.00  0.00    +0.215 A 
BRANCH  24   2
ATOM      2  O   UNL     1      21.574   5.347  21.132  0.00  0.00    -0.474 OA
BRANCH   2  25
ATOM     25  C   UNL     1      21.675   4.090  21.791  0.00  0.00    +0.258 C 
BRANCH  25  26
ATOM     26  C   UNL     1      22.735   4.181  22.871  0.00  0.00    +0.200 C 
BRANCH  26   3
ATOM      3  O   UNL     1      22.105   4.460  24.116  0.00  0.00    -0.380 OA
ATOM     27  C   UNL     1      22.563   5.685  24.669  0.00  0.00    +0.194 C 
ENDBRANCH  26   3
ENDBRANCH  25  26
ENDBRANCH   2  25
ENDBRANCH  24   2
ENDBRANCH  17  20
BRANCH  15  10
ATOM      4  N   UNL     1      12.150   8.421  20.193  0.00  0.00    -0.284 NA
ATOM     10  C   UNL     1      13.006   7.354  19.638  0.00  0.00    +0.146 C 
ATOM     11  C   UNL     1      12.760   7.406  18.119  0.00  0.00    +0.030 C 
ATOM     12  C   UNL     1      11.708   8.488  17.923  0.00  0.00    +0.017 C 
ATOM     13  C   UNL     1      11.023   8.568  19.272  0.00  0.00    +0.085 C 
BRANCH   4  14
ATOM     14  C   UNL     1      11.712   8.155  21.558  0.00  0.00    +0.159 C 
BRANCH  14  16
ATOM      6  N   UNL     1      12.885  10.047  22.707  0.00  0.00    -0.347 N 
ATOM      7  N   UNL     1      10.676  10.002  22.929  0.00  0.00    -0.239 NA
ATOM     16  C   UNL     1      11.720   9.402  22.402  0.00  0.00    +0.121 A 
ATOM     18  C   UNL     1      12.564  11.129  23.478  0.00  0.00    +0.104 A 
ATOM     19  C   UNL     1      11.196  11.080  23.601  0.00  0.00    +0.130 A 
ATOM     28  H   UNL     1      13.815   9.774  22.419  0.00  0.00    +0.167 HD
ENDBRANCH  14  16
ENDBRANCH   4  14
ENDBRANCH  15  10
TORSDOF 8
ENDMDL
MODEL 3
REMARK VINA RESULT:      -5.8      2.895      9.232
REMARK  Name = 45783569
REMARK  9 active torsions:
REMARK  status: ('A' for Active; 'I' for Inactive)
REMARK    1  A    between atoms: O_2  and  C_24
REMARK    2  A    between atoms: O_2  and  C_25
REMARK    3  A    between atoms: O_3  and  C_26
REMARK    4  A    between atoms: O_3  and  C_27
REMARK    5  A    between atoms: N_4  and  C_14
REMARK    6  A    between atoms: C_10  and  C_15
REMARK    7  A    between atoms: C_14  and  C_16
REMARK    8  A    between atoms: C_17  and  C_20
REMARK    9  A    between atoms: C_25  and  C_26
REMARK                            x       y       z     vdW  Elec       q    Type
REMARK                         _______ _______ _______ _____ _____    ______ ____
ROOT
ATOM      1  O   UNL     1      20.075   7.710  22.200  0.00  0.00    -0.336 OA
ATOM      5  N   UNL     1      19.003   6.116  21.049  0.00  0.00    -0.190 NA
ATOM      8  N   UNL     1      18.776   8.189  21.988  0.00  0.00    -0.056 NA
ATOM     15  C   UNL     1      20.124   6.485  21.615  0.00  0.00    +0.245 A 
ATOM     17  C   UNL     1      18.205   7.194  21.303  0.00  0.00    +0.204 A 
ENDROOT
BRANCH  17  20
ATOM      9  N   UNL     1      15.144   6.477  19.317  0.00  0.00    -0.221 NA
ATOM     20  C   UNL     1      16.843   7.244  20.858  0.00  0.00    +0.041 A 
ATOM     21  C   UNL     1      15.914   8.065  21.486  0.00  0.00    +0.018 A 
ATOM     22  C   UNL     1      16.412   6.476  19.787  0.00  0.00    +0.126 A 
ATOM     23  C   UNL     1      14.600   8.094  21.030  0.00  0.00    +0.068 A 
ATOM     24  C   UNL     1      14.269   7.288  19.952  0.00  0.00    +0.215 A 
BRANCH  24   2
ATOM      2  O   UNL     1      12.981   7.299  19.485  0.00  0.00    -0.474 OA
BRANCH   2  25
ATOM     25  C   UNL     1      12.320   8.558  19.460  0.00  0.00    +0.258 C 
BRANCH  25  26
ATOM     26  C   UNL     1      10.962   8.418  20.118  0.00  0.00    +0.200 C 
BRANCH  26   3
ATOM      3  O   UNL     1      10.956   9.159  21.332  0.00  0.00    -0.380 OA
ATOM     27  C   UNL     1      10.808   8.309  22.461  0.00  0.00    +0.194 C 
ENDBRANCH  26   3
ENDBRANCH  25  26
ENDBRANCH   2  25
ENDBRANCH  24   2
ENDBRANCH  17  20
BRANCH  15  10
ATOM      4  N   UNL     1      21.715   5.237  23.067  0.00  0.00    -0.284 NA
ATOM     10  C   UNL     1      21.442   5.745  21.707  0.00  0.00    +0.146 C 
ATOM     11  C   UNL     1      21.486   4.496  20.807  0.00  0.00    +0.030 C 
ATOM     12  C   UNL     1      21.851   3.348  21.737  0.00  0.00    +0.017 C 
ATOM     13  C   UNL     1      22.534   4.035  22.903  0.00  0.00    +0.085 C 
BRANCH   4  14
ATOM     14  C   UNL     1      22.354   6.222  23.930  0.00  0.00    +0.159 C 
BRANCH  14  16
ATOM      6  N   UNL     1      20.726   7.606  25.238  0.00  0.00    -0.347 N 
ATOM      7  N   UNL     1      21.482   5.784  26.257  0.00  0.00    -0.239 NA
ATOM     16  C   UNL     1      21.533   6.506  25.160  0.00  0.00    +0.121 A 
ATOM     18  C   UNL     1      20.121   7.585  26.463  0.00  0.00    +0.104 A 
ATOM     19  C   UNL     1      20.603   6.451  27.074  0.00  0.00    +0.130 A 
ATOM     28  H   UNL     1      20.600   8.310  24.522  0.00  0.00    +0.167 HD
ENDBRANCH  14  16
ENDBRANCH   4  14
ENDBRANCH  15  10
TORSDOF 8
ENDMDL
MODEL 4
REMARK VINA RESULT:      -5.8     28.407     31.565
REMARK  Name = 45783569
REMARK  9 active torsions:
REMARK  status: ('A' for Active; 'I' for Inactive)
REMARK    1  A    between atoms: O_2  and  C_24
REMARK    2  A    between atoms: O_2  and  C_25
REMARK    3  A    between atoms: O_3  and  C_26
REMARK    4  A    between atoms: O_3  and  C_27
REMARK    5  A    between atoms: N_4  and  C_14
REMARK    6  A    between atoms: C_10  and  C_15
REMARK    7  A    between atoms: C_14  and  C_16
REMARK    8  A    between atoms: C_17  and  C_20
REMARK    9  A    between atoms: C_25  and  C_26
REMARK                            x       y       z     vdW  Elec       q    Type
REMARK                         _______ _______ _______ _____ _____    ______ ____
ROOT
ATOM      1  O   UNL     1      -7.777 -11.031  16.420  0.00  0.00    -0.336 OA
ATOM      5  N   UNL     1      -7.861  -8.867  16.991  0.00  0.00    -0.190 NA
ATOM      8  N   UNL     1      -8.964 -10.529  15.871  0.00  0.00    -0.056 NA
ATOM     15  C   UNL     1      -7.189  -9.988  17.062  0.00  0.00    +0.245 A 
ATOM     17  C   UNL     1      -8.943  -9.248  16.250  0.00  0.00    +0.204 A 
ENDROOT
BRANCH  17  20
ATOM      9  N   UNL     1     -11.702  -7.630  14.353  0.00  0.00    -0.221 NA
ATOM     20  C   UNL     1      -9.984  -8.324  15.908  0.00  0.00    +0.041 A 
ATOM     21  C   UNL     1     -10.298  -7.258  16.743  0.00  0.00    +0.018 A 
ATOM     22  C   UNL     1     -10.709  -8.465  14.735  0.00  0.00    +0.126 A 
ATOM     23  C   UNL     1     -11.314  -6.377  16.384  0.00  0.00    +0.068 A 
ATOM     24  C   UNL     1     -11.979  -6.605  15.190  0.00  0.00    +0.215 A 
BRANCH  24   2
ATOM      2  O   UNL     1     -12.983  -5.751  14.815  0.00  0.00    -0.474 OA
BRANCH   2  25
ATOM     25  C   UNL     1     -13.048  -5.406  13.437  0.00  0.00    +0.258 C 
BRANCH  25  26
ATOM     26  C   UNL     1     -14.122  -4.355  13.240  0.00  0.00    +0.200 C 
BRANCH  26   3
ATOM      3  O   UNL     1     -13.531  -3.183  12.691  0.00  0.00    -0.380 OA
ATOM     27  C   UNL     1     -12.239  -3.449  12.165  0.00  0.00    +0.194 C 
ENDBRANCH  26   3
ENDBRANCH  25  26
ENDBRANCH   2  25
ENDBRANCH  24   2
ENDBRANCH  17  20
BRANCH  15  10
ATOM      4  N   UNL     1      -5.846 -11.597  18.405  0.00  0.00    -0.284 NA
ATOM     10  C   UNL     1      -5.870 -10.275  17.748  0.00  0.00    +0.146 C 
ATOM     11  C   UNL     1      -4.684 -10.304  16.767  0.00  0.00    +0.030 C 
ATOM     12  C   UNL     1      -4.018 -11.655  16.987  0.00  0.00    +0.017 C 
ATOM     13  C   UNL     1      -4.453 -12.043  18.387  0.00  0.00    +0.085 C 
BRANCH   4  14
ATOM     14  C   UNL     1      -6.398 -11.578  19.754  0.00  0.00    +0.159 C 
BRANCH  14  16
ATOM      6  N   UNL     1      -8.019 -13.488  19.694  0.00  0.00    -0.347 N 
ATOM      7  N   UNL     1      -8.913 -11.469  19.928  0.00  0.00    -0.239 NA
ATOM     16  C   UNL     1      -7.793 -12.144  19.797  0.00  0.00    +0.121 A 
ATOM     18  C   UNL     1      -9.370 -13.683  19.765  0.00  0.00    +0.104 A 
ATOM     19  C   UNL     1      -9.900 -12.422  19.910  0.00  0.00    +0.130 A 
ATOM     28  H   UNL     1      -7.317 -14.207  19.584  0.00  0.00    +0.167 HD
ENDBRANCH  14  16
ENDBRANCH   4  14
ENDBRANCH  15  10
TORSDOF 8
ENDMDL
MODEL 5
REMARK VINA RESULT:      -5.8     16.028     19.511
REMARK  Name = 45783569
REMARK  9 active torsions:
REMARK  status: ('A' for Active; 'I' for Inactive)
REMARK    1  A    between atoms: O_2  and  C_24
REMARK    2  A    between atoms: O_2  and  C_25
REMARK    3  A    between atoms: O_3  and  C_26
REMARK    4  A    between atoms: O_3  and  C_27
REMARK    5  A    between atoms: N_4  and  C_14
REMARK    6  A    between atoms: C_10  and  C_15
REMARK    7  A    between atoms: C_14  and  C_16
REMARK    8  A    between atoms: C_17  and  C_20
REMARK    9  A    between atoms: C_25  and  C_26
REMARK                            x       y       z     vdW  Elec       q    Type
REMARK                         _______ _______ _______ _____ _____    ______ ____
ROOT
ATOM      1  O   UNL     1      11.708   6.471   4.202  0.00  0.00    -0.336 OA
ATOM      5  N   UNL     1      10.593   4.681   3.451  0.00  0.00    -0.190 NA
ATOM      8  N   UNL     1      12.256   6.170   2.949  0.00  0.00    -0.056 NA
ATOM     15  C   UNL     1      10.737   5.548   4.421  0.00  0.00    +0.245 A 
ATOM     17  C   UNL     1      11.546   5.102   2.570  0.00  0.00    +0.204 A 
ENDROOT
BRANCH  17  20
ATOM      9  N   UNL     1      10.905   3.748  -0.834  0.00  0.00    -0.221 NA
ATOM     20  C   UNL     1      11.765   4.433   1.321  0.00  0.00    +0.041 A 
ATOM     21  C   UNL     1      12.986   3.835   1.032  0.00  0.00    +0.018 A 
ATOM     22  C   UNL     1      10.765   4.363   0.363  0.00  0.00    +0.126 A 
ATOM     23  C   UNL     1      13.168   3.192  -0.188  0.00  0.00    +0.068 A 
ATOM     24  C   UNL     1      12.106   3.177  -1.078  0.00  0.00    +0.215 A 
BRANCH  24   2
ATOM      2  O   UNL     1      12.261   2.550  -2.287  0.00  0.00    -0.474 OA
BRANCH   2  25
ATOM     25  C   UNL     1      12.864   3.309  -3.328  0.00  0.00    +0.258 C 
BRANCH  25  26
ATOM     26  C   UNL     1      12.047   3.149  -4.595  0.00  0.00    +0.200 C 
BRANCH  26   3
ATOM      3  O   UNL     1      10.722   3.608  -4.353  0.00  0.00    -0.380 OA
ATOM     27  C   UNL     1      10.661   5.027  -4.314  0.00  0.00    +0.194 C 
ENDBRANCH  26   3
ENDBRANCH  25  26
ENDBRANCH   2  25
ENDBRANCH  24   2
ENDBRANCH  17  20
BRANCH  15  10
ATOM      4  N   UNL     1      10.459   6.776   6.568  0.00  0.00    -0.284 NA
ATOM     10  C   UNL     1       9.981   5.659   5.729  0.00  0.00    +0.146 C 
ATOM     11  C   UNL     1       8.480   5.937   5.525  0.00  0.00    +0.030 C 
ATOM     12  C   UNL     1       8.194   7.193   6.336  0.00  0.00    +0.017 C 
ATOM     13  C   UNL     1       9.311   7.218   7.361  0.00  0.00    +0.085 C 
BRANCH   4  14
ATOM     14  C   UNL     1      11.598   6.419   7.405  0.00  0.00    +0.159 C 
BRANCH  14  16
ATOM      6  N   UNL     1      13.934   6.473   6.499  0.00  0.00    -0.347 N 
ATOM      7  N   UNL     1      13.058   8.443   7.031  0.00  0.00    -0.239 NA
ATOM     16  C   UNL     1      12.849   7.146   6.987  0.00  0.00    +0.121 A 
ATOM     18  C   UNL     1      14.897   7.399   6.214  0.00  0.00    +0.104 A 
ATOM     19  C   UNL     1      14.333   8.607   6.550  0.00  0.00    +0.130 A 
ATOM     28  H   UNL     1      14.012   5.472   6.374  0.00  0.00    +0.167 HD
ENDBRANCH  14  16
ENDBRANCH   4  14
ENDBRANCH  15  10
TORSDOF 8
ENDMDL
MODEL 6
REMARK VINA RESULT:      -5.7     27.202     29.208
REMARK  Name = 45783569
REMARK  9 active torsions:
REMARK  status: ('A' for Active; 'I' for Inactive)
REMARK    1  A    between atoms: O_2  and  C_24
REMARK    2  A    between atoms: O_2  and  C_25
REMARK    3  A    between atoms: O_3  and  C_26
REMARK    4  A    between atoms: O_3  and  C_27
REMARK    5  A    between atoms: N_4  and  C_14
REMARK    6  A    between atoms: C_10  and  C_15
REMARK    7  A    between atoms: C_14  and  C_16
REMARK    8  A    between atoms: C_17  and  C_20
REMARK    9  A    between atoms: C_25  and  C_26
REMARK                            x       y       z     vdW  Elec       q    Type
REMARK                         _______ _______ _______ _____ _____    ______ ____
ROOT
ATOM      1  O   UNL     1      -1.934 -11.255  12.810  0.00  0.00    -0.336 OA
ATOM      5  N   UNL     1      -4.006 -10.454  13.095  0.00  0.00    -0.190 NA
ATOM      8  N   UNL     1      -2.194 -11.327  14.184  0.00  0.00    -0.056 NA
ATOM     15  C   UNL     1      -3.051 -10.730  12.243  0.00  0.00    +0.245 A 
ATOM     17  C   UNL     1      -3.434 -10.837  14.274  0.00  0.00    +0.204 A 
ENDROOT
BRANCH  17  20
ATOM      9  N   UNL     1      -6.084  -9.970  16.734  0.00  0.00    -0.221 NA
ATOM     20  C   UNL     1      -4.128 -10.716  15.522  0.00  0.00    +0.041 A 
ATOM     21  C   UNL     1      -3.571 -11.195  16.702  0.00  0.00    +0.018 A 
ATOM     22  C   UNL     1      -5.376 -10.117  15.591  0.00  0.00    +0.126 A 
ATOM     23  C   UNL     1      -4.268 -11.062  17.898  0.00  0.00    +0.068 A 
ATOM     24  C   UNL     1      -5.510 -10.447  17.860  0.00  0.00    +0.215 A 
BRANCH  24   2
ATOM      2  O   UNL     1      -6.216 -10.305  19.026  0.00  0.00    -0.474 OA
BRANCH   2  25
ATOM     25  C   UNL     1      -6.478 -11.492  19.764  0.00  0.00    +0.258 C 
BRANCH  25  26
ATOM     26  C   UNL     1      -7.819 -12.055  19.336  0.00  0.00    +0.200 C 
BRANCH  26   3
ATOM      3  O   UNL     1      -8.853 -11.370  20.032  0.00  0.00    -0.380 OA
ATOM     27  C   UNL     1      -9.720 -10.688  19.137  0.00  0.00    +0.194 C 
ENDBRANCH  26   3
ENDBRANCH  25  26
ENDBRANCH   2  25
ENDBRANCH  24   2
ENDBRANCH  17  20
BRANCH  15  10
ATOM      4  N   UNL     1      -4.144 -11.234  10.064  0.00  0.00    -0.284 NA
ATOM     10  C   UNL     1      -3.024 -10.548  10.740  0.00  0.00    +0.146 C 
ATOM     11  C   UNL     1      -3.158  -9.073  10.317  0.00  0.00    +0.030 C 
ATOM     12  C   UNL     1      -4.339  -9.039   9.358  0.00  0.00    +0.017 C 
ATOM     13  C   UNL     1      -4.429 -10.465   8.853  0.00  0.00    +0.085 C 
BRANCH   4  14
ATOM     14  C   UNL     1      -3.866 -12.635   9.772  0.00  0.00    +0.159 C 
BRANCH  14  16
ATOM      6  N   UNL     1      -2.688 -14.085  11.442  0.00  0.00    -0.347 N 
ATOM      7  N   UNL     1      -4.843 -13.718  11.830  0.00  0.00    -0.239 NA
ATOM     16  C   UNL     1      -3.836 -13.473  11.022  0.00  0.00    +0.121 A 
ATOM     18  C   UNL     1      -2.982 -14.763  12.591  0.00  0.00    +0.104 A 
ATOM     19  C   UNL     1      -4.317 -14.522  12.811  0.00  0.00    +0.130 A 
ATOM     28  H   UNL     1      -1.787 -14.046  10.985  0.00  0.00    +0.167 HD
ENDBRANCH  14  16
ENDBRANCH   4  14
ENDBRANCH  15  10
TORSDOF 8
ENDMDL
MODEL 7
REMARK VINA RESULT:      -5.7     26.437     30.109
REMARK  Name = 45783569
REMARK  9 active torsions:
REMARK  status: ('A' for Active; 'I' for Inactive)
REMARK    1  A    between atoms: O_2  and  C_24
REMARK    2  A    between atoms: O_2  and  C_25
REMARK    3  A    between atoms: O_3  and  C_26
REMARK    4  A    between atoms: O_3  and  C_27
REMARK    5  A    between atoms: N_4  and  C_14
REMARK    6  A    between atoms: C_10  and  C_15
REMARK    7  A    between atoms: C_14  and  C_16
REMARK    8  A    between atoms: C_17  and  C_20
REMARK    9  A    between atoms: C_25  and  C_26
REMARK                            x       y       z     vdW  Elec       q    Type
REMARK                         _______ _______ _______ _____ _____    ______ ____
ROOT
ATOM      1  O   UNL     1      -4.116 -11.193  17.910  0.00  0.00    -0.336 OA
ATOM      5  N   UNL     1      -5.484 -10.553  16.258  0.00  0.00    -0.190 NA
ATOM      8  N   UNL     1      -5.337 -10.876  18.518  0.00  0.00    -0.056 NA
ATOM     15  C   UNL     1      -4.288 -10.975  16.581  0.00  0.00    +0.245 A 
ATOM     17  C   UNL     1      -6.093 -10.507  17.479  0.00  0.00    +0.204 A 
ENDROOT
BRANCH  17  20
ATOM      9  N   UNL     1      -9.591 -10.350  18.731  0.00  0.00    -0.221 NA
ATOM     20  C   UNL     1      -7.456 -10.087  17.625  0.00  0.00    +0.041 A 
ATOM     21  C   UNL     1      -7.975  -9.057  16.851  0.00  0.00    +0.018 A 
ATOM     22  C   UNL     1      -8.297 -10.697  18.543  0.00  0.00    +0.126 A 
ATOM     23  C   UNL     1      -9.302  -8.672  17.015  0.00  0.00    +0.068 A 
ATOM     24  C   UNL     1     -10.060  -9.345  17.960  0.00  0.00    +0.215 A 
BRANCH  24   2
ATOM      2  O   UNL     1     -11.370  -8.983  18.140  0.00  0.00    -0.474 OA
BRANCH   2  25
ATOM     25  C   UNL     1     -12.331 -10.032  18.124  0.00  0.00    +0.258 C 
BRANCH  25  26
ATOM     26  C   UNL     1     -13.317  -9.817  19.255  0.00  0.00    +0.200 C 
BRANCH  26   3
ATOM      3  O   UNL     1     -12.690 -10.154  20.487  0.00  0.00    -0.380 OA
ATOM     27  C   UNL     1     -12.518 -11.558  20.617  0.00  0.00    +0.194 C 
ENDBRANCH  26   3
ENDBRANCH  25  26
ENDBRANCH   2  25
ENDBRANCH  24   2
ENDBRANCH  17  20
BRANCH  15  10
ATOM      4  N   UNL     1      -3.156 -10.512  14.413  0.00  0.00    -0.284 NA
ATOM     10  C   UNL     1      -3.094 -11.250  15.691  0.00  0.00    +0.146 C 
ATOM     11  C   UNL     1      -1.763 -10.814  16.330  0.00  0.00    +0.030 C 
ATOM     12  C   UNL     1      -1.120  -9.881  15.314  0.00  0.00    +0.017 C 
ATOM     13  C   UNL     1      -1.771 -10.277  14.004  0.00  0.00    +0.085 C 
BRANCH   4  14
ATOM     14  C   UNL     1      -3.921 -11.207  13.385  0.00  0.00    +0.159 C 
BRANCH  14  16
ATOM      6  N   UNL     1      -6.007  -9.833  13.177  0.00  0.00    -0.347 N 
ATOM      7  N   UNL     1      -4.634  -9.775  11.433  0.00  0.00    -0.239 NA
ATOM     16  C   UNL     1      -4.831 -10.270  12.635  0.00  0.00    +0.121 A 
ATOM     18  C   UNL     1      -6.598  -9.007  12.263  0.00  0.00    +0.104 A 
ATOM     19  C   UNL     1      -5.732  -8.987  11.196  0.00  0.00    +0.130 A 
ATOM     28  H   UNL     1      -6.374 -10.078  14.087  0.00  0.00    +0.167 HD
ENDBRANCH  14  16
ENDBRANCH   4  14
ENDBRANCH  15  10
TORSDOF 8
ENDMDL
MODEL 8
REMARK VINA RESULT:      -5.7     28.055     31.760
REMARK  Name = 45783569
REMARK  9 active torsions:
REMARK  status: ('A' for Active; 'I' for Inactive)
REMARK    1  A    between atoms: O_2  and  C_24
REMARK    2  A    between atoms: O_2  and  C_25
REMARK    3  A    between atoms: O_3  and  C_26
REMARK    4  A    between atoms: O_3  and  C_27
REMARK    5  A    between atoms: N_4  and  C_14
REMARK    6  A    between atoms: C_10  and  C_15
REMARK    7  A    between atoms: C_14  and  C_16
REMARK    8  A    between atoms: C_17  and  C_20
REMARK    9  A    between atoms: C_25  and  C_26
REMARK                            x       y       z     vdW  Elec       q    Type
REMARK                         _______ _______ _______ _____ _____    ______ ____
ROOT
ATOM      1  O   UNL     1     -15.811   3.887  22.867  0.00  0.00    -0.336 OA
ATOM      5  N   UNL     1     -15.553   6.037  23.435  0.00  0.00    -0.190 NA
ATOM      8  N   UNL     1     -14.817   4.395  22.022  0.00  0.00    -0.056 NA
ATOM     15  C   UNL     1     -16.190   4.917  23.666  0.00  0.00    +0.245 A 
ATOM     17  C   UNL     1     -14.721   5.668  22.417  0.00  0.00    +0.204 A 
ENDROOT
BRANCH  17  20
ATOM      9  N   UNL     1     -13.277   8.879  21.220  0.00  0.00    -0.221 NA
ATOM     20  C   UNL     1     -13.807   6.597  21.818  0.00  0.00    +0.041 A 
ATOM     21  C   UNL     1     -12.606   6.165  21.267  0.00  0.00    +0.018 A 
ATOM     22  C   UNL     1     -14.093   7.952  21.770  0.00  0.00    +0.126 A 
ATOM     23  C   UNL     1     -11.740   7.089  20.691  0.00  0.00    +0.068 A 
ATOM     24  C   UNL     1     -12.119   8.422  20.693  0.00  0.00    +0.215 A 
BRANCH  24   2
ATOM      2  O   UNL     1     -11.282   9.352  20.133  0.00  0.00    -0.474 OA
BRANCH   2  25
ATOM     25  C   UNL     1     -11.687   9.909  18.888  0.00  0.00    +0.258 C 
BRANCH  25  26
ATOM     26  C   UNL     1     -10.462  10.399  18.143  0.00  0.00    +0.200 C 
BRANCH  26   3
ATOM      3  O   UNL     1      -9.715   9.276  17.689  0.00  0.00    -0.380 OA
ATOM     27  C   UNL     1     -10.480   8.459  16.816  0.00  0.00    +0.194 C 
ENDBRANCH  26   3
ENDBRANCH  25  26
ENDBRANCH   2  25
ENDBRANCH  24   2
ENDBRANCH  17  20
BRANCH  15  10
ATOM      4  N   UNL     1     -16.727   4.407  26.043  0.00  0.00    -0.284 NA
ATOM     10  C   UNL     1     -17.269   4.620  24.686  0.00  0.00    +0.146 C 
ATOM     11  C   UNL     1     -18.273   5.777  24.843  0.00  0.00    +0.030 C 
ATOM     12  C   UNL     1     -18.272   6.106  26.329  0.00  0.00    +0.017 C 
ATOM     13  C   UNL     1     -17.771   4.831  26.976  0.00  0.00    +0.085 C 
BRANCH   4  14
ATOM     14  C   UNL     1     -16.301   3.034  26.282  0.00  0.00    +0.159 C 
BRANCH  14  16
ATOM      6  N   UNL     1     -15.019   3.450  28.395  0.00  0.00    -0.347 N 
ATOM      7  N   UNL     1     -16.642   1.941  28.531  0.00  0.00    -0.239 NA
ATOM     16  C   UNL     1     -16.015   2.783  27.739  0.00  0.00    +0.121 A 
ATOM     18  C   UNL     1     -15.009   3.006  29.687  0.00  0.00    +0.104 A 
ATOM     19  C   UNL     1     -16.020   2.076  29.747  0.00  0.00    +0.130 A 
ATOM     28  H   UNL     1     -14.399   4.143  27.997  0.00  0.00    +0.167 HD
ENDBRANCH  14  16
ENDBRANCH   4  14
ENDBRANCH  15  10
TORSDOF 8
ENDMDL
MODEL 9
REMARK VINA RESULT:      -5.7     29.398     32.938
REMARK  Name = 45783569
REMARK  9 active torsions:
REMARK  status: ('A' for Active; 'I' for Inactive)
REMARK    1  A    between atoms: O_2  and  C_24
REMARK    2  A    between atoms: O_2  and  C_25
REMARK    3  A    between atoms: O_3  and  C_26
REMARK    4  A    between atoms: O_3  and  C_27
REMARK    5  A    between atoms: N_4  and  C_14
REMARK    6  A    between atoms: C_10  and  C_15
REMARK    7  A    between atoms: C_14  and  C_16
REMARK    8  A    between atoms: C_17  and  C_20
REMARK    9  A    between atoms: C_25  and  C_26
REMARK                            x       y       z     vdW  Elec       q    Type
REMARK                         _______ _______ _______ _____ _____    ______ ____
ROOT
ATOM      1  O   UNL     1     -16.649   2.954  22.604  0.00  0.00    -0.336 OA
ATOM      5  N   UNL     1     -16.831   4.348  24.347  0.00  0.00    -0.190 NA
ATOM      8  N   UNL     1     -16.504   2.163  23.751  0.00  0.00    -0.056 NA
ATOM     15  C   UNL     1     -16.837   4.225  23.044  0.00  0.00    +0.245 A 
ATOM     17  C   UNL     1     -16.624   3.056  24.738  0.00  0.00    +0.204 A 
ENDROOT
BRANCH  17  20
ATOM      9  N   UNL     1     -16.177   3.369  28.417  0.00  0.00    -0.221 NA
ATOM     20  C   UNL     1     -16.540   2.694  26.123  0.00  0.00    +0.041 A 
ATOM     21  C   UNL     1     -16.724   1.378  26.531  0.00  0.00    +0.018 A 
ATOM     22  C   UNL     1     -16.270   3.643  27.096  0.00  0.00    +0.126 A 
ATOM     23  C   UNL     1     -16.635   1.056  27.882  0.00  0.00    +0.068 A 
ATOM     24  C   UNL     1     -16.362   2.079  28.776  0.00  0.00    +0.215 A 
BRANCH  24   2
ATOM      2  O   UNL     1     -16.270   1.786  30.111  0.00  0.00    -0.474 OA
BRANCH   2  25
ATOM     25  C   UNL     1     -14.993   1.384  30.592  0.00  0.00    +0.258 C 
BRANCH  25  26
ATOM     26  C   UNL     1     -15.088  -0.033  31.122  0.00  0.00    +0.200 C 
BRANCH  26   3
ATOM      3  O   UNL     1     -14.851  -0.944  30.056  0.00  0.00    -0.380 OA
ATOM     27  C   UNL     1     -13.597  -0.704  29.433  0.00  0.00    +0.194 C 
ENDBRANCH  26   3
ENDBRANCH  25  26
ENDBRANCH   2  25
ENDBRANCH  24   2
ENDBRANCH  17  20
BRANCH  15  10
ATOM      4  N   UNL     1     -15.748   5.712  21.371  0.00  0.00    -0.284 NA
ATOM     10  C   UNL     1     -17.024   5.287  21.981  0.00  0.00    +0.146 C 
ATOM     11  C   UNL     1     -17.879   4.798  20.796  0.00  0.00    +0.030 C 
ATOM     12  C   UNL     1     -17.025   5.045  19.561  0.00  0.00    +0.017 C 
ATOM     13  C   UNL     1     -16.061   6.126  20.003  0.00  0.00    +0.085 C 
BRANCH   4  14
ATOM     14  C   UNL     1     -15.075   6.764  22.123  0.00  0.00    +0.159 C 
BRANCH  14  16
ATOM      6  N   UNL     1     -13.407   8.363  21.154  0.00  0.00    -0.347 N 
ATOM      7  N   UNL     1     -12.731   6.256  21.338  0.00  0.00    -0.239 NA
ATOM     16  C   UNL     1     -13.725   7.092  21.541  0.00  0.00    +0.121 A 
ATOM     18  C   UNL     1     -12.129   8.338  20.672  0.00  0.00    +0.104 A 
ATOM     19  C   UNL     1     -11.732   7.027  20.796  0.00  0.00    +0.130 A 
ATOM     28  H   UNL     1     -14.008   9.175  21.210  0.00  0.00    +0.167 HD
ENDBRANCH  14  16
ENDBRANCH   4  14
ENDBRANCH  15  10
TORSDOF 8
ENDMDL
MODEL 10
REMARK VINA RESULT:      -5.7     28.408     32.451
REMARK  Name = 45783569
REMARK  9 active torsions:
REMARK  status: ('A' for Active; 'I' for Inactive)
REMARK    1  A    between atoms: O_2  and  C_24
REMARK    2  A    between atoms: O_2  and  C_25
REMARK    3  A    between atoms: O_3  and  C_26
REMARK    4  A    between atoms: O_3  and  C_27
REMARK    5  A    between atoms: N_4  and  C_14
REMARK    6  A    between atoms: C_10  and  C_15
REMARK    7  A    between atoms: C_14  and  C_16
REMARK    8  A    between atoms: C_17  and  C_20
REMARK    9  A    between atoms: C_25  and  C_26
REMARK                            x       y       z     vdW  Elec       q    Type
REMARK                         _______ _______ _______ _____ _____    ______ ____
ROOT
ATOM      1  O   UNL     1     -16.671   2.191  23.965  0.00  0.00    -0.336 OA
ATOM      5  N   UNL     1     -15.395   3.897  24.655  0.00  0.00    -0.190 NA
ATOM      8  N   UNL     1     -16.309   2.899  22.811  0.00  0.00    -0.056 NA
ATOM     15  C   UNL     1     -16.091   2.845  25.005  0.00  0.00    +0.245 A 
ATOM     17  C   UNL     1     -15.558   3.890  23.300  0.00  0.00    +0.204 A 
ENDROOT
BRANCH  17  20
ATOM      9  N   UNL     1     -15.232   6.674  20.856  0.00  0.00    -0.221 NA
ATOM     20  C   UNL     1     -14.958   4.889  22.465  0.00  0.00    +0.041 A 
ATOM     21  C   UNL     1     -13.579   5.059  22.430  0.00  0.00    +0.018 A 
ATOM     22  C   UNL     1     -15.734   5.714  21.666  0.00  0.00    +0.126 A 
ATOM     23  C   UNL     1     -13.025   6.036  21.608  0.00  0.00    +0.068 A 
ATOM     24  C   UNL     1     -13.887   6.809  20.848  0.00  0.00    +0.215 A 
BRANCH  24   2
ATOM      2  O   UNL     1     -13.366   7.778  20.031  0.00  0.00    -0.474 OA
BRANCH   2  25
ATOM     25  C   UNL     1     -12.236   8.489  20.523  0.00  0.00    +0.258 C 
BRANCH  25  26
ATOM     26  C   UNL     1     -11.133   8.445  19.484  0.00  0.00    +0.200 C 
BRANCH  26   3
ATOM      3  O   UNL     1     -10.355   9.632  19.583  0.00  0.00    -0.380 OA
ATOM     27  C   UNL     1     -10.177  10.244  18.314  0.00  0.00    +0.194 C 
ENDBRANCH  26   3
ENDBRANCH  25  26
ENDBRANCH   2  25
ENDBRANCH  24   2
ENDBRANCH  17  20
BRANCH  15  10
ATOM      4  N   UNL     1     -17.329   3.038  27.155  0.00  0.00    -0.284 NA
ATOM     10  C   UNL     1     -16.333   2.268  26.384  0.00  0.00    +0.146 C 
ATOM     11  C   UNL     1     -16.895   0.835  26.339  0.00  0.00    +0.030 C 
ATOM     12  C   UNL     1     -18.174   0.884  27.162  0.00  0.00    +0.017 C 
ATOM     13  C   UNL     1     -17.975   2.087  28.061  0.00  0.00    +0.085 C 
BRANCH   4  14
ATOM     14  C   UNL     1     -16.753   4.170  27.869  0.00  0.00    +0.159 C 
BRANCH  14  16
ATOM      6  N   UNL     1     -14.662   3.349  28.980  0.00  0.00    -0.347 N 
ATOM      7  N   UNL     1     -16.409   3.657  30.316  0.00  0.00    -0.239 NA
ATOM     16  C   UNL     1     -15.971   3.731  29.079  0.00  0.00    +0.121 A 
ATOM     18  C   UNL     1     -14.238   3.010  30.234  0.00  0.00    +0.104 A 
ATOM     19  C   UNL     1     -15.333   3.209  31.041  0.00  0.00    +0.130 A 
ATOM     28  H   UNL     1     -14.109   3.319  28.134  0.00  0.00    +0.167 HD
ENDBRANCH  14  16
ENDBRANCH   4  14
ENDBRANCH  15  10
TORSDOF 8
ENDMDL
