MODEL 1
REMARK VINA RESULT:      -7.2      0.000      0.000
REMARK  Name = 11911777
REMARK  9 active torsions:
REMARK  status: ('A' for Active; 'I' for Inactive)
REMARK    1  A    between atoms: O_4  and  C_28
REMARK    2  A    between atoms: O_4  and  C_35
REMARK    3  A    between atoms: N_5  and  C_12
REMARK    4  A    between atoms: N_6  and  C_13
REMARK    5  A    between atoms: N_9  and  C_26
REMARK    6  A    between atoms: N_9  and  C_30
REMARK    7  A    between atoms: N_9  and  C_31
REMARK    8  A    between atoms: C_16  and  C_18
REMARK    9  A    between atoms: C_21  and  C_27
REMARK                            x       y       z     vdW  Elec       q    Type
REMARK                         _______ _______ _______ _____ _____    ______ ____
ROOT
ATOM      1  O   UNL     1      -5.553 -12.001  10.266  0.00  0.00    -0.370 OA
ATOM      2  O   UNL     1      -4.898  -8.950  10.239  0.00  0.00    -0.370 OA
ATOM     10  C   UNL     1      -4.324 -10.086   9.571  0.00  0.00    +0.171 C 
ATOM     11  C   UNL     1      -4.361 -11.247  10.545  0.00  0.00    +0.171 C 
ATOM     12  C   UNL     1      -5.214 -10.531   8.433  0.00  0.00    +0.130 C 
ATOM     13  C   UNL     1      -4.462 -10.590  11.901  0.00  0.00    +0.130 C 
ATOM     14  C   UNL     1      -6.225 -11.418   9.138  0.00  0.00    +0.185 C 
ATOM     15  C   UNL     1      -5.211  -9.306  11.593  0.00  0.00    +0.185 C 
ENDROOT
BRANCH  13   6
ATOM      6  N   UNL     1      -3.140 -10.289  12.405  0.00  0.00    -0.306 N 
ATOM      7  N   UNL     1      -3.726 -10.865  14.603  0.00  0.00    -0.214 NA
ATOM      8  N   UNL     1      -1.500 -10.110  14.074  0.00  0.00    -0.223 NA
ATOM     17  C   UNL     1      -2.778 -10.426  13.733  0.00  0.00    +0.216 A 
ATOM     21  C   UNL     1      -3.339 -10.987  15.890  0.00  0.00    +0.080 A 
ATOM     22  C   UNL     1      -1.181 -10.255  15.377  0.00  0.00    +0.116 A 
ATOM     23  C   UNL     1      -2.068 -10.694  16.338  0.00  0.00    +0.048 A 
ATOM     37  H   UNL     1      -2.412 -10.011  11.757  0.00  0.00    +0.149 HD
BRANCH  21  27
ATOM     27  C   UNL     1      -4.360 -11.457  16.795  0.00  0.00    +0.042 A 
ATOM     28  C   UNL     1      -4.836 -12.769  16.728  0.00  0.00    +0.129 A 
ATOM     29  C   UNL     1      -4.879 -10.582  17.754  0.00  0.00    +0.013 A 
ATOM     32  C   UNL     1      -5.823 -13.204  17.613  0.00  0.00    +0.046 A 
ATOM     33  C   UNL     1      -5.867 -11.017  18.639  0.00  0.00    +0.001 A 
ATOM     34  C   UNL     1      -6.339 -12.328  18.568  0.00  0.00    +0.004 A 
BRANCH  28   4
ATOM      4  O   UNL     1      -4.350 -13.648  15.805  0.00  0.00    -0.494 OA
ATOM     35  C   UNL     1      -5.293 -14.515  15.178  0.00  0.00    +0.277 C 
ENDBRANCH  28   4
ENDBRANCH  21  27
ENDBRANCH  13   6
BRANCH  12   5
ATOM      3  O   UNL     1      -5.854 -10.804   5.647  0.00  0.00    -0.270 OA
ATOM      5  N   UNL     1      -4.468 -11.273   7.446  0.00  0.00    -0.304 N 
ATOM     16  C   UNL     1      -4.857 -11.346   6.116  0.00  0.00    +0.244 C 
ATOM     36  H   UNL     1      -3.697 -11.841   7.785  0.00  0.00    +0.149 HD
BRANCH  16  18
ATOM     18  C   UNL     1      -3.996 -12.172   5.231  0.00  0.00    +0.037 A 
ATOM     19  C   UNL     1      -4.251 -12.182   3.875  0.00  0.00    +0.015 A 
ATOM     20  C   UNL     1      -2.969 -12.902   5.792  0.00  0.00    +0.015 A 
ATOM     24  C   UNL     1      -3.441 -12.956   3.043  0.00  0.00    +0.024 A 
ATOM     25  C   UNL     1      -2.160 -13.677   4.961  0.00  0.00    +0.024 A 
ATOM     26  C   UNL     1      -2.396 -13.704   3.586  0.00  0.00    +0.029 A 
BRANCH  26   9
ATOM      9  N   UNL     1      -1.579 -14.487   2.745  0.00  0.00    -0.336 N 
ATOM     30  C   UNL     1      -0.218 -14.802   3.131  0.00  0.00    +0.129 C 
ATOM     31  C   UNL     1      -2.085 -14.976   1.477  0.00  0.00    +0.129 C 
ENDBRANCH  26   9
ENDBRANCH  16  18
ENDBRANCH  12   5
TORSDOF 6
ENDMDL
MODEL 2
REMARK VINA RESULT:      -7.2      1.697      2.097
REMARK  Name = 11911777
REMARK  9 active torsions:
REMARK  status: ('A' for Active; 'I' for Inactive)
REMARK    1  A    between atoms: O_4  and  C_28
REMARK    2  A    between atoms: O_4  and  C_35
REMARK    3  A    between atoms: N_5  and  C_12
REMARK    4  A    between atoms: N_6  and  C_13
REMARK    5  A    between atoms: N_9  and  C_26
REMARK    6  A    between atoms: N_9  and  C_30
REMARK    7  A    between atoms: N_9  and  C_31
REMARK    8  A    between atoms: C_16  and  C_18
REMARK    9  A    between atoms: C_21  and  C_27
REMARK                            x       y       z     vdW  Elec       q    Type
REMARK                         _______ _______ _______ _____ _____    ______ ____
ROOT
ATOM      1  O   UNL     1      -6.632 -11.738  10.739  0.00  0.00    -0.370 OA
ATOM      2  O   UNL     1      -5.666  -8.774  10.859  0.00  0.00    -0.370 OA
ATOM     10  C   UNL     1      -5.341  -9.880  10.001  0.00  0.00    +0.171 C 
ATOM     11  C   UNL     1      -5.335 -11.129  10.861  0.00  0.00    +0.171 C 
ATOM     12  C   UNL     1      -6.457 -10.121   9.011  0.00  0.00    +0.130 C 
ATOM     13  C   UNL     1      -5.128 -10.611  12.265  0.00  0.00    +0.130 C 
ATOM     14  C   UNL     1      -7.421 -10.982   9.809  0.00  0.00    +0.185 C 
ATOM     15  C   UNL     1      -5.776  -9.240  12.212  0.00  0.00    +0.185 C 
ENDROOT
BRANCH  13   6
ATOM      6  N   UNL     1      -3.714 -10.487  12.543  0.00  0.00    -0.306 N 
ATOM      7  N   UNL     1      -4.040 -10.685  14.859  0.00  0.00    -0.214 NA
ATOM      8  N   UNL     1      -1.832 -10.396  13.941  0.00  0.00    -0.223 NA
ATOM     17  C   UNL     1      -3.180 -10.524  13.819  0.00  0.00    +0.216 A 
ATOM     21  C   UNL     1      -3.485 -10.717  16.088  0.00  0.00    +0.080 A 
ATOM     22  C   UNL     1      -1.343 -10.437  15.198  0.00  0.00    +0.116 A 
ATOM     23  C   UNL     1      -2.130 -10.597  16.320  0.00  0.00    +0.048 A 
ATOM     37  H   UNL     1      -3.060 -10.419  11.773  0.00  0.00    +0.149 HD
BRANCH  21  27
ATOM     27  C   UNL     1      -4.416 -10.890  17.177  0.00  0.00    +0.042 A 
ATOM     28  C   UNL     1      -5.684 -10.303  17.142  0.00  0.00    +0.129 A 
ATOM     29  C   UNL     1      -4.040 -11.659  18.282  0.00  0.00    +0.013 A 
ATOM     32  C   UNL     1      -6.570 -10.484  18.205  0.00  0.00    +0.046 A 
ATOM     33  C   UNL     1      -4.926 -11.839  19.345  0.00  0.00    +0.001 A 
ATOM     34  C   UNL     1      -6.191 -11.252  19.307  0.00  0.00    +0.004 A 
BRANCH  28   4
ATOM      4  O   UNL     1      -6.081  -9.548  16.079  0.00  0.00    -0.494 OA
ATOM     35  C   UNL     1      -7.424  -9.718  15.631  0.00  0.00    +0.277 C 
ENDBRANCH  28   4
ENDBRANCH  21  27
ENDBRANCH  13   6
BRANCH  12   5
ATOM      3  O   UNL     1      -6.610  -9.219   6.289  0.00  0.00    -0.270 OA
ATOM      5  N   UNL     1      -5.978 -10.819   7.843  0.00  0.00    -0.304 N 
ATOM     16  C   UNL     1      -6.096 -10.301   6.562  0.00  0.00    +0.244 C 
ATOM     36  H   UNL     1      -5.646 -11.770   7.981  0.00  0.00    +0.149 HD
BRANCH  16  18
ATOM     18  C   UNL     1      -5.576 -11.155   5.464  0.00  0.00    +0.037 A 
ATOM     19  C   UNL     1      -6.363 -11.359   4.349  0.00  0.00    +0.015 A 
ATOM     20  C   UNL     1      -4.323 -11.717   5.593  0.00  0.00    +0.015 A 
ATOM     24  C   UNL     1      -5.875 -12.160   3.317  0.00  0.00    +0.024 A 
ATOM     25  C   UNL     1      -3.835 -12.519   4.561  0.00  0.00    +0.024 A 
ATOM     26  C   UNL     1      -4.611 -12.741   3.423  0.00  0.00    +0.029 A 
BRANCH  26   9
ATOM      9  N   UNL     1      -4.118 -13.552   2.380  0.00  0.00    -0.336 N 
ATOM     30  C   UNL     1      -4.439 -13.248   1.000  0.00  0.00    +0.129 C 
ATOM     31  C   UNL     1      -3.294 -14.708   2.676  0.00  0.00    +0.129 C 
ENDBRANCH  26   9
ENDBRANCH  16  18
ENDBRANCH  12   5
TORSDOF 6
ENDMDL
MODEL 3
REMARK VINA RESULT:      -7.0     24.150     29.337
REMARK  Name = 11911777
REMARK  9 active torsions:
REMARK  status: ('A' for Active; 'I' for Inactive)
REMARK    1  A    between atoms: O_4  and  C_28
REMARK    2  A    between atoms: O_4  and  C_35
REMARK    3  A    between atoms: N_5  and  C_12
REMARK    4  A    between atoms: N_6  and  C_13
REMARK    5  A    between atoms: N_9  and  C_26
REMARK    6  A    between atoms: N_9  and  C_30
REMARK    7  A    between atoms: N_9  and  C_31
REMARK    8  A    between atoms: C_16  and  C_18
REMARK    9  A    between atoms: C_21  and  C_27
REMARK                            x       y       z     vdW  Elec       q    Type
REMARK                         _______ _______ _______ _____ _____    ______ ____
ROOT
ATOM      1  O   UNL     1     -13.320   3.775  31.658  0.00  0.00    -0.370 OA
ATOM      2  O   UNL     1     -15.864   3.771  33.463  0.00  0.00    -0.370 OA
ATOM     10  C   UNL     1     -15.657   3.973  32.056  0.00  0.00    +0.171 C 
ATOM     11  C   UNL     1     -14.358   4.740  31.898  0.00  0.00    +0.171 C 
ATOM     12  C   UNL     1     -15.391   2.654  31.369  0.00  0.00    +0.130 C 
ATOM     13  C   UNL     1     -14.156   5.405  33.238  0.00  0.00    +0.130 C 
ATOM     14  C   UNL     1     -13.901   2.464  31.593  0.00  0.00    +0.185 C 
ATOM     15  C   UNL     1     -14.824   4.436  34.195  0.00  0.00    +0.185 C 
ENDROOT
BRANCH  13   6
ATOM      6  N   UNL     1     -14.834   6.682  33.264  0.00  0.00    -0.306 N 
ATOM      7  N   UNL     1     -13.166   7.667  34.589  0.00  0.00    -0.214 NA
ATOM      8  N   UNL     1     -15.085   8.935  33.871  0.00  0.00    -0.223 NA
ATOM     17  C   UNL     1     -14.347   7.794  33.927  0.00  0.00    +0.216 A 
ATOM     21  C   UNL     1     -12.721   8.771  35.224  0.00  0.00    +0.080 A 
ATOM     22  C   UNL     1     -14.581  10.001  34.528  0.00  0.00    +0.116 A 
ATOM     23  C   UNL     1     -13.391   9.976  35.228  0.00  0.00    +0.048 A 
ATOM     37  H   UNL     1     -15.688   6.803  32.732  0.00  0.00    +0.149 HD
BRANCH  21  27
ATOM     27  C   UNL     1     -11.465   8.613  35.918  0.00  0.00    +0.042 A 
ATOM     28  C   UNL     1     -10.331   9.332  35.530  0.00  0.00    +0.129 A 
ATOM     29  C   UNL     1     -11.385   7.727  36.996  0.00  0.00    +0.013 A 
ATOM     32  C   UNL     1      -9.126   9.167  36.214  0.00  0.00    +0.046 A 
ATOM     33  C   UNL     1     -10.181   7.562  37.681  0.00  0.00    +0.001 A 
ATOM     34  C   UNL     1      -9.051   8.281  37.290  0.00  0.00    +0.004 A 
BRANCH  28   4
ATOM      4  O   UNL     1     -10.375  10.205  34.483  0.00  0.00    -0.494 OA
ATOM     35  C   UNL     1      -9.401  10.033  33.456  0.00  0.00    +0.277 C 
ENDBRANCH  28   4
ENDBRANCH  21  27
ENDBRANCH  13   6
BRANCH  12   5
ATOM      3  O   UNL     1     -16.227   0.483  29.684  0.00  0.00    -0.270 OA
ATOM      5  N   UNL     1     -15.704   2.725  29.962  0.00  0.00    -0.304 N 
ATOM     16  C   UNL     1     -16.101   1.616  29.229  0.00  0.00    +0.244 C 
ATOM     36  H   UNL     1     -15.510   3.605  29.494  0.00  0.00    +0.149 HD
BRANCH  16  18
ATOM     18  C   UNL     1     -16.360   1.850  27.785  0.00  0.00    +0.037 A 
ATOM     19  C   UNL     1     -16.012   3.066  27.235  0.00  0.00    +0.015 A 
ATOM     20  C   UNL     1     -16.942   0.845  27.040  0.00  0.00    +0.015 A 
ATOM     24  C   UNL     1     -16.254   3.286  25.878  0.00  0.00    +0.024 A 
ATOM     25  C   UNL     1     -17.185   1.065  25.685  0.00  0.00    +0.024 A 
ATOM     26  C   UNL     1     -16.841   2.286  25.103  0.00  0.00    +0.029 A 
BRANCH  26   9
ATOM      9  N   UNL     1     -17.086   2.508  23.733  0.00  0.00    -0.336 N 
ATOM     30  C   UNL     1     -17.887   1.572  22.969  0.00  0.00    +0.129 C 
ATOM     31  C   UNL     1     -16.529   3.669  23.066  0.00  0.00    +0.129 C 
ENDBRANCH  26   9
ENDBRANCH  16  18
ENDBRANCH  12   5
TORSDOF 6
ENDMDL
MODEL 4
REMARK VINA RESULT:      -7.0      5.166     10.808
REMARK  Name = 11911777
REMARK  9 active torsions:
REMARK  status: ('A' for Active; 'I' for Inactive)
REMARK    1  A    between atoms: O_4  and  C_28
REMARK    2  A    between atoms: O_4  and  C_35
REMARK    3  A    between atoms: N_5  and  C_12
REMARK    4  A    between atoms: N_6  and  C_13
REMARK    5  A    between atoms: N_9  and  C_26
REMARK    6  A    between atoms: N_9  and  C_30
REMARK    7  A    between atoms: N_9  and  C_31
REMARK    8  A    between atoms: C_16  and  C_18
REMARK    9  A    between atoms: C_21  and  C_27
REMARK                            x       y       z     vdW  Elec       q    Type
REMARK                         _______ _______ _______ _____ _____    ______ ____
ROOT
ATOM      1  O   UNL     1      -6.621 -12.813  16.996  0.00  0.00    -0.370 OA
ATOM      2  O   UNL     1      -5.267 -11.591  19.528  0.00  0.00    -0.370 OA
ATOM     10  C   UNL     1      -6.105 -11.041  18.497  0.00  0.00    +0.171 C 
ATOM     11  C   UNL     1      -5.717 -11.713  17.195  0.00  0.00    +0.171 C 
ATOM     12  C   UNL     1      -7.542 -11.457  18.712  0.00  0.00    +0.130 C 
ATOM     13  C   UNL     1      -4.317 -12.223  17.445  0.00  0.00    +0.130 C 
ATOM     14  C   UNL     1      -7.586 -12.827  18.059  0.00  0.00    +0.185 C 
ATOM     15  C   UNL     1      -4.325 -12.498  18.937  0.00  0.00    +0.185 C 
ENDROOT
BRANCH  13   6
ATOM      6  N   UNL     1      -3.352 -11.193  17.130  0.00  0.00    -0.306 N 
ATOM      7  N   UNL     1      -3.097 -11.952  14.924  0.00  0.00    -0.214 NA
ATOM      8  N   UNL     1      -1.861 -10.046  15.726  0.00  0.00    -0.223 NA
ATOM     17  C   UNL     1      -2.753 -11.060  15.890  0.00  0.00    +0.216 A 
ATOM     21  C   UNL     1      -2.494 -11.792  13.727  0.00  0.00    +0.080 A 
ATOM     22  C   UNL     1      -1.296  -9.944  14.506  0.00  0.00    +0.116 A 
ATOM     23  C   UNL     1      -1.578 -10.797  13.458  0.00  0.00    +0.048 A 
ATOM     37  H   UNL     1      -3.127 -10.492  17.826  0.00  0.00    +0.149 HD
BRANCH  21  27
ATOM     27  C   UNL     1      -2.875 -12.749  12.716  0.00  0.00    +0.042 A 
ATOM     28  C   UNL     1      -2.403 -14.064  12.752  0.00  0.00    +0.129 A 
ATOM     29  C   UNL     1      -3.731 -12.351  11.686  0.00  0.00    +0.013 A 
ATOM     32  C   UNL     1      -2.784 -14.974  11.766  0.00  0.00    +0.046 A 
ATOM     33  C   UNL     1      -4.112 -13.261  10.699  0.00  0.00    +0.001 A 
ATOM     34  C   UNL     1      -3.639 -14.572  10.739  0.00  0.00    +0.004 A 
BRANCH  28   4
ATOM      4  O   UNL     1      -1.566 -14.484  13.744  0.00  0.00    -0.494 OA
ATOM     35  C   UNL     1      -1.919 -15.689  14.420  0.00  0.00    +0.277 C 
ENDBRANCH  28   4
ENDBRANCH  21  27
ENDBRANCH  13   6
BRANCH  12   5
ATOM      3  O   UNL     1     -10.067 -10.544  19.731  0.00  0.00    -0.270 OA
ATOM      5  N   UNL     1      -8.453 -10.542  18.067  0.00  0.00    -0.304 N 
ATOM     16  C   UNL     1      -9.656 -10.157  18.641  0.00  0.00    +0.244 C 
ATOM     36  H   UNL     1      -8.232 -10.272  17.112  0.00  0.00    +0.149 HD
BRANCH  16  18
ATOM     18  C   UNL     1     -10.492  -9.229  17.837  0.00  0.00    +0.037 A 
ATOM     19  C   UNL     1      -9.895  -8.134  17.248  0.00  0.00    +0.015 A 
ATOM     20  C   UNL     1     -11.840  -9.492  17.706  0.00  0.00    +0.015 A 
ATOM     24  C   UNL     1     -10.680  -7.263  16.492  0.00  0.00    +0.024 A 
ATOM     25  C   UNL     1     -12.625  -8.620  16.951  0.00  0.00    +0.024 A 
ATOM     26  C   UNL     1     -12.046  -7.505  16.344  0.00  0.00    +0.029 A 
BRANCH  26   9
ATOM      9  N   UNL     1     -12.839  -6.625  15.581  0.00  0.00    -0.336 N 
ATOM     30  C   UNL     1     -14.284  -6.737  15.599  0.00  0.00    +0.129 C 
ATOM     31  C   UNL     1     -12.220  -5.605  14.758  0.00  0.00    +0.129 C 
ENDBRANCH  26   9
ENDBRANCH  16  18
ENDBRANCH  12   5
TORSDOF 6
ENDMDL
MODEL 5
REMARK VINA RESULT:      -6.9     23.095     27.033
REMARK  Name = 11911777
REMARK  9 active torsions:
REMARK  status: ('A' for Active; 'I' for Inactive)
REMARK    1  A    between atoms: O_4  and  C_28
REMARK    2  A    between atoms: O_4  and  C_35
REMARK    3  A    between atoms: N_5  and  C_12
REMARK    4  A    between atoms: N_6  and  C_13
REMARK    5  A    between atoms: N_9  and  C_26
REMARK    6  A    between atoms: N_9  and  C_30
REMARK    7  A    between atoms: N_9  and  C_31
REMARK    8  A    between atoms: C_16  and  C_18
REMARK    9  A    between atoms: C_21  and  C_27
REMARK                            x       y       z     vdW  Elec       q    Type
REMARK                         _______ _______ _______ _____ _____    ______ ____
ROOT
ATOM      1  O   UNL     1     -17.373   4.957  25.165  0.00  0.00    -0.370 OA
ATOM      2  O   UNL     1     -16.607   2.303  23.713  0.00  0.00    -0.370 OA
ATOM     10  C   UNL     1     -16.212   2.889  24.964  0.00  0.00    +0.171 C 
ATOM     11  C   UNL     1     -16.119   4.388  24.751  0.00  0.00    +0.171 C 
ATOM     12  C   UNL     1     -17.313   2.731  25.987  0.00  0.00    +0.130 C 
ATOM     13  C   UNL     1     -15.942   4.538  23.258  0.00  0.00    +0.130 C 
ATOM     14  C   UNL     1     -18.214   3.915  25.682  0.00  0.00    +0.185 C 
ATOM     15  C   UNL     1     -16.681   3.330  22.712  0.00  0.00    +0.185 C 
ENDROOT
BRANCH  13   6
ATOM      6  N   UNL     1     -14.539   4.464  22.916  0.00  0.00    -0.306 N 
ATOM      7  N   UNL     1     -14.586   6.533  21.809  0.00  0.00    -0.214 NA
ATOM      8  N   UNL     1     -12.551   5.252  21.950  0.00  0.00    -0.223 NA
ATOM     17  C   UNL     1     -13.873   5.446  22.204  0.00  0.00    +0.216 A 
ATOM     21  C   UNL     1     -13.905   7.470  21.117  0.00  0.00    +0.080 A 
ATOM     22  C   UNL     1     -11.931   6.228  21.254  0.00  0.00    +0.116 A 
ATOM     23  C   UNL     1     -12.565   7.370  20.808  0.00  0.00    +0.048 A 
ATOM     37  H   UNL     1     -13.986   3.684  23.250  0.00  0.00    +0.149 HD
BRANCH  21  27
ATOM     27  C   UNL     1     -14.682   8.616  20.709  0.00  0.00    +0.042 A 
ATOM     28  C   UNL     1     -14.798   9.739  21.532  0.00  0.00    +0.129 A 
ATOM     29  C   UNL     1     -15.328   8.598  19.469  0.00  0.00    +0.013 A 
ATOM     32  C   UNL     1     -15.553  10.838  21.119  0.00  0.00    +0.046 A 
ATOM     33  C   UNL     1     -16.083   9.696  19.056  0.00  0.00    +0.001 A 
ATOM     34  C   UNL     1     -16.195  10.816  19.881  0.00  0.00    +0.004 A 
BRANCH  28   4
ATOM      4  O   UNL     1     -14.180   9.789  22.747  0.00  0.00    -0.494 OA
ATOM     35  C   UNL     1     -12.970  10.539  22.827  0.00  0.00    +0.277 C 
ENDBRANCH  28   4
ENDBRANCH  21  27
ENDBRANCH  13   6
BRANCH  12   5
ATOM      3  O   UNL     1     -16.592   0.520  27.672  0.00  0.00    -0.270 OA
ATOM      5  N   UNL     1     -16.792   2.805  27.331  0.00  0.00    -0.304 N 
ATOM     16  C   UNL     1     -16.470   1.676  28.070  0.00  0.00    +0.244 C 
ATOM     36  H   UNL     1     -16.774   3.723  27.766  0.00  0.00    +0.149 HD
BRANCH  16  18
ATOM     18  C   UNL     1     -15.970   1.920  29.447  0.00  0.00    +0.037 A 
ATOM     19  C   UNL     1     -16.011   3.203  29.952  0.00  0.00    +0.015 A 
ATOM     20  C   UNL     1     -15.480   0.857  30.177  0.00  0.00    +0.015 A 
ATOM     24  C   UNL     1     -15.542   3.433  31.246  0.00  0.00    +0.024 A 
ATOM     25  C   UNL     1     -15.010   1.087  31.470  0.00  0.00    +0.024 A 
ATOM     26  C   UNL     1     -15.041   2.375  32.005  0.00  0.00    +0.029 A 
BRANCH  26   9
ATOM      9  N   UNL     1     -14.567   2.607  33.312  0.00  0.00    -0.336 N 
ATOM     30  C   UNL     1     -14.296   3.957  33.766  0.00  0.00    +0.129 C 
ATOM     31  C   UNL     1     -14.331   1.498  34.216  0.00  0.00    +0.129 C 
ENDBRANCH  26   9
ENDBRANCH  16  18
ENDBRANCH  12   5
TORSDOF 6
ENDMDL
MODEL 6
REMARK VINA RESULT:      -6.8      5.056     10.756
REMARK  Name = 11911777
REMARK  9 active torsions:
REMARK  status: ('A' for Active; 'I' for Inactive)
REMARK    1  A    between atoms: O_4  and  C_28
REMARK    2  A    between atoms: O_4  and  C_35
REMARK    3  A    between atoms: N_5  and  C_12
REMARK    4  A    between atoms: N_6  and  C_13
REMARK    5  A    between atoms: N_9  and  C_26
REMARK    6  A    between atoms: N_9  and  C_30
REMARK    7  A    between atoms: N_9  and  C_31
REMARK    8  A    between atoms: C_16  and  C_18
REMARK    9  A    between atoms: C_21  and  C_27
REMARK                            x       y       z     vdW  Elec       q    Type
REMARK                         _______ _______ _______ _____ _____    ______ ____
ROOT
ATOM      1  O   UNL     1      -7.389 -12.247  17.268  0.00  0.00    -0.370 OA
ATOM      2  O   UNL     1      -6.013 -10.752  19.636  0.00  0.00    -0.370 OA
ATOM     10  C   UNL     1      -6.776 -10.308  18.502  0.00  0.00    +0.171 C 
ATOM     11  C   UNL     1      -6.406 -11.199  17.333  0.00  0.00    +0.171 C 
ATOM     12  C   UNL     1      -8.246 -10.579  18.721  0.00  0.00    +0.130 C 
ATOM     13  C   UNL     1      -5.058 -11.766  17.711  0.00  0.00    +0.130 C 
ATOM     14  C   UNL     1      -8.380 -12.027  18.282  0.00  0.00    +0.185 C 
ATOM     15  C   UNL     1      -5.128 -11.806  19.227  0.00  0.00    +0.185 C 
ENDROOT
BRANCH  13   6
ATOM      6  N   UNL     1      -4.007 -10.871  17.282  0.00  0.00    -0.306 N 
ATOM      7  N   UNL     1      -3.416 -12.252  15.479  0.00  0.00    -0.214 NA
ATOM      8  N   UNL     1      -2.248 -10.186  15.888  0.00  0.00    -0.223 NA
ATOM     17  C   UNL     1      -3.200 -11.110  16.183  0.00  0.00    +0.216 A 
ATOM     21  C   UNL     1      -2.612 -12.453  14.414  0.00  0.00    +0.080 A 
ATOM     22  C   UNL     1      -1.479 -10.449  14.811  0.00  0.00    +0.116 A 
ATOM     23  C   UNL     1      -1.618 -11.578  14.029  0.00  0.00    +0.048 A 
ATOM     37  H   UNL     1      -3.871  -9.993  17.768  0.00  0.00    +0.149 HD
BRANCH  21  27
ATOM     27  C   UNL     1      -2.860 -13.671  13.680  0.00  0.00    +0.042 A 
ATOM     28  C   UNL     1      -3.561 -13.654  12.471  0.00  0.00    +0.129 A 
ATOM     29  C   UNL     1      -2.390 -14.885  14.189  0.00  0.00    +0.013 A 
ATOM     32  C   UNL     1      -3.790 -14.842  11.775  0.00  0.00    +0.046 A 
ATOM     33  C   UNL     1      -2.619 -16.073  13.494  0.00  0.00    +0.001 A 
ATOM     34  C   UNL     1      -3.318 -16.051  12.287  0.00  0.00    +0.004 A 
BRANCH  28   4
ATOM      4  O   UNL     1      -4.032 -12.487  11.946  0.00  0.00    -0.494 OA
ATOM     35  C   UNL     1      -3.653 -12.179  10.607  0.00  0.00    +0.277 C 
ENDBRANCH  28   4
ENDBRANCH  21  27
ENDBRANCH  13   6
BRANCH  12   5
ATOM      3  O   UNL     1     -10.952  -9.777  19.254  0.00  0.00    -0.270 OA
ATOM      5  N   UNL     1      -9.064  -9.709  17.910  0.00  0.00    -0.304 N 
ATOM     16  C   UNL     1     -10.367  -9.377  18.251  0.00  0.00    +0.244 C 
ATOM     36  H   UNL     1      -8.686  -9.435  17.008  0.00  0.00    +0.149 HD
BRANCH  16  18
ATOM     18  C   UNL     1     -11.084  -8.493  17.297  0.00  0.00    +0.037 A 
ATOM     19  C   UNL     1     -10.443  -7.368  16.821  0.00  0.00    +0.015 A 
ATOM     20  C   UNL     1     -12.369  -8.824  16.917  0.00  0.00    +0.015 A 
ATOM     24  C   UNL     1     -11.116  -6.537  15.924  0.00  0.00    +0.024 A 
ATOM     25  C   UNL     1     -13.041  -7.994  16.021  0.00  0.00    +0.024 A 
ATOM     26  C   UNL     1     -12.415  -6.849  15.524  0.00  0.00    +0.029 A 
BRANCH  26   9
ATOM      9  N   UNL     1     -13.095  -6.010  14.619  0.00  0.00    -0.336 N 
ATOM     30  C   UNL     1     -12.362  -5.063  13.803  0.00  0.00    +0.129 C 
ATOM     31  C   UNL     1     -14.539  -6.074  14.501  0.00  0.00    +0.129 C 
ENDBRANCH  26   9
ENDBRANCH  16  18
ENDBRANCH  12   5
TORSDOF 6
ENDMDL
MODEL 7
REMARK VINA RESULT:      -6.4     24.039     27.609
REMARK  Name = 11911777
REMARK  9 active torsions:
REMARK  status: ('A' for Active; 'I' for Inactive)
REMARK    1  A    between atoms: O_4  and  C_28
REMARK    2  A    between atoms: O_4  and  C_35
REMARK    3  A    between atoms: N_5  and  C_12
REMARK    4  A    between atoms: N_6  and  C_13
REMARK    5  A    between atoms: N_9  and  C_26
REMARK    6  A    between atoms: N_9  and  C_30
REMARK    7  A    between atoms: N_9  and  C_31
REMARK    8  A    between atoms: C_16  and  C_18
REMARK    9  A    between atoms: C_21  and  C_27
REMARK                            x       y       z     vdW  Elec       q    Type
REMARK                         _______ _______ _______ _____ _____    ______ ____
ROOT
ATOM      1  O   UNL     1       9.798   7.358   3.425  0.00  0.00    -0.370 OA
ATOM      2  O   UNL     1      10.556   4.699   4.870  0.00  0.00    -0.370 OA
ATOM     10  C   UNL     1      10.894   6.076   5.103  0.00  0.00    +0.171 C 
ATOM     11  C   UNL     1      11.053   6.737   3.748  0.00  0.00    +0.171 C 
ATOM     12  C   UNL     1       9.727   6.803   5.732  0.00  0.00    +0.130 C 
ATOM     13  C   UNL     1      11.327   5.587   2.806  0.00  0.00    +0.130 C 
ATOM     14  C   UNL     1       8.889   7.181   4.523  0.00  0.00    +0.185 C 
ATOM     15  C   UNL     1      10.581   4.438   3.459  0.00  0.00    +0.185 C 
ENDROOT
BRANCH  13   6
ATOM      6  N   UNL     1      12.745   5.306   2.768  0.00  0.00    -0.306 N 
ATOM      7  N   UNL     1      12.662   4.629   0.522  0.00  0.00    -0.214 NA
ATOM      8  N   UNL     1      14.739   4.613   1.742  0.00  0.00    -0.223 NA
ATOM     17  C   UNL     1      13.401   4.836   1.644  0.00  0.00    +0.216 A 
ATOM     21  C   UNL     1      13.333   4.170  -0.554  0.00  0.00    +0.080 A 
ATOM     22  C   UNL     1      15.348   4.155   0.629  0.00  0.00    +0.116 A 
ATOM     23  C   UNL     1      14.688   3.914  -0.560  0.00  0.00    +0.048 A 
ATOM     37  H   UNL     1      13.314   5.506   3.581  0.00  0.00    +0.149 HD
BRANCH  21  27
ATOM     27  C   UNL     1      12.529   3.960  -1.735  0.00  0.00    +0.042 A 
ATOM     28  C   UNL     1      12.299   4.995  -2.645  0.00  0.00    +0.129 A 
ATOM     29  C   UNL     1      11.974   2.698  -1.968  0.00  0.00    +0.013 A 
ATOM     32  C   UNL     1      11.519   4.771  -3.780  0.00  0.00    +0.046 A 
ATOM     33  C   UNL     1      11.194   2.474  -3.103  0.00  0.00    +0.001 A 
ATOM     34  C   UNL     1      10.967   3.510  -4.009  0.00  0.00    +0.004 A 
BRANCH  28   4
ATOM      4  O   UNL     1      12.826   6.237  -2.447  0.00  0.00    -0.494 OA
ATOM     35  C   UNL     1      11.920   7.273  -2.075  0.00  0.00    +0.277 C 
ENDBRANCH  28   4
ENDBRANCH  21  27
ENDBRANCH  13   6
BRANCH  12   5
ATOM      3  O   UNL     1       8.619   7.840   8.170  0.00  0.00    -0.270 OA
ATOM      5  N   UNL     1      10.167   7.975   6.449  0.00  0.00    -0.304 N 
ATOM     16  C   UNL     1       9.567   8.400   7.626  0.00  0.00    +0.244 C 
ATOM     36  H   UNL     1      10.870   8.553   5.997  0.00  0.00    +0.149 HD
BRANCH  16  18
ATOM     18  C   UNL     1      10.120   9.640   8.228  0.00  0.00    +0.037 A 
ATOM     19  C   UNL     1       9.340  10.355   9.112  0.00  0.00    +0.015 A 
ATOM     20  C   UNL     1      11.395  10.037   7.883  0.00  0.00    +0.015 A 
ATOM     24  C   UNL     1       9.860  11.520   9.679  0.00  0.00    +0.024 A 
ATOM     25  C   UNL     1      11.914  11.201   8.448  0.00  0.00    +0.024 A 
ATOM     26  C   UNL     1      11.147  11.944   9.347  0.00  0.00    +0.029 A 
BRANCH  26   9
ATOM      9  N   UNL     1      11.672  13.120   9.918  0.00  0.00    -0.336 N 
ATOM     30  C   UNL     1      10.787  14.117  10.490  0.00  0.00    +0.129 C 
ATOM     31  C   UNL     1      13.102  13.356   9.930  0.00  0.00    +0.129 C 
ENDBRANCH  26   9
ENDBRANCH  16  18
ENDBRANCH  12   5
TORSDOF 6
ENDMDL
MODEL 8
REMARK VINA RESULT:      -6.4     23.463     26.734
REMARK  Name = 11911777
REMARK  9 active torsions:
REMARK  status: ('A' for Active; 'I' for Inactive)
REMARK    1  A    between atoms: O_4  and  C_28
REMARK    2  A    between atoms: O_4  and  C_35
REMARK    3  A    between atoms: N_5  and  C_12
REMARK    4  A    between atoms: N_6  and  C_13
REMARK    5  A    between atoms: N_9  and  C_26
REMARK    6  A    between atoms: N_9  and  C_30
REMARK    7  A    between atoms: N_9  and  C_31
REMARK    8  A    between atoms: C_16  and  C_18
REMARK    9  A    between atoms: C_21  and  C_27
REMARK                            x       y       z     vdW  Elec       q    Type
REMARK                         _______ _______ _______ _____ _____    ______ ____
ROOT
ATOM      1  O   UNL     1     -16.550   6.631  23.875  0.00  0.00    -0.370 OA
ATOM      2  O   UNL     1     -16.456   4.540  21.560  0.00  0.00    -0.370 OA
ATOM     10  C   UNL     1     -15.925   4.554  22.896  0.00  0.00    +0.171 C 
ATOM     11  C   UNL     1     -15.474   5.972  23.186  0.00  0.00    +0.171 C 
ATOM     12  C   UNL     1     -17.027   4.306  23.901  0.00  0.00    +0.130 C 
ATOM     13  C   UNL     1     -15.273   6.583  21.819  0.00  0.00    +0.130 C 
ATOM     14  C   UNL     1     -17.617   5.693  24.087  0.00  0.00    +0.185 C 
ATOM     15  C   UNL     1     -16.284   5.836  20.970  0.00  0.00    +0.185 C 
ENDROOT
BRANCH  13   6
ATOM      6  N   UNL     1     -13.931   6.316  21.351  0.00  0.00    -0.306 N 
ATOM      7  N   UNL     1     -13.514   8.584  20.915  0.00  0.00    -0.214 NA
ATOM      8  N   UNL     1     -11.830   6.914  20.493  0.00  0.00    -0.223 NA
ATOM     17  C   UNL     1     -13.066   7.301  20.907  0.00  0.00    +0.216 A 
ATOM     21  C   UNL     1     -12.645   9.519  20.476  0.00  0.00    +0.080 A 
ATOM     22  C   UNL     1     -11.012   7.899  20.067  0.00  0.00    +0.116 A 
ATOM     23  C   UNL     1     -11.369   9.232  20.036  0.00  0.00    +0.048 A 
ATOM     37  H   UNL     1     -13.568   5.371  21.389  0.00  0.00    +0.149 HD
BRANCH  21  27
ATOM     27  C   UNL     1     -13.141  10.874  20.494  0.00  0.00    +0.042 A 
ATOM     28  C   UNL     1     -13.381  11.538  21.701  0.00  0.00    +0.129 A 
ATOM     29  C   UNL     1     -13.383  11.530  19.285  0.00  0.00    +0.013 A 
ATOM     32  C   UNL     1     -13.860  12.848  21.697  0.00  0.00    +0.046 A 
ATOM     33  C   UNL     1     -13.861  12.841  19.281  0.00  0.00    +0.001 A 
ATOM     34  C   UNL     1     -14.100  13.500  20.487  0.00  0.00    +0.004 A 
BRANCH  28   4
ATOM      4  O   UNL     1     -13.155  10.926  22.898  0.00  0.00    -0.494 OA
ATOM     35  C   UNL     1     -12.074  11.422  23.684  0.00  0.00    +0.277 C 
ENDBRANCH  28   4
ENDBRANCH  21  27
ENDBRANCH  13   6
BRANCH  12   5
ATOM      3  O   UNL     1     -18.398   2.636  25.793  0.00  0.00    -0.270 OA
ATOM      5  N   UNL     1     -16.497   3.793  25.141  0.00  0.00    -0.304 N 
ATOM     16  C   UNL     1     -17.239   2.988  25.994  0.00  0.00    +0.244 C 
ATOM     36  H   UNL     1     -15.586   4.138  25.428  0.00  0.00    +0.149 HD
BRANCH  16  18
ATOM     18  C   UNL     1     -16.558   2.564  27.244  0.00  0.00    +0.037 A 
ATOM     19  C   UNL     1     -15.899   3.513  27.998  0.00  0.00    +0.015 A 
ATOM     20  C   UNL     1     -16.606   1.235  27.611  0.00  0.00    +0.015 A 
ATOM     24  C   UNL     1     -15.260   3.115  29.173  0.00  0.00    +0.024 A 
ATOM     25  C   UNL     1     -15.967   0.837  28.785  0.00  0.00    +0.024 A 
ATOM     26  C   UNL     1     -15.293   1.777  29.567  0.00  0.00    +0.029 A 
BRANCH  26   9
ATOM      9  N   UNL     1     -14.648   1.374  30.753  0.00  0.00    -0.336 N 
ATOM     30  C   UNL     1     -13.698   2.253  31.406  0.00  0.00    +0.129 C 
ATOM     31  C   UNL     1     -14.915   0.070  31.328  0.00  0.00    +0.129 C 
ENDBRANCH  26   9
ENDBRANCH  16  18
ENDBRANCH  12   5
TORSDOF 6
ENDMDL
MODEL 9
REMARK VINA RESULT:      -6.3     26.698     31.270
REMARK  Name = 11911777
REMARK  9 active torsions:
REMARK  status: ('A' for Active; 'I' for Inactive)
REMARK    1  A    between atoms: O_4  and  C_28
REMARK    2  A    between atoms: O_4  and  C_35
REMARK    3  A    between atoms: N_5  and  C_12
REMARK    4  A    between atoms: N_6  and  C_13
REMARK    5  A    between atoms: N_9  and  C_26
REMARK    6  A    between atoms: N_9  and  C_30
REMARK    7  A    between atoms: N_9  and  C_31
REMARK    8  A    between atoms: C_16  and  C_18
REMARK    9  A    between atoms: C_21  and  C_27
REMARK                            x       y       z     vdW  Elec       q    Type
REMARK                         _______ _______ _______ _____ _____    ______ ____
ROOT
ATOM      1  O   UNL     1      21.462  -2.057  26.714  0.00  0.00    -0.370 OA
ATOM      2  O   UNL     1      24.129  -3.671  26.848  0.00  0.00    -0.370 OA
ATOM     10  C   UNL     1      23.583  -2.750  25.889  0.00  0.00    +0.171 C 
ATOM     11  C   UNL     1      22.089  -2.998  25.826  0.00  0.00    +0.171 C 
ATOM     12  C   UNL     1      23.699  -1.332  26.398  0.00  0.00    +0.130 C 
ATOM     13  C   UNL     1      21.925  -4.405  26.352  0.00  0.00    +0.130 C 
ATOM     14  C   UNL     1      22.466  -1.198  27.274  0.00  0.00    +0.185 C 
ATOM     15  C   UNL     1      23.085  -4.534  27.322  0.00  0.00    +0.185 C 
ENDROOT
BRANCH  13   6
ATOM      6  N   UNL     1      22.066  -5.357  25.273  0.00  0.00    -0.306 N 
ATOM      7  N   UNL     1      20.120  -4.599  24.203  0.00  0.00    -0.214 NA
ATOM      8  N   UNL     1      21.429  -6.391  23.265  0.00  0.00    -0.223 NA
ATOM     17  C   UNL     1      21.179  -5.451  24.216  0.00  0.00    +0.216 A 
ATOM     21  C   UNL     1      19.275  -4.719  23.158  0.00  0.00    +0.080 A 
ATOM     22  C   UNL     1      20.545  -6.456  22.248  0.00  0.00    +0.116 A 
ATOM     23  C   UNL     1      19.439  -5.637  22.141  0.00  0.00    +0.048 A 
ATOM     37  H   UNL     1      22.879  -5.960  25.245  0.00  0.00    +0.149 HD
BRANCH  21  27
ATOM     27  C   UNL     1      18.159  -3.804  23.163  0.00  0.00    +0.042 A 
ATOM     28  C   UNL     1      17.014  -4.067  23.921  0.00  0.00    +0.129 A 
ATOM     29  C   UNL     1      18.227  -2.637  22.398  0.00  0.00    +0.013 A 
ATOM     32  C   UNL     1      15.946  -3.169  23.914  0.00  0.00    +0.046 A 
ATOM     33  C   UNL     1      17.159  -1.739  22.390  0.00  0.00    +0.001 A 
ATOM     34  C   UNL     1      16.018  -2.005  23.149  0.00  0.00    +0.004 A 
BRANCH  28   4
ATOM      4  O   UNL     1      16.916  -5.196  24.679  0.00  0.00    -0.494 OA
ATOM     35  C   UNL     1      17.071  -5.045  26.089  0.00  0.00    +0.277 C 
ENDBRANCH  28   4
ENDBRANCH  21  27
ENDBRANCH  13   6
BRANCH  12   5
ATOM      3  O   UNL     1      25.854  -0.722  24.600  0.00  0.00    -0.270 OA
ATOM      5  N   UNL     1      23.674  -0.383  25.311  0.00  0.00    -0.304 N 
ATOM     16  C   UNL     1      24.770  -0.156  24.492  0.00  0.00    +0.244 C 
ATOM     36  H   UNL     1      22.848   0.205  25.235  0.00  0.00    +0.149 HD
BRANCH  16  18
ATOM     18  C   UNL     1      24.590   0.872  23.435  0.00  0.00    +0.037 A 
ATOM     19  C   UNL     1      25.281   0.735  22.249  0.00  0.00    +0.015 A 
ATOM     20  C   UNL     1      23.739   1.931  23.673  0.00  0.00    +0.015 A 
ATOM     24  C   UNL     1      25.112   1.700  21.255  0.00  0.00    +0.024 A 
ATOM     25  C   UNL     1      23.570   2.896  22.680  0.00  0.00    +0.024 A 
ATOM     26  C   UNL     1      24.257   2.781  21.471  0.00  0.00    +0.029 A 
BRANCH  26   9
ATOM      9  N   UNL     1      24.087   3.757  20.467  0.00  0.00    -0.336 N 
ATOM     30  C   UNL     1      22.993   4.704  20.543  0.00  0.00    +0.129 C 
ATOM     31  C   UNL     1      24.996   3.816  19.339  0.00  0.00    +0.129 C 
ENDBRANCH  26   9
ENDBRANCH  16  18
ENDBRANCH  12   5
TORSDOF 6
ENDMDL
MODEL 10
REMARK VINA RESULT:      -6.3     22.616     24.863
REMARK  Name = 11911777
REMARK  9 active torsions:
REMARK  status: ('A' for Active; 'I' for Inactive)
REMARK    1  A    between atoms: O_4  and  C_28
REMARK    2  A    between atoms: O_4  and  C_35
REMARK    3  A    between atoms: N_5  and  C_12
REMARK    4  A    between atoms: N_6  and  C_13
REMARK    5  A    between atoms: N_9  and  C_26
REMARK    6  A    between atoms: N_9  and  C_30
REMARK    7  A    between atoms: N_9  and  C_31
REMARK    8  A    between atoms: C_16  and  C_18
REMARK    9  A    between atoms: C_21  and  C_27
REMARK                            x       y       z     vdW  Elec       q    Type
REMARK                         _______ _______ _______ _____ _____    ______ ____
ROOT
ATOM      1  O   UNL     1       3.905  10.679   3.328  0.00  0.00    -0.370 OA
ATOM      2  O   UNL     1       5.338  13.292   4.253  0.00  0.00    -0.370 OA
ATOM     10  C   UNL     1       5.396  11.927   4.699  0.00  0.00    +0.171 C 
ATOM     11  C   UNL     1       3.995  11.358   4.592  0.00  0.00    +0.171 C 
ATOM     12  C   UNL     1       6.206  11.094   3.733  0.00  0.00    +0.130 C 
ATOM     13  C   UNL     1       3.100  12.575   4.599  0.00  0.00    +0.130 C 
ATOM     14  C   UNL     1       5.180  10.735   2.672  0.00  0.00    +0.185 C 
ATOM     15  C   UNL     1       3.976  13.635   3.958  0.00  0.00    +0.185 C 
ENDROOT
BRANCH  13   6
ATOM      6  N   UNL     1       2.780  12.946   5.960  0.00  0.00    -0.306 N 
ATOM      7  N   UNL     1       0.741  11.785   5.913  0.00  0.00    -0.214 NA
ATOM      8  N   UNL     1       1.442  12.974   7.888  0.00  0.00    -0.223 NA
ATOM     17  C   UNL     1       1.620  12.556   6.606  0.00  0.00    +0.216 A 
ATOM     21  C   UNL     1      -0.379  11.423   6.574  0.00  0.00    +0.080 A 
ATOM     22  C   UNL     1       0.301  12.576   8.488  0.00  0.00    +0.116 A 
ATOM     23  C   UNL     1      -0.654  11.792   7.874  0.00  0.00    +0.048 A 
ATOM     37  H   UNL     1       3.451  13.477   6.503  0.00  0.00    +0.149 HD
BRANCH  21  27
ATOM     27  C   UNL     1      -1.297  10.603   5.820  0.00  0.00    +0.042 A 
ATOM     28  C   UNL     1      -2.078  11.148   4.797  0.00  0.00    +0.129 A 
ATOM     29  C   UNL     1      -1.404   9.243   6.121  0.00  0.00    +0.013 A 
ATOM     32  C   UNL     1      -2.959  10.338   4.080  0.00  0.00    +0.046 A 
ATOM     33  C   UNL     1      -2.285   8.433   5.404  0.00  0.00    +0.001 A 
ATOM     34  C   UNL     1      -3.063   8.980   4.383  0.00  0.00    +0.004 A 
BRANCH  28   4
ATOM      4  O   UNL     1      -1.997  12.471   4.478  0.00  0.00    -0.494 OA
ATOM     35  C   UNL     1      -3.221  13.143   4.189  0.00  0.00    +0.277 C 
ENDBRANCH  28   4
ENDBRANCH  21  27
ENDBRANCH  13   6
BRANCH  12   5
ATOM      3  O   UNL     1       8.711  10.857   5.118  0.00  0.00    -0.270 OA
ATOM      5  N   UNL     1       6.729   9.911   4.374  0.00  0.00    -0.304 N 
ATOM     16  C   UNL     1       7.955   9.894   5.022  0.00  0.00    +0.244 C 
ATOM     36  H   UNL     1       6.212   9.048   4.236  0.00  0.00    +0.149 HD
BRANCH  16  18
ATOM     18  C   UNL     1       8.363   8.591   5.609  0.00  0.00    +0.037 A 
ATOM     19  C   UNL     1       8.829   8.562   6.907  0.00  0.00    +0.015 A 
ATOM     20  C   UNL     1       8.263   7.452   4.837  0.00  0.00    +0.015 A 
ATOM     24  C   UNL     1       9.211   7.339   7.459  0.00  0.00    +0.024 A 
ATOM     25  C   UNL     1       8.645   6.229   5.388  0.00  0.00    +0.024 A 
ATOM     26  C   UNL     1       9.120   6.172   6.699  0.00  0.00    +0.029 A 
BRANCH  26   9
ATOM      9  N   UNL     1       9.506   4.936   7.256  0.00  0.00    -0.336 N 
ATOM     30  C   UNL     1       9.787   3.801   6.400  0.00  0.00    +0.129 C 
ATOM     31  C   UNL     1       9.615   4.781   8.694  0.00  0.00    +0.129 C 
ENDBRANCH  26   9
ENDBRANCH  16  18
ENDBRANCH  12   5
TORSDOF 6
ENDMDL
