REMARK  Name = 71693234
REMARK  9 active torsions:
REMARK  status: ('A' for Active; 'I' for Inactive)
REMARK    1  A    between atoms: O_2  and  C_10
REMARK    2  A    between atoms: N_6  and  C_18
REMARK    3  A    between atoms: C_7  and  C_9
REMARK    4  A    between atoms: CA_8  and  C_10
REMARK    5  A    between atoms: C_11  and  C_16
REMARK    6  A    between atoms: C_11  and  C_17
REMARK    7  A    between atoms: C_11  and  C_19
REMARK    8  A    between atoms: C_16  and  C_22
REMARK    9  A    between atoms: C_17  and  C_23
REMARK                            x       y       z     vdW  Elec       q    Type
REMARK                         _______ _______ _______ _____ _____    ______ ____
ROOT
ATOM      9  C   UNL     1      -1.260  -0.299  -0.494  0.00  0.00    -0.017 A 
ATOM     14  C   UNL     1      -0.586  -0.218   0.725  0.00  0.00    +0.008 A 
ATOM     15  C   UNL     1      -0.541  -0.312  -1.689  0.00  0.00    +0.008 A 
ATOM     18  C   UNL     1       1.526  -0.165  -0.447  0.00  0.00    +0.033 A 
ATOM     20  C   UNL     1       0.807  -0.152   0.748  0.00  0.00    +0.023 A 
ATOM     21  C   UNL     1       0.852  -0.245  -1.666  0.00  0.00    +0.023 A 
ENDROOT
BRANCH   9   7
ATOM      1  O   UNL     1      -3.159  -1.583   0.139  0.00  0.00    -0.361 OA
ATOM      3  O   UNL     1      -6.651  -0.900   0.591  0.00  0.00    -0.273 OA
ATOM      5  N   UNL     1      -4.895   0.551   0.312  0.00  0.00    -0.306 N 
ATOM      7  C   UNL     1      -2.771  -0.372  -0.520  0.00  0.00    +0.171 C 
ATOM      8  CA  UNL     1      -3.459   0.795   0.206  0.00  0.00    +0.131 C 
ATOM     12  C   UNL     1      -4.537  -1.846  -0.029  0.00  0.00    +0.256 C 
ATOM     13  C   UNL     1      -5.462  -0.704   0.344  0.00  0.00    +0.239 C 
ATOM     24  H   UNL     1      -5.491   1.337   0.555  0.00  0.00    +0.149 HD
BRANCH   8  10
ATOM     10  C   UNL     1      -3.213   2.138  -0.478  0.00  0.00    +0.181 C 
BRANCH  10   2
ATOM      2  O   UNL     1      -3.890   3.144   0.251  0.00  0.00    -0.393 OA
ATOM     26  H   UNL     1      -3.724   3.988  -0.202  0.00  0.00    +0.209 HD
ENDBRANCH  10   2
ENDBRANCH   8  10
ENDBRANCH   9   7
BRANCH  18   6
ATOM      4  O   UNL     1       3.419   0.001   1.871  0.00  0.00    -0.275 OA
ATOM      6  N   UNL     1       2.939  -0.097  -0.423  0.00  0.00    -0.285 N 
ATOM     19  C   UNL     1       3.767  -0.014   0.694  0.00  0.00    +0.220 C 
ATOM     25  H   UNL     1       3.375  -0.108  -1.341  0.00  0.00    +0.155 HD
BRANCH  19  11
ATOM     11  C   UNL     1       5.249   0.040   0.292  0.00  0.00    +0.075 C 
BRANCH  11  16
ATOM     16  C   UNL     1       5.537   1.332  -0.499  0.00  0.00    +0.009 C 
ATOM     22  C   UNL     1       5.171   2.620   0.228  0.00  0.00    +0.004 C 
ENDBRANCH  11  16
BRANCH  11  17
ATOM     17  C   UNL     1       5.691  -1.217  -0.478  0.00  0.00    +0.009 C 
ATOM     23  C   UNL     1       5.466  -2.496   0.321  0.00  0.00    +0.004 C 
ENDBRANCH  11  17
ENDBRANCH  19  11
ENDBRANCH  18   6
TORSDOF 7
