MODEL 1
REMARK VINA RESULT:      -7.1      0.000      0.000
REMARK  Name = 26761888
REMARK  5 active torsions:
REMARK  status: ('A' for Active; 'I' for Inactive)
REMARK    1  A    between atoms: O_2  and  C_22
REMARK    2  A    between atoms: O_2  and  C_23
REMARK    3  A    between atoms: N_3  and  C_14
REMARK    4  A    between atoms: C_8  and  C_13
REMARK    5  A    between atoms: C_16  and  C_17
REMARK                            x       y       z     vdW  Elec       q    Type
REMARK                         _______ _______ _______ _____ _____    ______ ____
ROOT
ATOM      1  O   UNL     1      13.636   8.471  19.143  0.00  0.00    -0.336 OA
ATOM      6  N   UNL     1      14.775   8.188  21.049  0.00  0.00    -0.190 NA
ATOM      7  N   UNL     1      14.821   7.812  18.793  0.00  0.00    -0.056 NA
ATOM     13  C   UNL     1      13.689   8.655  20.487  0.00  0.00    +0.245 A 
ATOM     16  C   UNL     1      15.438   7.680  19.971  0.00  0.00    +0.202 A 
ENDROOT
BRANCH  13   8
ATOM      3  N   UNL     1      11.772   8.533  22.148  0.00  0.00    -0.288 NA
ATOM      4  N   UNL     1      10.192  11.504  23.806  0.00  0.00    -0.347 N 
ATOM      5  N   UNL     1      11.977  12.619  23.052  0.00  0.00    -0.240 NA
ATOM      8  C   UNL     1      12.498   9.362  21.125  0.00  0.00    +0.152 C 
ATOM      9  C   UNL     1      13.007  10.728  21.712  0.00  0.00    +0.085 C 
ATOM     10  C   UNL     1      10.571   9.231  22.692  0.00  0.00    +0.140 C 
ATOM     11  C   UNL     1      11.977  11.338  22.576  0.00  0.00    +0.065 A 
ATOM     12  C   UNL     1      10.895  10.632  23.030  0.00  0.00    +0.053 A 
ATOM     14  C   UNL     1      11.343   7.235  21.611  0.00  0.00    +0.106 C 
ATOM     15  C   UNL     1      10.885  12.688  23.788  0.00  0.00    +0.197 A 
ATOM     24  H   UNL     1       9.326  11.321  24.296  0.00  0.00    +0.167 HD
ENDBRANCH  13   8
BRANCH  16  17
ATOM     17  C   UNL     1      16.719   7.048  20.104  0.00  0.00    +0.023 A 
ATOM     18  C   UNL     1      17.081   6.015  19.239  0.00  0.00    +0.015 A 
ATOM     19  C   UNL     1      17.603   7.464  21.100  0.00  0.00    +0.015 A 
ATOM     20  C   UNL     1      18.326   5.399  19.370  0.00  0.00    +0.046 A 
ATOM     21  C   UNL     1      18.848   6.848  21.231  0.00  0.00    +0.046 A 
ATOM     22  C   UNL     1      19.209   5.815  20.366  0.00  0.00    +0.120 A 
BRANCH  22   2
ATOM      2  O   UNL     1      20.424   5.215  20.493  0.00  0.00    -0.495 OA
ATOM     23  C   UNL     1      21.571   6.064  20.490  0.00  0.00    +0.277 C 
ENDBRANCH  22   2
ENDBRANCH  16  17
TORSDOF 3
ENDMDL
MODEL 2
REMARK VINA RESULT:      -6.9      2.999      4.329
REMARK  Name = 26761888
REMARK  5 active torsions:
REMARK  status: ('A' for Active; 'I' for Inactive)
REMARK    1  A    between atoms: O_2  and  C_22
REMARK    2  A    between atoms: O_2  and  C_23
REMARK    3  A    between atoms: N_3  and  C_14
REMARK    4  A    between atoms: C_8  and  C_13
REMARK    5  A    between atoms: C_16  and  C_17
REMARK                            x       y       z     vdW  Elec       q    Type
REMARK                         _______ _______ _______ _____ _____    ______ ____
ROOT
ATOM      1  O   UNL     1      15.571   8.802  20.068  0.00  0.00    -0.336 OA
ATOM      6  N   UNL     1      16.141   6.712  19.504  0.00  0.00    -0.190 NA
ATOM      7  N   UNL     1      16.833   8.579  20.630  0.00  0.00    -0.056 NA
ATOM     13  C   UNL     1      15.236   7.655  19.423  0.00  0.00    +0.245 A 
ATOM     16  C   UNL     1      17.103   7.325  20.253  0.00  0.00    +0.202 A 
ENDROOT
BRANCH  13   8
ATOM      3  N   UNL     1      12.751   8.160  19.557  0.00  0.00    -0.288 NA
ATOM      4  N   UNL     1      10.559   8.886  16.601  0.00  0.00    -0.347 N 
ATOM      5  N   UNL     1      12.484   9.126  15.489  0.00  0.00    -0.240 NA
ATOM      8  C   UNL     1      13.885   7.640  18.717  0.00  0.00    +0.152 C 
ATOM      9  C   UNL     1      14.039   8.427  17.366  0.00  0.00    +0.085 C 
ATOM     10  C   UNL     1      11.438   8.059  18.858  0.00  0.00    +0.140 C 
ATOM     11  C   UNL     1      12.718   8.686  16.761  0.00  0.00    +0.065 A 
ATOM     12  C   UNL     1      11.553   8.539  17.466  0.00  0.00    +0.053 A 
ATOM     14  C   UNL     1      12.642   7.457  20.842  0.00  0.00    +0.106 C 
ATOM     15  C   UNL     1      11.171   9.234  15.423  0.00  0.00    +0.197 A 
ATOM     24  H   UNL     1       9.564   8.886  16.785  0.00  0.00    +0.167 HD
ENDBRANCH  13   8
BRANCH  16  17
ATOM     17  C   UNL     1      18.320   6.657  20.610  0.00  0.00    +0.023 A 
ATOM     18  C   UNL     1      19.067   7.103  21.699  0.00  0.00    +0.015 A 
ATOM     19  C   UNL     1      18.759   5.561  19.865  0.00  0.00    +0.015 A 
ATOM     20  C   UNL     1      20.253   6.454  22.045  0.00  0.00    +0.046 A 
ATOM     21  C   UNL     1      19.945   4.912  20.210  0.00  0.00    +0.046 A 
ATOM     22  C   UNL     1      20.692   5.359  21.300  0.00  0.00    +0.120 A 
BRANCH  22   2
ATOM      2  O   UNL     1      21.848   4.726  21.638  0.00  0.00    -0.495 OA
ATOM     23  C   UNL     1      21.934   3.331  21.345  0.00  0.00    +0.277 C 
ENDBRANCH  22   2
ENDBRANCH  16  17
TORSDOF 3
ENDMDL
MODEL 3
REMARK VINA RESULT:      -6.7      2.581      3.639
REMARK  Name = 26761888
REMARK  5 active torsions:
REMARK  status: ('A' for Active; 'I' for Inactive)
REMARK    1  A    between atoms: O_2  and  C_22
REMARK    2  A    between atoms: O_2  and  C_23
REMARK    3  A    between atoms: N_3  and  C_14
REMARK    4  A    between atoms: C_8  and  C_13
REMARK    5  A    between atoms: C_16  and  C_17
REMARK                            x       y       z     vdW  Elec       q    Type
REMARK                         _______ _______ _______ _____ _____    ______ ____
ROOT
ATOM      1  O   UNL     1      16.136   6.085  18.689  0.00  0.00    -0.336 OA
ATOM      6  N   UNL     1      16.968   7.106  20.499  0.00  0.00    -0.190 NA
ATOM      7  N   UNL     1      17.447   5.614  18.833  0.00  0.00    -0.056 NA
ATOM     13  C   UNL     1      15.935   6.958  19.709  0.00  0.00    +0.245 A 
ATOM     16  C   UNL     1      17.871   6.261  19.922  0.00  0.00    +0.202 A 
ENDROOT
BRANCH  13   8
ATOM      3  N   UNL     1      13.678   7.313  18.602  0.00  0.00    -0.288 NA
ATOM      4  N   UNL     1      10.519   8.190  20.425  0.00  0.00    -0.347 N 
ATOM      5  N   UNL     1      11.659   7.614  22.260  0.00  0.00    -0.240 NA
ATOM      8  C   UNL     1      14.563   7.619  19.778  0.00  0.00    +0.152 C 
ATOM      9  C   UNL     1      13.902   7.216  21.145  0.00  0.00    +0.085 C 
ATOM     10  C   UNL     1      12.376   8.037  18.670  0.00  0.00    +0.140 C 
ATOM     11  C   UNL     1      12.475   7.592  21.164  0.00  0.00    +0.065 A 
ATOM     12  C   UNL     1      11.796   7.936  20.024  0.00  0.00    +0.053 A 
ATOM     14  C   UNL     1      14.318   7.643  17.321  0.00  0.00    +0.106 C 
ATOM     15  C   UNL     1      10.487   7.982  21.781  0.00  0.00    +0.197 A 
ATOM     24  H   UNL     1       9.745   8.480  19.842  0.00  0.00    +0.167 HD
ENDBRANCH  13   8
BRANCH  16  17
ATOM     17  C   UNL     1      19.190   6.089  20.458  0.00  0.00    +0.023 A 
ATOM     18  C   UNL     1      19.937   4.960  20.123  0.00  0.00    +0.015 A 
ATOM     19  C   UNL     1      19.726   7.049  21.316  0.00  0.00    +0.015 A 
ATOM     20  C   UNL     1      21.219   4.790  20.646  0.00  0.00    +0.046 A 
ATOM     21  C   UNL     1      21.008   6.881  21.839  0.00  0.00    +0.046 A 
ATOM     22  C   UNL     1      21.755   5.751  21.504  0.00  0.00    +0.120 A 
BRANCH  22   2
ATOM      2  O   UNL     1      23.006   5.587  22.013  0.00  0.00    -0.495 OA
ATOM     23  C   UNL     1      24.060   6.327  21.398  0.00  0.00    +0.277 C 
ENDBRANCH  22   2
ENDBRANCH  16  17
TORSDOF 3
ENDMDL
MODEL 4
REMARK VINA RESULT:      -6.5      3.736      8.887
REMARK  Name = 26761888
REMARK  5 active torsions:
REMARK  status: ('A' for Active; 'I' for Inactive)
REMARK    1  A    between atoms: O_2  and  C_22
REMARK    2  A    between atoms: O_2  and  C_23
REMARK    3  A    between atoms: N_3  and  C_14
REMARK    4  A    between atoms: C_8  and  C_13
REMARK    5  A    between atoms: C_16  and  C_17
REMARK                            x       y       z     vdW  Elec       q    Type
REMARK                         _______ _______ _______ _____ _____    ______ ____
ROOT
ATOM      1  O   UNL     1      18.312   5.328  18.922  0.00  0.00    -0.336 OA
ATOM      6  N   UNL     1      17.419   6.711  20.439  0.00  0.00    -0.190 NA
ATOM      7  N   UNL     1      16.977   5.513  18.542  0.00  0.00    -0.056 NA
ATOM     13  C   UNL     1      18.489   6.066  20.048  0.00  0.00    +0.245 A 
ATOM     16  C   UNL     1      16.517   6.341  19.485  0.00  0.00    +0.202 A 
ENDROOT
BRANCH  13   8
ATOM      3  N   UNL     1      19.916   6.472  22.109  0.00  0.00    -0.288 NA
ATOM      4  N   UNL     1      23.184   4.771  22.811  0.00  0.00    -0.347 N 
ATOM      5  N   UNL     1      22.580   3.379  21.169  0.00  0.00    -0.240 NA
ATOM      8  C   UNL     1      19.880   6.034  20.670  0.00  0.00    +0.152 C 
ATOM      9  C   UNL     1      20.465   4.591  20.469  0.00  0.00    +0.085 C 
ATOM     10  C   UNL     1      21.302   6.498  22.658  0.00  0.00    +0.140 C 
ATOM     11  C   UNL     1      21.686   4.406  21.277  0.00  0.00    +0.065 A 
ATOM     12  C   UNL     1      22.031   5.270  22.283  0.00  0.00    +0.053 A 
ATOM     14  C   UNL     1      19.321   7.801  22.303  0.00  0.00    +0.106 C 
ATOM     15  C   UNL     1      23.474   3.630  22.106  0.00  0.00    +0.197 A 
ATOM     24  H   UNL     1      23.726   5.163  23.570  0.00  0.00    +0.167 HD
ENDBRANCH  13   8
BRANCH  16  17
ATOM     17  C   UNL     1      15.163   6.814  19.502  0.00  0.00    +0.023 A 
ATOM     18  C   UNL     1      14.610   7.388  18.359  0.00  0.00    +0.015 A 
ATOM     19  C   UNL     1      14.401   6.703  20.666  0.00  0.00    +0.015 A 
ATOM     20  C   UNL     1      13.294   7.851  18.377  0.00  0.00    +0.046 A 
ATOM     21  C   UNL     1      13.085   7.165  20.685  0.00  0.00    +0.046 A 
ATOM     22  C   UNL     1      12.531   7.740  19.540  0.00  0.00    +0.120 A 
BRANCH  22   2
ATOM      2  O   UNL     1      11.248   8.190  19.558  0.00  0.00    -0.495 OA
ATOM     23  C   UNL     1      10.605   8.269  20.830  0.00  0.00    +0.277 C 
ENDBRANCH  22   2
ENDBRANCH  16  17
TORSDOF 3
ENDMDL
MODEL 5
REMARK VINA RESULT:      -6.2     17.626     20.262
REMARK  Name = 26761888
REMARK  5 active torsions:
REMARK  status: ('A' for Active; 'I' for Inactive)
REMARK    1  A    between atoms: O_2  and  C_22
REMARK    2  A    between atoms: O_2  and  C_23
REMARK    3  A    between atoms: N_3  and  C_14
REMARK    4  A    between atoms: C_8  and  C_13
REMARK    5  A    between atoms: C_16  and  C_17
REMARK                            x       y       z     vdW  Elec       q    Type
REMARK                         _______ _______ _______ _____ _____    ______ ____
ROOT
ATOM      1  O   UNL     1      12.626   6.779   2.483  0.00  0.00    -0.336 OA
ATOM      6  N   UNL     1      11.283   5.138   3.199  0.00  0.00    -0.190 NA
ATOM      7  N   UNL     1      12.283   7.105   3.801  0.00  0.00    -0.056 NA
ATOM     13  C   UNL     1      11.996   5.609   2.208  0.00  0.00    +0.245 A 
ATOM     16  C   UNL     1      11.490   6.089   4.155  0.00  0.00    +0.202 A 
ENDROOT
BRANCH  13   8
ATOM      3  N   UNL     1      12.892   3.691   0.806  0.00  0.00    -0.288 NA
ATOM      4  N   UNL     1      11.675   2.807  -2.630  0.00  0.00    -0.347 N 
ATOM      5  N   UNL     1       9.966   4.168  -2.154  0.00  0.00    -0.240 NA
ATOM      8  C   UNL     1      12.212   5.032   0.813  0.00  0.00    +0.152 C 
ATOM      9  C   UNL     1      10.821   5.001   0.084  0.00  0.00    +0.085 C 
ATOM     10  C   UNL     1      13.153   3.196  -0.577  0.00  0.00    +0.140 C 
ATOM     11  C   UNL     1      10.902   4.210  -1.160  0.00  0.00    +0.065 A 
ATOM     12  C   UNL     1      11.958   3.377  -1.426  0.00  0.00    +0.053 A 
ATOM     14  C   UNL     1      14.169   3.710   1.533  0.00  0.00    +0.106 C 
ATOM     15  C   UNL     1      10.464   3.315  -3.028  0.00  0.00    +0.197 A 
ATOM     24  H   UNL     1      12.245   2.143  -3.138  0.00  0.00    +0.167 HD
ENDBRANCH  13   8
BRANCH  16  17
ATOM     17  C   UNL     1      10.888   5.997   5.453  0.00  0.00    +0.023 A 
ATOM     18  C   UNL     1       9.970   4.984   5.727  0.00  0.00    +0.015 A 
ATOM     19  C   UNL     1      11.218   6.924   6.443  0.00  0.00    +0.015 A 
ATOM     20  C   UNL     1       9.382   4.896   6.988  0.00  0.00    +0.046 A 
ATOM     21  C   UNL     1      10.630   6.837   7.705  0.00  0.00    +0.046 A 
ATOM     22  C   UNL     1       9.712   5.823   7.978  0.00  0.00    +0.120 A 
BRANCH  22   2
ATOM      2  O   UNL     1       9.139   5.737   9.209  0.00  0.00    -0.495 OA
ATOM     23  C   UNL     1       9.282   4.500   9.907  0.00  0.00    +0.277 C 
ENDBRANCH  22   2
ENDBRANCH  16  17
TORSDOF 3
ENDMDL
MODEL 6
REMARK VINA RESULT:      -6.2      3.808      9.078
REMARK  Name = 26761888
REMARK  5 active torsions:
REMARK  status: ('A' for Active; 'I' for Inactive)
REMARK    1  A    between atoms: O_2  and  C_22
REMARK    2  A    between atoms: O_2  and  C_23
REMARK    3  A    between atoms: N_3  and  C_14
REMARK    4  A    between atoms: C_8  and  C_13
REMARK    5  A    between atoms: C_16  and  C_17
REMARK                            x       y       z     vdW  Elec       q    Type
REMARK                         _______ _______ _______ _____ _____    ______ ____
ROOT
ATOM      1  O   UNL     1      19.115   8.479  21.276  0.00  0.00    -0.336 OA
ATOM      6  N   UNL     1      17.928   6.592  21.476  0.00  0.00    -0.190 NA
ATOM      7  N   UNL     1      17.793   8.816  20.960  0.00  0.00    -0.056 NA
ATOM     13  C   UNL     1      19.107   7.153  21.567  0.00  0.00    +0.245 A 
ATOM     16  C   UNL     1      17.154   7.651  21.101  0.00  0.00    +0.202 A 
ENDROOT
BRANCH  13   8
ATOM      3  N   UNL     1      20.625   6.330  23.430  0.00  0.00    -0.288 NA
ATOM      4  N   UNL     1      23.311   3.746  23.010  0.00  0.00    -0.347 N 
ATOM      5  N   UNL     1      22.320   3.328  21.051  0.00  0.00    -0.240 NA
ATOM      8  C   UNL     1      20.446   6.533  21.950  0.00  0.00    +0.152 C 
ATOM      9  C   UNL     1      20.608   5.197  21.140  0.00  0.00    +0.085 C 
ATOM     10  C   UNL     1      21.974   5.793  23.769  0.00  0.00    +0.140 C 
ATOM     11  C   UNL     1      21.745   4.409  21.656  0.00  0.00    +0.065 A 
ATOM     12  C   UNL     1      22.331   4.682  22.864  0.00  0.00    +0.053 A 
ATOM     14  C   UNL     1      20.422   7.571  24.191  0.00  0.00    +0.106 C 
ATOM     15  C   UNL     1      23.264   2.953  21.892  0.00  0.00    +0.197 A 
ATOM     24  H   UNL     1      23.953   3.654  23.787  0.00  0.00    +0.167 HD
ENDBRANCH  13   8
BRANCH  16  17
ATOM     17  C   UNL     1      15.745   7.511  20.873  0.00  0.00    +0.023 A 
ATOM     18  C   UNL     1      14.844   7.735  21.912  0.00  0.00    +0.015 A 
ATOM     19  C   UNL     1      15.276   7.147  19.610  0.00  0.00    +0.015 A 
ATOM     20  C   UNL     1      13.474   7.596  21.691  0.00  0.00    +0.046 A 
ATOM     21  C   UNL     1      13.906   7.008  19.387  0.00  0.00    +0.046 A 
ATOM     22  C   UNL     1      13.004   7.232  20.428  0.00  0.00    +0.120 A 
BRANCH  22   2
ATOM      2  O   UNL     1      11.668   7.098  20.211  0.00  0.00    -0.495 OA
ATOM     23  C   UNL     1      10.828   8.165  20.651  0.00  0.00    +0.277 C 
ENDBRANCH  22   2
ENDBRANCH  16  17
TORSDOF 3
ENDMDL
MODEL 7
REMARK VINA RESULT:      -6.1     25.712     28.952
REMARK  Name = 26761888
REMARK  5 active torsions:
REMARK  status: ('A' for Active; 'I' for Inactive)
REMARK    1  A    between atoms: O_2  and  C_22
REMARK    2  A    between atoms: O_2  and  C_23
REMARK    3  A    between atoms: N_3  and  C_14
REMARK    4  A    between atoms: C_8  and  C_13
REMARK    5  A    between atoms: C_16  and  C_17
REMARK                            x       y       z     vdW  Elec       q    Type
REMARK                         _______ _______ _______ _____ _____    ______ ____
ROOT
ATOM      1  O   UNL     1     -12.844   5.433  21.846  0.00  0.00    -0.336 OA
ATOM      6  N   UNL     1     -13.872   7.344  21.296  0.00  0.00    -0.190 NA
ATOM      7  N   UNL     1     -11.883   6.219  21.198  0.00  0.00    -0.056 NA
ATOM     13  C   UNL     1     -13.985   6.169  21.861  0.00  0.00    +0.245 A 
ATOM     16  C   UNL     1     -12.565   7.330  20.905  0.00  0.00    +0.202 A 
ENDROOT
BRANCH  13   8
ATOM      3  N   UNL     1     -16.036   4.696  21.588  0.00  0.00    -0.288 NA
ATOM      4  N   UNL     1     -17.645   2.744  24.357  0.00  0.00    -0.347 N 
ATOM      5  N   UNL     1     -15.767   3.185  25.486  0.00  0.00    -0.240 NA
ATOM      8  C   UNL     1     -15.200   5.527  22.522  0.00  0.00    +0.152 C 
ATOM      9  C   UNL     1     -14.696   4.708  23.764  0.00  0.00    +0.085 C 
ATOM     10  C   UNL     1     -17.253   4.148  22.254  0.00  0.00    +0.140 C 
ATOM     11  C   UNL     1     -15.771   3.845  24.290  0.00  0.00    +0.065 A 
ATOM     12  C   UNL     1     -16.911   3.583  23.575  0.00  0.00    +0.053 A 
ATOM     14  C   UNL     1     -16.463   5.450  20.402  0.00  0.00    +0.106 C 
ATOM     15  C   UNL     1     -16.913   2.533  25.498  0.00  0.00    +0.197 A 
ATOM     24  H   UNL     1     -18.554   2.353  24.145  0.00  0.00    +0.167 HD
ENDBRANCH  13   8
BRANCH  16  17
ATOM     17  C   UNL     1     -11.972   8.442  20.220  0.00  0.00    +0.023 A 
ATOM     18  C   UNL     1     -11.175   8.224  19.097  0.00  0.00    +0.015 A 
ATOM     19  C   UNL     1     -12.188   9.741  20.680  0.00  0.00    +0.015 A 
ATOM     20  C   UNL     1     -10.595   9.305  18.432  0.00  0.00    +0.046 A 
ATOM     21  C   UNL     1     -11.609  10.822  20.016  0.00  0.00    +0.046 A 
ATOM     22  C   UNL     1     -10.812  10.605  18.892  0.00  0.00    +0.120 A 
BRANCH  22   2
ATOM      2  O   UNL     1     -10.248  11.659  18.243  0.00  0.00    -0.495 OA
ATOM     23  C   UNL     1      -9.725  11.415  16.938  0.00  0.00    +0.277 C 
ENDBRANCH  22   2
ENDBRANCH  16  17
TORSDOF 3
ENDMDL
MODEL 8
REMARK VINA RESULT:      -6.1     28.665     31.528
REMARK  Name = 26761888
REMARK  5 active torsions:
REMARK  status: ('A' for Active; 'I' for Inactive)
REMARK    1  A    between atoms: O_2  and  C_22
REMARK    2  A    between atoms: O_2  and  C_23
REMARK    3  A    between atoms: N_3  and  C_14
REMARK    4  A    between atoms: C_8  and  C_13
REMARK    5  A    between atoms: C_16  and  C_17
REMARK                            x       y       z     vdW  Elec       q    Type
REMARK                         _______ _______ _______ _____ _____    ______ ____
ROOT
ATOM      1  O   UNL     1     -15.534   4.643  33.821  0.00  0.00    -0.336 OA
ATOM      6  N   UNL     1     -13.965   5.324  32.377  0.00  0.00    -0.190 NA
ATOM      7  N   UNL     1     -14.996   5.819  34.358  0.00  0.00    -0.056 NA
ATOM     13  C   UNL     1     -14.872   4.423  32.656  0.00  0.00    +0.245 A 
ATOM     16  C   UNL     1     -14.078   6.160  33.449  0.00  0.00    +0.202 A 
ENDROOT
BRANCH  13   8
ATOM      3  N   UNL     1     -15.985   3.488  30.574  0.00  0.00    -0.288 NA
ATOM      4  N   UNL     1     -15.243   0.128  29.082  0.00  0.00    -0.347 N 
ATOM      5  N   UNL     1     -13.457   0.151  30.427  0.00  0.00    -0.240 NA
ATOM      8  C   UNL     1     -15.280   3.184  31.867  0.00  0.00    +0.152 C 
ATOM      9  C   UNL     1     -13.996   2.304  31.655  0.00  0.00    +0.085 C 
ATOM     10  C   UNL     1     -16.433   2.253  29.869  0.00  0.00    +0.140 C 
ATOM     11  C   UNL     1     -14.255   1.232  30.673  0.00  0.00    +0.065 A 
ATOM     12  C   UNL     1     -15.354   1.244  29.855  0.00  0.00    +0.053 A 
ATOM     14  C   UNL     1     -17.156   4.354  30.769  0.00  0.00    +0.106 C 
ATOM     15  C   UNL     1     -14.083  -0.497  29.464  0.00  0.00    +0.197 A 
ATOM     24  H   UNL     1     -15.889  -0.185  28.368  0.00  0.00    +0.167 HD
ENDBRANCH  13   8
BRANCH  16  17
ATOM     17  C   UNL     1     -13.255   7.328  33.583  0.00  0.00    +0.023 A 
ATOM     18  C   UNL     1     -12.626   7.871  32.464  0.00  0.00    +0.015 A 
ATOM     19  C   UNL     1     -13.082   7.919  34.835  0.00  0.00    +0.015 A 
ATOM     20  C   UNL     1     -11.824   9.005  32.595  0.00  0.00    +0.046 A 
ATOM     21  C   UNL     1     -12.281   9.053  34.967  0.00  0.00    +0.046 A 
ATOM     22  C   UNL     1     -11.651   9.596  33.847  0.00  0.00    +0.120 A 
BRANCH  22   2
ATOM      2  O   UNL     1     -10.870  10.703  33.975  0.00  0.00    -0.495 OA
ATOM     23  C   UNL     1     -10.103  11.092  32.837  0.00  0.00    +0.277 C 
ENDBRANCH  22   2
ENDBRANCH  16  17
TORSDOF 3
ENDMDL
MODEL 9
REMARK VINA RESULT:      -6.0     16.713     18.430
REMARK  Name = 26761888
REMARK  5 active torsions:
REMARK  status: ('A' for Active; 'I' for Inactive)
REMARK    1  A    between atoms: O_2  and  C_22
REMARK    2  A    between atoms: O_2  and  C_23
REMARK    3  A    between atoms: N_3  and  C_14
REMARK    4  A    between atoms: C_8  and  C_13
REMARK    5  A    between atoms: C_16  and  C_17
REMARK                            x       y       z     vdW  Elec       q    Type
REMARK                         _______ _______ _______ _____ _____    ______ ____
ROOT
ATOM      1  O   UNL     1      12.298   6.956   4.418  0.00  0.00    -0.336 OA
ATOM      6  N   UNL     1      10.743   5.470   3.799  0.00  0.00    -0.190 NA
ATOM      7  N   UNL     1      12.577   6.636   3.084  0.00  0.00    -0.056 NA
ATOM     13  C   UNL     1      11.205   6.227   4.761  0.00  0.00    +0.245 A 
ATOM     16  C   UNL     1      11.616   5.755   2.790  0.00  0.00    +0.202 A 
ENDROOT
BRANCH  13   8
ATOM      3  N   UNL     1       9.375   7.119   6.279  0.00  0.00    -0.288 NA
ATOM      4  N   UNL     1       8.595   5.781   9.695  0.00  0.00    -0.347 N 
ATOM      5  N   UNL     1       9.881   4.055   9.091  0.00  0.00    -0.240 NA
ATOM      8  C   UNL     1      10.693   6.400   6.187  0.00  0.00    +0.152 C 
ATOM      9  C   UNL     1      10.648   4.980   6.858  0.00  0.00    +0.085 C 
ATOM     10  C   UNL     1       8.945   7.333   7.691  0.00  0.00    +0.140 C 
ATOM     11  C   UNL     1       9.911   5.031   8.136  0.00  0.00    +0.065 A 
ATOM     12  C   UNL     1       9.124   6.098   8.481  0.00  0.00    +0.053 A 
ATOM     14  C   UNL     1       9.404   8.424   5.606  0.00  0.00    +0.106 C 
ATOM     15  C   UNL     1       9.081   4.540  10.021  0.00  0.00    +0.197 A 
ATOM     24  H   UNL     1       7.970   6.348  10.254  0.00  0.00    +0.167 HD
ENDBRANCH  13   8
BRANCH  16  17
ATOM     17  C   UNL     1      11.502   5.139   1.499  0.00  0.00    +0.023 A 
ATOM     18  C   UNL     1      12.482   4.247   1.063  0.00  0.00    +0.015 A 
ATOM     19  C   UNL     1      10.413   5.434   0.678  0.00  0.00    +0.015 A 
ATOM     20  C   UNL     1      12.373   3.651  -0.193  0.00  0.00    +0.046 A 
ATOM     21  C   UNL     1      10.304   4.838  -0.577  0.00  0.00    +0.046 A 
ATOM     22  C   UNL     1      11.284   3.946  -1.014  0.00  0.00    +0.120 A 
BRANCH  22   2
ATOM      2  O   UNL     1      11.177   3.364  -2.239  0.00  0.00    -0.495 OA
ATOM     23  C   UNL     1      11.811   2.097  -2.413  0.00  0.00    +0.277 C 
ENDBRANCH  22   2
ENDBRANCH  16  17
TORSDOF 3
ENDMDL
MODEL 10
REMARK VINA RESULT:      -6.0     26.255     29.908
REMARK  Name = 26761888
REMARK  5 active torsions:
REMARK  status: ('A' for Active; 'I' for Inactive)
REMARK    1  A    between atoms: O_2  and  C_22
REMARK    2  A    between atoms: O_2  and  C_23
REMARK    3  A    between atoms: N_3  and  C_14
REMARK    4  A    between atoms: C_8  and  C_13
REMARK    5  A    between atoms: C_16  and  C_17
REMARK                            x       y       z     vdW  Elec       q    Type
REMARK                         _______ _______ _______ _____ _____    ______ ____
ROOT
ATOM      1  O   UNL     1     -15.851   7.191  23.386  0.00  0.00    -0.336 OA
ATOM      6  N   UNL     1     -14.595   6.054  21.923  0.00  0.00    -0.190 NA
ATOM      7  N   UNL     1     -14.916   8.105  22.885  0.00  0.00    -0.056 NA
ATOM     13  C   UNL     1     -15.592   6.010  22.769  0.00  0.00    +0.245 A 
ATOM     16  C   UNL     1     -14.212   7.359  22.027  0.00  0.00    +0.202 A 
ENDROOT
BRANCH  13   8
ATOM      3  N   UNL     1     -16.948   4.014  21.975  0.00  0.00    -0.288 NA
ATOM      4  N   UNL     1     -17.738   1.002  24.065  0.00  0.00    -0.347 N 
ATOM      5  N   UNL     1     -16.166   1.797  25.442  0.00  0.00    -0.240 NA
ATOM      8  C   UNL     1     -16.487   4.834  23.148  0.00  0.00    +0.152 C 
ATOM      9  C   UNL     1     -15.724   3.973  24.217  0.00  0.00    +0.085 C 
ATOM     10  C   UNL     1     -17.879   2.922  22.379  0.00  0.00    +0.140 C 
ATOM     11  C   UNL     1     -16.406   2.682  24.429  0.00  0.00    +0.065 A 
ATOM     12  C   UNL     1     -17.362   2.213  23.567  0.00  0.00    +0.053 A 
ATOM     14  C   UNL     1     -17.616   4.831  20.952  0.00  0.00    +0.106 C 
ATOM     15  C   UNL     1     -16.988   0.795  25.196  0.00  0.00    +0.197 A 
ATOM     24  H   UNL     1     -18.436   0.376  23.683  0.00  0.00    +0.167 HD
ENDBRANCH  13   8
BRANCH  16  17
ATOM     17  C   UNL     1     -13.120   7.888  21.262  0.00  0.00    +0.023 A 
ATOM     18  C   UNL     1     -12.261   7.024  20.583  0.00  0.00    +0.015 A 
ATOM     19  C   UNL     1     -12.915   9.267  21.199  0.00  0.00    +0.015 A 
ATOM     20  C   UNL     1     -11.197   7.538  19.842  0.00  0.00    +0.046 A 
ATOM     21  C   UNL     1     -11.851   9.781  20.457  0.00  0.00    +0.046 A 
ATOM     22  C   UNL     1     -10.991   8.916  19.779  0.00  0.00    +0.120 A 
BRANCH  22   2
ATOM      2  O   UNL     1      -9.955   9.418  19.055  0.00  0.00    -0.495 OA
ATOM     23  C   UNL     1     -10.039   9.304  17.635  0.00  0.00    +0.277 C 
ENDBRANCH  22   2
ENDBRANCH  16  17
TORSDOF 3
ENDMDL
