MODEL 1
REMARK VINA RESULT:      -6.8      0.000      0.000
REMARK  Name = 56776145
REMARK  10 active torsions:
REMARK  status: ('A' for Active; 'I' for Inactive)
REMARK    1  A    between atoms: O_3  and  C_19
REMARK    2  A    between atoms: N_7  and  C_26
REMARK    3  A    between atoms: N_7  and  C_28
REMARK    4  A    between atoms: N_7  and  C_30
REMARK    5  A    between atoms: N_8  and  C_29
REMARK    6  A    between atoms: N_8  and  C_31
REMARK    7  A    between atoms: N_8  and  C_32
REMARK    8  A    between atoms: C_10  and  C_15
REMARK    9  A    between atoms: C_15  and  C_19
REMARK   10  A    between atoms: C_28  and  C_29
REMARK                            x       y       z     vdW  Elec       q    Type
REMARK                         _______ _______ _______ _____ _____    ______ ____
ROOT
ATOM      1  O   UNL     1      16.225   7.357  21.054  0.00  0.00    -0.492 OA
ATOM      2  O   UNL     1      14.630  10.351  22.342  0.00  0.00    -0.274 OA
ATOM      5  N   UNL     1      14.281  10.922  20.124  0.00  0.00    -0.300 N 
ATOM      6  N   UNL     1      17.332  10.443  20.777  0.00  0.00    -0.304 NA
ATOM      9  C   UNL     1      13.064   9.176  18.864  0.00  0.00    +0.010 C 
ATOM     10  C   UNL     1      13.220  10.032  17.575  0.00  0.00    +0.006 C 
ATOM     11  C   UNL     1      14.492  10.895  17.637  0.00  0.00    +0.023 C 
ATOM     12  C   UNL     1      13.033  10.154  20.057  0.00  0.00    +0.111 C 
ATOM     13  C   UNL     1      14.181   8.115  19.006  0.00  0.00    +0.008 C 
ATOM     14  C   UNL     1      14.570  11.719  18.924  0.00  0.00    +0.108 C 
ATOM     16  C   UNL     1      14.016   7.143  20.185  0.00  0.00    +0.041 C 
ATOM     17  C   UNL     1      15.031  10.888  21.302  0.00  0.00    +0.229 C 
ATOM     18  C   UNL     1      15.336   6.412  20.451  0.00  0.00    +0.229 C 
ATOM     20  C   UNL     1      16.428  11.477  21.283  0.00  0.00    +0.178 C 
ATOM     21  C   UNL     1      17.785   9.543  21.845  0.00  0.00    +0.120 C 
ATOM     22  C   UNL     1      17.575   7.171  20.923  0.00  0.00    +0.125 A 
ATOM     23  C   UNL     1      18.385   8.265  21.298  0.00  0.00    +0.010 A 
ATOM     24  C   UNL     1      19.778   8.166  21.162  0.00  0.00    +0.031 A 
ATOM     25  C   UNL     1      18.172   5.990  20.471  0.00  0.00    +0.048 A 
ATOM     26  C   UNL     1      20.361   6.992  20.689  0.00  0.00    +0.030 A 
ATOM     27  C   UNL     1      19.560   5.904  20.352  0.00  0.00    +0.027 A 
ATOM     33  H   UNL     1      18.152  10.887  20.362  0.00  0.00    +0.123 HD
ENDROOT
BRANCH  26   7
ATOM      7  N   UNL     1      21.761   6.908  20.543  0.00  0.00    -0.332 N 
ATOM     30  C   UNL     1      22.564   8.111  20.463  0.00  0.00    +0.129 C 
BRANCH   7  28
ATOM     28  C   UNL     1      22.416   5.616  20.480  0.00  0.00    +0.120 C 
BRANCH  28  29
ATOM     29  C   UNL     1      23.502   5.541  21.545  0.00  0.00    +0.102 C 
BRANCH  29   8
ATOM      8  N   UNL     1      23.084   4.669  22.635  0.00  0.00    -0.307 NA
ATOM     31  C   UNL     1      22.572   5.457  23.759  0.00  0.00    +0.104 C 
ATOM     32  C   UNL     1      22.067   3.721  22.177  0.00  0.00    +0.104 C 
ENDBRANCH  29   8
ENDBRANCH  28  29
ENDBRANCH   7  28
ENDBRANCH  26   7
BRANCH  10  15
ATOM     15  C   UNL     1      13.189   9.207  16.289  0.00  0.00    +0.124 C 
BRANCH  15  19
ATOM      4  O   UNL     1      10.894   8.760  15.600  0.00  0.00    -0.251 OA
ATOM     19  C   UNL     1      11.915   9.425  15.519  0.00  0.00    +0.305 C 
BRANCH  19   3
ATOM      3  O   UNL     1      12.056  10.496  14.696  0.00  0.00    -0.481 OA
ATOM     34  H   UNL     1      12.992  10.643  14.444  0.00  0.00    +0.295 HD
ENDBRANCH  19   3
ENDBRANCH  15  19
ENDBRANCH  10  15
TORSDOF 7
ENDMDL
MODEL 2
REMARK VINA RESULT:      -6.4     14.229     17.706
REMARK  Name = 56776145
REMARK  10 active torsions:
REMARK  status: ('A' for Active; 'I' for Inactive)
REMARK    1  A    between atoms: O_3  and  C_19
REMARK    2  A    between atoms: N_7  and  C_26
REMARK    3  A    between atoms: N_7  and  C_28
REMARK    4  A    between atoms: N_7  and  C_30
REMARK    5  A    between atoms: N_8  and  C_29
REMARK    6  A    between atoms: N_8  and  C_31
REMARK    7  A    between atoms: N_8  and  C_32
REMARK    8  A    between atoms: C_10  and  C_15
REMARK    9  A    between atoms: C_15  and  C_19
REMARK   10  A    between atoms: C_28  and  C_29
REMARK                            x       y       z     vdW  Elec       q    Type
REMARK                         _______ _______ _______ _____ _____    ______ ____
ROOT
ATOM      1  O   UNL     1      13.119   8.347   4.745  0.00  0.00    -0.492 OA
ATOM      2  O   UNL     1      10.070  10.299   4.990  0.00  0.00    -0.274 OA
ATOM      5  N   UNL     1       9.084   8.358   5.781  0.00  0.00    -0.300 N 
ATOM      6  N   UNL     1      10.396   7.968   2.936  0.00  0.00    -0.304 NA
ATOM      9  C   UNL     1      10.252   7.421   7.749  0.00  0.00    +0.010 C 
ATOM     10  C   UNL     1       9.267   6.218   7.731  0.00  0.00    +0.006 C 
ATOM     11  C   UNL     1       8.764   5.938   6.304  0.00  0.00    +0.023 C 
ATOM     12  C   UNL     1       9.500   8.633   7.160  0.00  0.00    +0.111 C 
ATOM     13  C   UNL     1      11.564   7.119   6.986  0.00  0.00    +0.008 C 
ATOM     14  C   UNL     1       8.201   7.192   5.632  0.00  0.00    +0.108 C 
ATOM     16  C   UNL     1      12.641   8.212   7.076  0.00  0.00    +0.041 C 
ATOM     17  C   UNL     1       9.489   9.230   4.768  0.00  0.00    +0.229 C 
ATOM     18  C   UNL     1      13.707   7.988   5.999  0.00  0.00    +0.229 C 
ATOM     20  C   UNL     1       9.266   8.813   3.326  0.00  0.00    +0.178 C 
ATOM     21  C   UNL     1      11.538   8.765   2.472  0.00  0.00    +0.120 C 
ATOM     22  C   UNL     1      13.607   7.780   3.599  0.00  0.00    +0.125 A 
ATOM     23  C   UNL     1      12.821   7.960   2.440  0.00  0.00    +0.010 A 
ATOM     24  C   UNL     1      13.237   7.381   1.232  0.00  0.00    +0.031 A 
ATOM     25  C   UNL     1      14.811   7.073   3.516  0.00  0.00    +0.048 A 
ATOM     26  C   UNL     1      14.427   6.659   1.165  0.00  0.00    +0.030 A 
ATOM     27  C   UNL     1      15.216   6.514   2.303  0.00  0.00    +0.027 A 
ATOM     33  H   UNL     1      10.107   7.349   2.178  0.00  0.00    +0.123 HD
ENDROOT
BRANCH  26   7
ATOM      7  N   UNL     1      14.828   6.071  -0.051  0.00  0.00    -0.332 N 
ATOM     30  C   UNL     1      16.166   6.288  -0.566  0.00  0.00    +0.129 C 
BRANCH   7  28
ATOM     28  C   UNL     1      13.912   5.234  -0.800  0.00  0.00    +0.120 C 
BRANCH  28  29
ATOM     29  C   UNL     1      14.050   3.788  -0.344  0.00  0.00    +0.102 C 
BRANCH  29   8
ATOM      8  N   UNL     1      12.810   3.328   0.268  0.00  0.00    -0.307 NA
ATOM     31  C   UNL     1      12.938   3.284   1.727  0.00  0.00    +0.104 C 
ATOM     32  C   UNL     1      11.693   4.194  -0.116  0.00  0.00    +0.104 C 
ENDBRANCH  29   8
ENDBRANCH  28  29
ENDBRANCH   7  28
ENDBRANCH  26   7
BRANCH  10  15
ATOM     15  C   UNL     1       9.843   4.950   8.360  0.00  0.00    +0.124 C 
BRANCH  15  19
ATOM      4  O   UNL     1      10.458   4.732  10.708  0.00  0.00    -0.251 OA
ATOM     19  C   UNL     1       9.612   4.912   9.846  0.00  0.00    +0.305 C 
BRANCH  19   3
ATOM      3  O   UNL     1       8.296   5.114  10.110  0.00  0.00    -0.481 OA
ATOM     34  H   UNL     1       7.730   4.432   9.692  0.00  0.00    +0.295 HD
ENDBRANCH  19   3
ENDBRANCH  15  19
ENDBRANCH  10  15
TORSDOF 7
ENDMDL
MODEL 3
REMARK VINA RESULT:      -6.3      1.148      2.217
REMARK  Name = 56776145
REMARK  10 active torsions:
REMARK  status: ('A' for Active; 'I' for Inactive)
REMARK    1  A    between atoms: O_3  and  C_19
REMARK    2  A    between atoms: N_7  and  C_26
REMARK    3  A    between atoms: N_7  and  C_28
REMARK    4  A    between atoms: N_7  and  C_30
REMARK    5  A    between atoms: N_8  and  C_29
REMARK    6  A    between atoms: N_8  and  C_31
REMARK    7  A    between atoms: N_8  and  C_32
REMARK    8  A    between atoms: C_10  and  C_15
REMARK    9  A    between atoms: C_15  and  C_19
REMARK   10  A    between atoms: C_28  and  C_29
REMARK                            x       y       z     vdW  Elec       q    Type
REMARK                         _______ _______ _______ _____ _____    ______ ____
ROOT
ATOM      1  O   UNL     1      15.907   7.507  21.194  0.00  0.00    -0.492 OA
ATOM      2  O   UNL     1      14.140  10.440  22.396  0.00  0.00    -0.274 OA
ATOM      5  N   UNL     1      13.810  10.956  20.162  0.00  0.00    -0.300 N 
ATOM      6  N   UNL     1      16.867  10.639  20.884  0.00  0.00    -0.304 NA
ATOM      9  C   UNL     1      12.707   9.131  18.908  0.00  0.00    +0.010 C 
ATOM     10  C   UNL     1      12.848   9.971  17.607  0.00  0.00    +0.006 C 
ATOM     11  C   UNL     1      14.075  10.897  17.680  0.00  0.00    +0.023 C 
ATOM     12  C   UNL     1      12.603  10.126  20.083  0.00  0.00    +0.111 C 
ATOM     13  C   UNL     1      13.871   8.129  19.091  0.00  0.00    +0.008 C 
ATOM     14  C   UNL     1      14.085  11.746  18.953  0.00  0.00    +0.108 C 
ATOM     16  C   UNL     1      13.729   7.170  20.284  0.00  0.00    +0.041 C 
ATOM     17  C   UNL     1      14.536  10.979  21.354  0.00  0.00    +0.229 C 
ATOM     18  C   UNL     1      15.077   6.510  20.590  0.00  0.00    +0.229 C 
ATOM     20  C   UNL     1      15.903  11.636  21.353  0.00  0.00    +0.178 C 
ATOM     21  C   UNL     1      17.341   9.781  21.976  0.00  0.00    +0.120 C 
ATOM     22  C   UNL     1      17.266   7.386  21.093  0.00  0.00    +0.125 A 
ATOM     23  C   UNL     1      18.014   8.525  21.465  0.00  0.00    +0.010 A 
ATOM     24  C   UNL     1      19.413   8.492  21.358  0.00  0.00    +0.031 A 
ATOM     25  C   UNL     1      17.930   6.228  20.675  0.00  0.00    +0.048 A 
ATOM     26  C   UNL     1      20.062   7.340  20.918  0.00  0.00    +0.030 A 
ATOM     27  C   UNL     1      19.322   6.209  20.586  0.00  0.00    +0.027 A 
ATOM     33  H   UNL     1      17.672  11.116  20.477  0.00  0.00    +0.123 HD
ENDROOT
BRANCH  26   7
ATOM      7  N   UNL     1      21.467   7.323  20.803  0.00  0.00    -0.332 N 
ATOM     30  C   UNL     1      22.162   6.092  20.480  0.00  0.00    +0.129 C 
BRANCH   7  28
ATOM     28  C   UNL     1      22.235   8.537  20.998  0.00  0.00    +0.120 C 
BRANCH  28  29
ATOM     29  C   UNL     1      22.928   8.918  19.697  0.00  0.00    +0.102 C 
BRANCH  29   8
ATOM      8  N   UNL     1      24.330   9.232  19.942  0.00  0.00    -0.307 NA
ATOM     31  C   UNL     1      25.196   8.177  19.410  0.00  0.00    +0.104 C 
ATOM     32  C   UNL     1      24.681  10.523  19.346  0.00  0.00    +0.104 C 
ENDBRANCH  29   8
ENDBRANCH  28  29
ENDBRANCH   7  28
ENDBRANCH  26   7
BRANCH  10  15
ATOM     15  C   UNL     1      12.884   9.124  16.336  0.00  0.00    +0.124 C 
BRANCH  15  19
ATOM      4  O   UNL     1      10.638   8.443  15.681  0.00  0.00    -0.251 OA
ATOM     19  C   UNL     1      11.588   9.203  15.578  0.00  0.00    +0.305 C 
BRANCH  19   3
ATOM      3  O   UNL     1      11.614  10.269  14.737  0.00  0.00    -0.481 OA
ATOM     34  H   UNL     1      11.464  10.003  13.805  0.00  0.00    +0.295 HD
ENDBRANCH  19   3
ENDBRANCH  15  19
ENDBRANCH  10  15
TORSDOF 7
ENDMDL
MODEL 4
REMARK VINA RESULT:      -6.1     28.352     31.100
REMARK  Name = 56776145
REMARK  10 active torsions:
REMARK  status: ('A' for Active; 'I' for Inactive)
REMARK    1  A    between atoms: O_3  and  C_19
REMARK    2  A    between atoms: N_7  and  C_26
REMARK    3  A    between atoms: N_7  and  C_28
REMARK    4  A    between atoms: N_7  and  C_30
REMARK    5  A    between atoms: N_8  and  C_29
REMARK    6  A    between atoms: N_8  and  C_31
REMARK    7  A    between atoms: N_8  and  C_32
REMARK    8  A    between atoms: C_10  and  C_15
REMARK    9  A    between atoms: C_15  and  C_19
REMARK   10  A    between atoms: C_28  and  C_29
REMARK                            x       y       z     vdW  Elec       q    Type
REMARK                         _______ _______ _______ _____ _____    ______ ____
ROOT
ATOM      1  O   UNL     1      -3.486 -11.824  16.468  0.00  0.00    -0.492 OA
ATOM      2  O   UNL     1      -2.376 -14.583  14.391  0.00  0.00    -0.274 OA
ATOM      5  N   UNL     1      -3.311 -13.415  12.623  0.00  0.00    -0.300 N 
ATOM      6  N   UNL     1      -5.400 -14.004  14.915  0.00  0.00    -0.304 NA
ATOM      9  C   UNL     1      -2.420 -11.118  12.410  0.00  0.00    +0.010 C 
ATOM     10  C   UNL     1      -3.408 -10.868  11.236  0.00  0.00    +0.006 C 
ATOM     11  C   UNL     1      -4.677 -11.726  11.392  0.00  0.00    +0.023 C 
ATOM     12  C   UNL     1      -2.093 -12.626  12.415  0.00  0.00    +0.111 C 
ATOM     13  C   UNL     1      -2.984 -10.637  13.768  0.00  0.00    +0.008 C 
ATOM     14  C   UNL     1      -4.352 -13.206  11.605  0.00  0.00    +0.108 C 
ATOM     16  C   UNL     1      -2.008 -10.727  14.952  0.00  0.00    +0.041 C 
ATOM     17  C   UNL     1      -3.359 -14.316  13.688  0.00  0.00    +0.229 C 
ATOM     18  C   UNL     1      -2.774 -10.598  16.273  0.00  0.00    +0.229 C 
ATOM     20  C   UNL     1      -4.694 -14.944  14.043  0.00  0.00    +0.178 C 
ATOM     21  C   UNL     1      -5.012 -14.166  16.322  0.00  0.00    +0.120 C 
ATOM     22  C   UNL     1      -4.619 -11.815  17.236  0.00  0.00    +0.125 A 
ATOM     23  C   UNL     1      -5.417 -12.978  17.168  0.00  0.00    +0.010 A 
ATOM     24  C   UNL     1      -6.613 -13.034  17.900  0.00  0.00    +0.031 A 
ATOM     25  C   UNL     1      -5.003 -10.759  18.069  0.00  0.00    +0.048 A 
ATOM     26  C   UNL     1      -6.997 -11.967  18.709  0.00  0.00    +0.030 A 
ATOM     27  C   UNL     1      -6.190 -10.836  18.800  0.00  0.00    +0.027 A 
ATOM     33  H   UNL     1      -6.405 -14.164  14.839  0.00  0.00    +0.123 HD
ENDROOT
BRANCH  26   7
ATOM      7  N   UNL     1      -8.207 -12.028  19.430  0.00  0.00    -0.332 N 
ATOM     30  C   UNL     1      -8.567 -13.229  20.158  0.00  0.00    +0.129 C 
BRANCH   7  28
ATOM     28  C   UNL     1      -9.103 -10.889  19.460  0.00  0.00    +0.120 C 
BRANCH  28  29
ATOM     29  C   UNL     1      -9.697 -10.669  18.076  0.00  0.00    +0.102 C 
BRANCH  29   8
ATOM      8  N   UNL     1      -9.183  -9.436  17.494  0.00  0.00    -0.307 NA
ATOM     31  C   UNL     1      -8.681  -9.674  16.138  0.00  0.00    +0.104 C 
ATOM     32  C   UNL     1     -10.221  -8.403  17.475  0.00  0.00    +0.104 C 
ENDBRANCH  29   8
ENDBRANCH  28  29
ENDBRANCH   7  28
ENDBRANCH  26   7
BRANCH  10  15
ATOM     15  C   UNL     1      -3.771  -9.396  11.049  0.00  0.00    +0.124 C 
BRANCH  15  19
ATOM      4  O   UNL     1      -4.377  -9.562   8.694  0.00  0.00    -0.251 OA
ATOM     19  C   UNL     1      -4.625  -9.185   9.829  0.00  0.00    +0.305 C 
BRANCH  19   3
ATOM      3  O   UNL     1      -5.746  -8.498  10.168  0.00  0.00    -0.481 OA
ATOM     34  H   UNL     1      -6.370  -8.424   9.415  0.00  0.00    +0.295 HD
ENDBRANCH  19   3
ENDBRANCH  15  19
ENDBRANCH  10  15
TORSDOF 7
ENDMDL
MODEL 5
REMARK VINA RESULT:      -6.1     13.354     16.011
REMARK  Name = 56776145
REMARK  10 active torsions:
REMARK  status: ('A' for Active; 'I' for Inactive)
REMARK    1  A    between atoms: O_3  and  C_19
REMARK    2  A    between atoms: N_7  and  C_26
REMARK    3  A    between atoms: N_7  and  C_28
REMARK    4  A    between atoms: N_7  and  C_30
REMARK    5  A    between atoms: N_8  and  C_29
REMARK    6  A    between atoms: N_8  and  C_31
REMARK    7  A    between atoms: N_8  and  C_32
REMARK    8  A    between atoms: C_10  and  C_15
REMARK    9  A    between atoms: C_15  and  C_19
REMARK   10  A    between atoms: C_28  and  C_29
REMARK                            x       y       z     vdW  Elec       q    Type
REMARK                         _______ _______ _______ _____ _____    ______ ____
ROOT
ATOM      1  O   UNL     1      11.819   9.052   4.825  0.00  0.00    -0.492 OA
ATOM      2  O   UNL     1       9.351   7.000   3.133  0.00  0.00    -0.274 OA
ATOM      5  N   UNL     1       9.352   5.703   5.052  0.00  0.00    -0.300 N 
ATOM      6  N   UNL     1      12.227   5.961   3.774  0.00  0.00    -0.304 NA
ATOM      9  C   UNL     1       8.855   7.009   7.093  0.00  0.00    +0.010 C 
ATOM     10  C   UNL     1       9.077   5.725   7.941  0.00  0.00    +0.006 C 
ATOM     11  C   UNL     1      10.078   4.778   7.254  0.00  0.00    +0.023 C 
ATOM     12  C   UNL     1       8.353   6.557   5.706  0.00  0.00    +0.111 C 
ATOM     13  C   UNL     1      10.129   7.881   6.999  0.00  0.00    +0.008 C 
ATOM     14  C   UNL     1       9.695   4.486   5.801  0.00  0.00    +0.108 C 
ATOM     16  C   UNL     1       9.948   9.233   6.291  0.00  0.00    +0.041 C 
ATOM     17  C   UNL     1       9.827   6.066   3.790  0.00  0.00    +0.229 C 
ATOM     18  C   UNL     1      11.314   9.820   5.922  0.00  0.00    +0.229 C 
ATOM     20  C   UNL     1      11.026   5.323   3.231  0.00  0.00    +0.178 C 
ATOM     21  C   UNL     1      12.639   7.119   2.973  0.00  0.00    +0.120 C 
ATOM     22  C   UNL     1      13.172   8.986   4.631  0.00  0.00    +0.125 A 
ATOM     23  C   UNL     1      13.615   8.008   3.714  0.00  0.00    +0.010 A 
ATOM     24  C   UNL     1      14.991   7.855   3.486  0.00  0.00    +0.031 A 
ATOM     25  C   UNL     1      14.103   9.822   5.257  0.00  0.00    +0.048 A 
ATOM     26  C   UNL     1      15.912   8.678   4.132  0.00  0.00    +0.030 A 
ATOM     27  C   UNL     1      15.468   9.664   5.009  0.00  0.00    +0.027 A 
ATOM     33  H   UNL     1      12.991   5.285   3.780  0.00  0.00    +0.123 HD
ENDROOT
BRANCH  26   7
ATOM      7  N   UNL     1      17.292   8.507   3.904  0.00  0.00    -0.332 N 
ATOM     30  C   UNL     1      17.809   8.423   2.553  0.00  0.00    +0.129 C 
BRANCH   7  28
ATOM     28  C   UNL     1      18.215   8.422   5.019  0.00  0.00    +0.120 C 
BRANCH  28  29
ATOM     29  C   UNL     1      19.505   7.751   4.565  0.00  0.00    +0.102 C 
BRANCH  29   8
ATOM      8  N   UNL     1      20.657   8.397   5.181  0.00  0.00    -0.307 NA
ATOM     31  C   UNL     1      20.571   9.853   5.038  0.00  0.00    +0.104 C 
ATOM     32  C   UNL     1      20.757   8.033   6.596  0.00  0.00    +0.104 C 
ENDBRANCH  29   8
ENDBRANCH  28  29
ENDBRANCH   7  28
ENDBRANCH  26   7
BRANCH  10  15
ATOM     15  C   UNL     1       9.505   6.011   9.380  0.00  0.00    +0.124 C 
BRANCH  15  19
ATOM      4  O   UNL     1      10.196   3.976  10.530  0.00  0.00    -0.251 OA
ATOM     19  C   UNL     1       9.338   4.803  10.259  0.00  0.00    +0.305 C 
BRANCH  19   3
ATOM      3  O   UNL     1       8.065   4.751  10.730  0.00  0.00    -0.481 OA
ATOM     34  H   UNL     1       7.571   3.988  10.363  0.00  0.00    +0.295 HD
ENDBRANCH  19   3
ENDBRANCH  15  19
ENDBRANCH  10  15
TORSDOF 7
ENDMDL
MODEL 6
REMARK VINA RESULT:      -6.0      3.934      9.962
REMARK  Name = 56776145
REMARK  10 active torsions:
REMARK  status: ('A' for Active; 'I' for Inactive)
REMARK    1  A    between atoms: O_3  and  C_19
REMARK    2  A    between atoms: N_7  and  C_26
REMARK    3  A    between atoms: N_7  and  C_28
REMARK    4  A    between atoms: N_7  and  C_30
REMARK    5  A    between atoms: N_8  and  C_29
REMARK    6  A    between atoms: N_8  and  C_31
REMARK    7  A    between atoms: N_8  and  C_32
REMARK    8  A    between atoms: C_10  and  C_15
REMARK    9  A    between atoms: C_15  and  C_19
REMARK   10  A    between atoms: C_28  and  C_29
REMARK                            x       y       z     vdW  Elec       q    Type
REMARK                         _______ _______ _______ _____ _____    ______ ____
ROOT
ATOM      1  O   UNL     1      20.670   6.588  20.960  0.00  0.00    -0.492 OA
ATOM      2  O   UNL     1      22.869   8.720  22.907  0.00  0.00    -0.274 OA
ATOM      5  N   UNL     1      22.781   7.061  24.521  0.00  0.00    -0.300 N 
ATOM      6  N   UNL     1      19.918   8.150  23.758  0.00  0.00    -0.304 NA
ATOM      9  C   UNL     1      23.460   4.845  23.658  0.00  0.00    +0.010 C 
ATOM     10  C   UNL     1      23.126   4.228  25.046  0.00  0.00    +0.006 C 
ATOM     11  C   UNL     1      22.016   5.028  25.751  0.00  0.00    +0.023 C 
ATOM     12  C   UNL     1      23.878   6.310  23.901  0.00  0.00    +0.111 C 
ATOM     13  C   UNL     1      22.281   4.729  22.663  0.00  0.00    +0.008 C 
ATOM     14  C   UNL     1      22.331   6.524  25.813  0.00  0.00    +0.108 C 
ATOM     16  C   UNL     1      22.585   5.194  21.230  0.00  0.00    +0.041 C 
ATOM     17  C   UNL     1      22.315   8.217  23.893  0.00  0.00    +0.229 C 
ATOM     18  C   UNL     1      21.279   5.396  20.456  0.00  0.00    +0.229 C 
ATOM     20  C   UNL     1      21.033   8.848  24.401  0.00  0.00    +0.178 C 
ATOM     21  C   UNL     1      19.609   8.716  22.439  0.00  0.00    +0.120 C 
ATOM     22  C   UNL     1      19.313   6.733  20.857  0.00  0.00    +0.125 A 
ATOM     23  C   UNL     1      18.748   7.788  21.607  0.00  0.00    +0.010 A 
ATOM     24  C   UNL     1      17.359   7.982  21.580  0.00  0.00    +0.031 A 
ATOM     25  C   UNL     1      18.489   5.931  20.061  0.00  0.00    +0.048 A 
ATOM     26  C   UNL     1      16.545   7.162  20.802  0.00  0.00    +0.030 A 
ATOM     27  C   UNL     1      17.110   6.145  20.038  0.00  0.00    +0.027 A 
ATOM     33  H   UNL     1      19.087   8.230  24.345  0.00  0.00    +0.123 HD
ENDROOT
BRANCH  26   7
ATOM      7  N   UNL     1      15.149   7.357  20.792  0.00  0.00    -0.332 N 
ATOM     30  C   UNL     1      14.473   7.880  21.963  0.00  0.00    +0.129 C 
BRANCH   7  28
ATOM     28  C   UNL     1      14.371   7.045  19.609  0.00  0.00    +0.120 C 
BRANCH  28  29
ATOM     29  C   UNL     1      12.946   6.694  20.012  0.00  0.00    +0.102 C 
BRANCH  29   8
ATOM      8  N   UNL     1      11.994   7.302  19.091  0.00  0.00    -0.307 NA
ATOM     31  C   UNL     1      11.338   8.455  19.712  0.00  0.00    +0.104 C 
ATOM     32  C   UNL     1      12.661   7.706  17.852  0.00  0.00    +0.104 C 
ENDBRANCH  29   8
ENDBRANCH  28  29
ENDBRANCH   7  28
ENDBRANCH  26   7
BRANCH  10  15
ATOM     15  C   UNL     1      22.766   2.744  24.982  0.00  0.00    +0.124 C 
BRANCH  15  19
ATOM      4  O   UNL     1      24.985   1.751  25.158  0.00  0.00    -0.251 OA
ATOM     19  C   UNL     1      23.938   1.906  24.549  0.00  0.00    +0.305 C 
BRANCH  19   3
ATOM      3  O   UNL     1      23.667   1.325  23.352  0.00  0.00    -0.481 OA
ATOM     34  H   UNL     1      23.707   1.970  22.615  0.00  0.00    +0.295 HD
ENDBRANCH  19   3
ENDBRANCH  15  19
ENDBRANCH  10  15
TORSDOF 7
ENDMDL
MODEL 7
REMARK VINA RESULT:      -5.8     28.464     32.581
REMARK  Name = 56776145
REMARK  10 active torsions:
REMARK  status: ('A' for Active; 'I' for Inactive)
REMARK    1  A    between atoms: O_3  and  C_19
REMARK    2  A    between atoms: N_7  and  C_26
REMARK    3  A    between atoms: N_7  and  C_28
REMARK    4  A    between atoms: N_7  and  C_30
REMARK    5  A    between atoms: N_8  and  C_29
REMARK    6  A    between atoms: N_8  and  C_31
REMARK    7  A    between atoms: N_8  and  C_32
REMARK    8  A    between atoms: C_10  and  C_15
REMARK    9  A    between atoms: C_15  and  C_19
REMARK   10  A    between atoms: C_28  and  C_29
REMARK                            x       y       z     vdW  Elec       q    Type
REMARK                         _______ _______ _______ _____ _____    ______ ____
ROOT
ATOM      1  O   UNL     1      -8.696 -10.590  17.632  0.00  0.00    -0.492 OA
ATOM      2  O   UNL     1      -8.178 -13.969  16.416  0.00  0.00    -0.274 OA
ATOM      5  N   UNL     1      -6.277 -13.133  15.388  0.00  0.00    -0.300 N 
ATOM      6  N   UNL     1      -8.893 -11.601  14.507  0.00  0.00    -0.304 NA
ATOM      9  C   UNL     1      -4.742 -12.016  16.972  0.00  0.00    +0.010 C 
ATOM     10  C   UNL     1      -3.822 -11.637  15.777  0.00  0.00    +0.006 C 
ATOM     11  C   UNL     1      -4.638 -11.484  14.481  0.00  0.00    +0.023 C 
ATOM     12  C   UNL     1      -5.464 -13.326  16.593  0.00  0.00    +0.111 C 
ATOM     13  C   UNL     1      -5.733 -10.885  17.333  0.00  0.00    +0.008 C 
ATOM     14  C   UNL     1      -5.519 -12.704  14.204  0.00  0.00    +0.108 C 
ATOM     16  C   UNL     1      -6.581 -11.133  18.591  0.00  0.00    +0.041 C 
ATOM     17  C   UNL     1      -7.642 -13.426  15.441  0.00  0.00    +0.229 C 
ATOM     18  C   UNL     1      -7.763 -10.158  18.628  0.00  0.00    +0.229 C 
ATOM     20  C   UNL     1      -8.517 -12.998  14.279  0.00  0.00    +0.178 C 
ATOM     21  C   UNL     1     -10.076 -11.489  15.369  0.00  0.00    +0.120 C 
ATOM     22  C   UNL     1      -9.547  -9.671  17.082  0.00  0.00    +0.125 A 
ATOM     23  C   UNL     1     -10.245 -10.092  15.929  0.00  0.00    +0.010 A 
ATOM     24  C   UNL     1     -11.113  -9.196  15.286  0.00  0.00    +0.031 A 
ATOM     25  C   UNL     1      -9.770  -8.389  17.597  0.00  0.00    +0.048 A 
ATOM     26  C   UNL     1     -11.310  -7.914  15.794  0.00  0.00    +0.030 A 
ATOM     27  C   UNL     1     -10.646  -7.515  16.951  0.00  0.00    +0.027 A 
ATOM     33  H   UNL     1      -9.105 -11.160  13.612  0.00  0.00    +0.123 HD
ENDROOT
BRANCH  26   7
ATOM      7  N   UNL     1     -12.174  -7.017  15.134  0.00  0.00    -0.332 N 
ATOM     30  C   UNL     1     -13.579  -7.337  14.972  0.00  0.00    +0.129 C 
BRANCH   7  28
ATOM     28  C   UNL     1     -11.672  -5.761  14.613  0.00  0.00    +0.120 C 
BRANCH  28  29
ATOM     29  C   UNL     1     -12.342  -5.455  13.281  0.00  0.00    +0.102 C 
BRANCH  29   8
ATOM      8  N   UNL     1     -12.818  -4.078  13.258  0.00  0.00    -0.307 NA
ATOM     31  C   UNL     1     -12.176  -3.326  12.177  0.00  0.00    +0.104 C 
ATOM     32  C   UNL     1     -14.274  -4.038  13.106  0.00  0.00    +0.104 C 
ENDBRANCH  29   8
ENDBRANCH  28  29
ENDBRANCH   7  28
ENDBRANCH  26   7
BRANCH  10  15
ATOM     15  C   UNL     1      -2.973 -10.393  16.032  0.00  0.00    +0.124 C 
BRANCH  15  19
ATOM      4  O   UNL     1      -0.931 -11.520  15.326  0.00  0.00    -0.251 OA
ATOM     19  C   UNL     1      -1.612 -10.510  15.402  0.00  0.00    +0.305 C 
BRANCH  19   3
ATOM      3  O   UNL     1      -1.230  -9.303  14.911  0.00  0.00    -0.481 OA
ATOM     34  H   UNL     1      -1.431  -9.217  13.955  0.00  0.00    +0.295 HD
ENDBRANCH  19   3
ENDBRANCH  15  19
ENDBRANCH  10  15
TORSDOF 7
ENDMDL
MODEL 8
REMARK VINA RESULT:      -5.8     28.683     31.628
REMARK  Name = 56776145
REMARK  10 active torsions:
REMARK  status: ('A' for Active; 'I' for Inactive)
REMARK    1  A    between atoms: O_3  and  C_19
REMARK    2  A    between atoms: N_7  and  C_26
REMARK    3  A    between atoms: N_7  and  C_28
REMARK    4  A    between atoms: N_7  and  C_30
REMARK    5  A    between atoms: N_8  and  C_29
REMARK    6  A    between atoms: N_8  and  C_31
REMARK    7  A    between atoms: N_8  and  C_32
REMARK    8  A    between atoms: C_10  and  C_15
REMARK    9  A    between atoms: C_15  and  C_19
REMARK   10  A    between atoms: C_28  and  C_29
REMARK                            x       y       z     vdW  Elec       q    Type
REMARK                         _______ _______ _______ _____ _____    ______ ____
ROOT
ATOM      1  O   UNL     1      -3.833  -9.726  11.660  0.00  0.00    -0.492 OA
ATOM      2  O   UNL     1      -4.709 -10.142  15.157  0.00  0.00    -0.274 OA
ATOM      5  N   UNL     1      -4.516 -12.417  14.766  0.00  0.00    -0.300 N 
ATOM      6  N   UNL     1      -6.608 -11.040  12.845  0.00  0.00    -0.304 NA
ATOM      9  C   UNL     1      -2.312 -13.049  13.840  0.00  0.00    +0.010 C 
ATOM     10  C   UNL     1      -2.806 -14.519  13.727  0.00  0.00    +0.006 C 
ATOM     11  C   UNL     1      -4.330 -14.573  13.521  0.00  0.00    +0.023 C 
ATOM     12  C   UNL     1      -3.071 -12.403  15.017  0.00  0.00    +0.111 C 
ATOM     13  C   UNL     1      -2.498 -12.262  12.521  0.00  0.00    +0.008 C 
ATOM     14  C   UNL     1      -5.086 -13.758  14.573  0.00  0.00    +0.108 C 
ATOM     16  C   UNL     1      -1.908 -10.843  12.514  0.00  0.00    +0.041 C 
ATOM     17  C   UNL     1      -5.218 -11.211  14.796  0.00  0.00    +0.229 C 
ATOM     18  C   UNL     1      -2.476 -10.043  11.338  0.00  0.00    +0.229 C 
ATOM     20  C   UNL     1      -6.651 -11.198  14.299  0.00  0.00    +0.178 C 
ATOM     21  C   UNL     1      -6.517  -9.629  12.452  0.00  0.00    +0.120 C 
ATOM     22  C   UNL     1      -4.719  -9.501  10.642  0.00  0.00    +0.125 A 
ATOM     23  C   UNL     1      -6.082  -9.464  11.010  0.00  0.00    +0.010 A 
ATOM     24  C   UNL     1      -7.056  -9.270  10.019  0.00  0.00    +0.031 A 
ATOM     25  C   UNL     1      -4.357  -9.293   9.308  0.00  0.00    +0.048 A 
ATOM     26  C   UNL     1      -6.685  -9.087   8.688  0.00  0.00    +0.030 A 
ATOM     27  C   UNL     1      -5.338  -9.090   8.336  0.00  0.00    +0.027 A 
ATOM     33  H   UNL     1      -7.458 -11.432  12.439  0.00  0.00    +0.123 HD
ENDROOT
BRANCH  26   7
ATOM      7  N   UNL     1      -7.672  -8.906   7.699  0.00  0.00    -0.332 N 
ATOM     30  C   UNL     1      -8.531 -10.007   7.309  0.00  0.00    +0.129 C 
BRANCH   7  28
ATOM     28  C   UNL     1      -7.847  -7.615   7.063  0.00  0.00    +0.120 C 
BRANCH  28  29
ATOM     29  C   UNL     1      -8.048  -6.544   8.126  0.00  0.00    +0.102 C 
BRANCH  29   8
ATOM      8  N   UNL     1      -9.444  -6.132   8.174  0.00  0.00    -0.307 NA
ATOM     31  C   UNL     1     -10.217  -7.019   9.046  0.00  0.00    +0.104 C 
ATOM     32  C   UNL     1      -9.558  -4.746   8.634  0.00  0.00    +0.104 C 
ENDBRANCH  29   8
ENDBRANCH  28  29
ENDBRANCH   7  28
ENDBRANCH  26   7
BRANCH  10  15
ATOM     15  C   UNL     1      -2.085 -15.323  12.646  0.00  0.00    +0.124 C 
BRANCH  15  19
ATOM      4  O   UNL     1      -0.779 -16.919  13.945  0.00  0.00    -0.251 OA
ATOM     19  C   UNL     1      -0.837 -15.972  13.176  0.00  0.00    +0.305 C 
BRANCH  19   3
ATOM      3  O   UNL     1       0.256 -15.345  12.669  0.00  0.00    -0.481 OA
ATOM     34  H   UNL     1       0.386 -15.549  11.719  0.00  0.00    +0.295 HD
ENDBRANCH  19   3
ENDBRANCH  15  19
ENDBRANCH  10  15
TORSDOF 7
ENDMDL
MODEL 9
REMARK VINA RESULT:      -5.8     28.572     31.445
REMARK  Name = 56776145
REMARK  10 active torsions:
REMARK  status: ('A' for Active; 'I' for Inactive)
REMARK    1  A    between atoms: O_3  and  C_19
REMARK    2  A    between atoms: N_7  and  C_26
REMARK    3  A    between atoms: N_7  and  C_28
REMARK    4  A    between atoms: N_7  and  C_30
REMARK    5  A    between atoms: N_8  and  C_29
REMARK    6  A    between atoms: N_8  and  C_31
REMARK    7  A    between atoms: N_8  and  C_32
REMARK    8  A    between atoms: C_10  and  C_15
REMARK    9  A    between atoms: C_15  and  C_19
REMARK   10  A    between atoms: C_28  and  C_29
REMARK                            x       y       z     vdW  Elec       q    Type
REMARK                         _______ _______ _______ _____ _____    ______ ____
ROOT
ATOM      1  O   UNL     1      -5.492 -10.222  17.613  0.00  0.00    -0.492 OA
ATOM      2  O   UNL     1      -8.736  -8.657  17.175  0.00  0.00    -0.274 OA
ATOM      5  N   UNL     1      -9.616 -10.783  17.441  0.00  0.00    -0.300 N 
ATOM      6  N   UNL     1      -7.538 -10.629  15.069  0.00  0.00    -0.304 NA
ATOM      9  C   UNL     1      -8.907 -11.858  19.552  0.00  0.00    +0.010 C 
ATOM     10  C   UNL     1      -9.671 -13.144  19.126  0.00  0.00    +0.006 C 
ATOM     11  C   UNL     1      -9.721 -13.273  17.593  0.00  0.00    +0.023 C 
ATOM     12  C   UNL     1      -9.634 -10.663  18.902  0.00  0.00    +0.111 C 
ATOM     13  C   UNL     1      -7.409 -11.910  19.171  0.00  0.00    +0.008 C 
ATOM     14  C   UNL     1     -10.252 -12.003  16.923  0.00  0.00    +0.108 C 
ATOM     16  C   UNL     1      -6.562 -10.733  19.681  0.00  0.00    +0.041 C 
ATOM     17  C   UNL     1      -9.078  -9.740  16.684  0.00  0.00    +0.229 C 
ATOM     18  C   UNL     1      -5.223 -10.689  18.938  0.00  0.00    +0.229 C 
ATOM     20  C   UNL     1      -8.840  -9.972  15.204  0.00  0.00    +0.178 C 
ATOM     21  C   UNL     1      -6.437  -9.659  15.039  0.00  0.00    +0.120 C 
ATOM     22  C   UNL     1      -4.636 -10.568  16.603  0.00  0.00    +0.125 A 
ATOM     23  C   UNL     1      -5.094 -10.311  15.293  0.00  0.00    +0.010 A 
ATOM     24  C   UNL     1      -4.288 -10.668  14.201  0.00  0.00    +0.031 A 
ATOM     25  C   UNL     1      -3.367 -11.124  16.796  0.00  0.00    +0.048 A 
ATOM     26  C   UNL     1      -3.036 -11.243  14.404  0.00  0.00    +0.030 A 
ATOM     27  C   UNL     1      -2.573 -11.462  15.699  0.00  0.00    +0.027 A 
ATOM     33  H   UNL     1      -7.520 -11.163  14.199  0.00  0.00    +0.123 HD
ENDROOT
BRANCH  26   7
ATOM      7  N   UNL     1      -2.240 -11.609  13.300  0.00  0.00    -0.332 N 
ATOM     30  C   UNL     1      -2.011 -10.673  12.217  0.00  0.00    +0.129 C 
BRANCH   7  28
ATOM     28  C   UNL     1      -1.633 -12.924  13.236  0.00  0.00    +0.120 C 
BRANCH  28  29
ATOM     29  C   UNL     1      -2.579 -13.891  12.539  0.00  0.00    +0.102 C 
BRANCH  29   8
ATOM      8  N   UNL     1      -2.795 -15.073  13.363  0.00  0.00    -0.307 NA
ATOM     31  C   UNL     1      -1.543 -15.499  13.994  0.00  0.00    +0.104 C 
ATOM     32  C   UNL     1      -3.812 -14.812  14.383  0.00  0.00    +0.104 C 
ENDBRANCH  29   8
ENDBRANCH  28  29
ENDBRANCH   7  28
ENDBRANCH  26   7
BRANCH  10  15
ATOM     15  C   UNL     1      -9.115 -14.420  19.757  0.00  0.00    +0.124 C 
BRANCH  15  19
ATOM      4  O   UNL     1     -10.567 -14.139  21.694  0.00  0.00    -0.251 OA
ATOM     19  C   UNL     1      -9.534 -14.557  21.195  0.00  0.00    +0.305 C 
BRANCH  19   3
ATOM      3  O   UNL     1      -8.580 -15.231  21.888  0.00  0.00    -0.481 OA
ATOM     34  H   UNL     1      -7.692 -14.833  21.769  0.00  0.00    +0.295 HD
ENDBRANCH  19   3
ENDBRANCH  15  19
ENDBRANCH  10  15
TORSDOF 7
ENDMDL
MODEL 10
REMARK VINA RESULT:      -5.8     28.439     31.581
REMARK  Name = 56776145
REMARK  10 active torsions:
REMARK  status: ('A' for Active; 'I' for Inactive)
REMARK    1  A    between atoms: O_3  and  C_19
REMARK    2  A    between atoms: N_7  and  C_26
REMARK    3  A    between atoms: N_7  and  C_28
REMARK    4  A    between atoms: N_7  and  C_30
REMARK    5  A    between atoms: N_8  and  C_29
REMARK    6  A    between atoms: N_8  and  C_31
REMARK    7  A    between atoms: N_8  and  C_32
REMARK    8  A    between atoms: C_10  and  C_15
REMARK    9  A    between atoms: C_15  and  C_19
REMARK   10  A    between atoms: C_28  and  C_29
REMARK                            x       y       z     vdW  Elec       q    Type
REMARK                         _______ _______ _______ _____ _____    ______ ____
ROOT
ATOM      1  O   UNL     1      -3.613 -11.810  16.489  0.00  0.00    -0.492 OA
ATOM      2  O   UNL     1      -2.491 -14.575  14.425  0.00  0.00    -0.274 OA
ATOM      5  N   UNL     1      -3.454 -13.432  12.655  0.00  0.00    -0.300 N 
ATOM      6  N   UNL     1      -5.517 -14.023  14.970  0.00  0.00    -0.304 NA
ATOM      9  C   UNL     1      -2.588 -11.128  12.416  0.00  0.00    +0.010 C 
ATOM     10  C   UNL     1      -3.589 -10.898  11.249  0.00  0.00    +0.006 C 
ATOM     11  C   UNL     1      -4.847 -11.768  11.422  0.00  0.00    +0.023 C 
ATOM     12  C   UNL     1      -2.245 -12.632  12.432  0.00  0.00    +0.111 C 
ATOM     13  C   UNL     1      -3.146 -10.641  13.775  0.00  0.00    +0.008 C 
ATOM     14  C   UNL     1      -4.505 -13.242  11.645  0.00  0.00    +0.108 C 
ATOM     16  C   UNL     1      -2.160 -10.711  14.952  0.00  0.00    +0.041 C 
ATOM     17  C   UNL     1      -3.483 -14.324  13.729  0.00  0.00    +0.229 C 
ATOM     18  C   UNL     1      -2.916 -10.579  16.278  0.00  0.00    +0.229 C 
ATOM     20  C   UNL     1      -4.808 -14.963  14.100  0.00  0.00    +0.178 C 
ATOM     21  C   UNL     1      -5.115 -14.170  16.375  0.00  0.00    +0.120 C 
ATOM     22  C   UNL     1      -4.740 -11.806  17.266  0.00  0.00    +0.125 A 
ATOM     23  C   UNL     1      -5.526 -12.978  17.214  0.00  0.00    +0.010 A 
ATOM     24  C   UNL     1      -6.715 -13.040  17.956  0.00  0.00    +0.031 A 
ATOM     25  C   UNL     1      -5.129 -10.748  18.093  0.00  0.00    +0.048 A 
ATOM     26  C   UNL     1      -7.105 -11.971  18.760  0.00  0.00    +0.030 A 
ATOM     27  C   UNL     1      -6.308 -10.831  18.835  0.00  0.00    +0.027 A 
ATOM     33  H   UNL     1      -6.521 -14.195  14.903  0.00  0.00    +0.123 HD
ENDROOT
BRANCH  26   7
ATOM      7  N   UNL     1      -8.307 -12.039  19.492  0.00  0.00    -0.332 N 
ATOM     30  C   UNL     1      -9.214 -10.908  19.522  0.00  0.00    +0.129 C 
BRANCH   7  28
ATOM     28  C   UNL     1      -8.658 -13.243  20.218  0.00  0.00    +0.120 C 
BRANCH  28  29
ATOM     29  C   UNL     1     -10.172 -13.407  20.238  0.00  0.00    +0.102 C 
BRANCH  29   8
ATOM      8  N   UNL     1     -10.618 -13.842  21.556  0.00  0.00    -0.307 NA
ATOM     31  C   UNL     1     -12.067 -13.679  21.691  0.00  0.00    +0.104 C 
ATOM     32  C   UNL     1     -10.241 -15.237  21.794  0.00  0.00    +0.104 C 
ENDBRANCH  29   8
ENDBRANCH  28  29
ENDBRANCH   7  28
ENDBRANCH  26   7
BRANCH  10  15
ATOM     15  C   UNL     1      -3.969  -9.431  11.052  0.00  0.00    +0.124 C 
BRANCH  15  19
ATOM      4  O   UNL     1      -4.378  -9.678   8.662  0.00  0.00    -0.251 OA
ATOM     19  C   UNL     1      -4.686  -9.213   9.748  0.00  0.00    +0.305 C 
BRANCH  19   3
ATOM      3  O   UNL     1      -5.760  -8.406   9.946  0.00  0.00    -0.481 OA
ATOM     34  H   UNL     1      -6.490  -8.610   9.324  0.00  0.00    +0.295 HD
ENDBRANCH  19   3
ENDBRANCH  15  19
ENDBRANCH  10  15
TORSDOF 7
ENDMDL
