REMARK  Name = 40780420
REMARK  8 active torsions:
REMARK  status: ('A' for Active; 'I' for Inactive)
REMARK    1  A    between atoms: N_4  and  C_10
REMARK    2  A    between atoms: N_4  and  C_16
REMARK    3  A    between atoms: N_5  and  C_19
REMARK    4  A    between atoms: N_7  and  C_21
REMARK    5  A    between atoms: C_8  and  C_11
REMARK    6  A    between atoms: C_14  and  C_17
REMARK    7  A    between atoms: C_15  and  C_18
REMARK    8  A    between atoms: C_16  and  C_20
REMARK                            x       y       z     vdW  Elec       q    Type
REMARK                         _______ _______ _______ _____ _____    ______ ____
ROOT
ATOM      5  N   UNL     1       3.294   0.091  -0.495  0.00  0.00    -0.234 N 
ATOM      6  N   UNL     1       3.185   1.259  -1.151  0.00  0.00    -0.171 NA
ATOM     11  C   UNL     1       1.165   0.555  -0.349  0.00  0.00    +0.003 A 
ATOM     14  C   UNL     1       2.113  -0.373   0.004  0.00  0.00    +0.046 A 
ATOM     15  C   UNL     1       1.882   1.538  -1.059  0.00  0.00    +0.064 A 
ATOM     17  C   UNL     1       1.993  -1.637   0.759  0.00  0.00    +0.066 C 
ATOM     18  C   UNL     1       1.359   2.771  -1.673  0.00  0.00    +0.068 C 
ENDROOT
BRANCH   5  19
ATOM     19  C   UNL     1       4.541  -0.524  -0.381  0.00  0.00    +0.096 A 
ATOM     21  C   UNL     1       5.609   0.114   0.253  0.00  0.00    +0.151 A 
ATOM     22  C   UNL     1       4.710  -1.802  -0.914  0.00  0.00    +0.030 A 
ATOM     25  C   UNL     1       6.844  -0.527   0.352  0.00  0.00    +0.035 A 
ATOM     26  C   UNL     1       5.945  -2.442  -0.814  0.00  0.00    +0.002 A 
ATOM     27  C   UNL     1       7.012  -1.805  -0.181  0.00  0.00    +0.002 A 
BRANCH  21   7
ATOM      2  O   UNL     1       5.717   2.411   0.085  0.00  0.00    -0.126 OA
ATOM      3  O   UNL     1       5.106   1.531   2.001  0.00  0.00    -0.126 OA
ATOM      7  N   UNL     1       5.470   1.418   0.807  0.00  0.00    +0.059 N 
ENDBRANCH  21   7
ENDBRANCH   5  19
BRANCH  11   8
ATOM      8  C   UNL     1      -0.315   0.526  -0.045  0.00  0.00    +0.047 C 
ATOM      9  C   UNL     1      -1.030  -0.711  -0.622  0.00  0.00    +0.035 C 
ATOM     10  C   UNL     1      -2.139  -1.071   0.381  0.00  0.00    +0.078 C 
ATOM     12  C   UNL     1      -0.654   0.437   1.414  0.00  0.00    -0.021 C 
ATOM     13  C   UNL     1      -1.651  -0.426   1.640  0.00  0.00    -0.012 C 
BRANCH  10   4
ATOM      4  N   UNL     1      -3.436  -0.539  -0.022  0.00  0.00    -0.306 NA
ATOM     31  H   UNL     1      -3.587  -0.737  -1.012  0.00  0.00    +0.123 HD
BRANCH   4  16
ATOM     16  C   UNL     1      -4.513  -1.143   0.751  0.00  0.00    +0.116 C 
BRANCH  16  20
ATOM      1  F   UNL     1      -9.555   0.899  -0.716  0.00  0.00    -0.205 F 
ATOM     20  C   UNL     1      -5.860  -0.597   0.359  0.00  0.00    -0.033 A 
ATOM     23  C   UNL     1      -6.374   0.525   1.009  0.00  0.00    +0.008 A 
ATOM     24  C   UNL     1      -6.594  -1.213  -0.655  0.00  0.00    +0.008 A 
ATOM     28  C   UNL     1      -7.622   1.030   0.646  0.00  0.00    +0.038 A 
ATOM     29  C   UNL     1      -7.842  -0.708  -1.018  0.00  0.00    +0.038 A 
ATOM     30  C   UNL     1      -8.356   0.414  -0.368  0.00  0.00    +0.123 A 
ENDBRANCH  16  20
ENDBRANCH   4  16
ENDBRANCH  10   4
ENDBRANCH  11   8
TORSDOF 6
