MODEL 1
REMARK VINA RESULT:      -7.4      0.000      0.000
REMARK  Name = 26743750
REMARK  7 active torsions:
REMARK  status: ('A' for Active; 'I' for Inactive)
REMARK    1  A    between atoms: O_4  and  C_14
REMARK    2  A    between atoms: O_6  and  C_27
REMARK    3  A    between atoms: O_6  and  C_28
REMARK    4  A    between atoms: N_7  and  C_16
REMARK    5  A    between atoms: C_12  and  C_17
REMARK    6  A    between atoms: C_16  and  C_18
REMARK    7  A    between atoms: C_19  and  C_21
REMARK                            x       y       z     vdW  Elec       q    Type
REMARK                         _______ _______ _______ _____ _____    ______ ____
ROOT
ATOM      5  O   UNL     1      14.779   8.548  20.687  0.00  0.00    -0.336 OA
ATOM      8  N   UNL     1      15.402   6.551  19.888  0.00  0.00    -0.190 NA
ATOM     11  N   UNL     1      16.155   8.446  20.928  0.00  0.00    -0.056 NA
ATOM     17  C   UNL     1      14.416   7.393  20.072  0.00  0.00    +0.245 A 
ATOM     19  C   UNL     1      16.449   7.241  20.429  0.00  0.00    +0.202 A 
ENDROOT
BRANCH  19  21
ATOM     21  C   UNL     1      17.775   6.697  20.456  0.00  0.00    +0.023 A 
ATOM     23  C   UNL     1      18.756   7.289  21.253  0.00  0.00    +0.015 A 
ATOM     24  C   UNL     1      18.085   5.577  19.684  0.00  0.00    +0.015 A 
ATOM     25  C   UNL     1      20.047   6.760  21.277  0.00  0.00    +0.046 A 
ATOM     26  C   UNL     1      19.376   5.048  19.709  0.00  0.00    +0.046 A 
ATOM     27  C   UNL     1      20.357   5.640  20.506  0.00  0.00    +0.130 A 
BRANCH  27   6
ATOM      6  O   UNL     1      21.616   5.124  20.530  0.00  0.00    -0.406 OA
BRANCH   6  28
ATOM      1  F   UNL     1      21.432   4.239  22.598  0.00  0.00    -0.133 F 
ATOM      2  F   UNL     1      21.182   2.906  20.884  0.00  0.00    -0.133 F 
ATOM      3  F   UNL     1      23.179   3.699  21.400  0.00  0.00    -0.133 F 
ATOM     28  C   UNL     1      21.860   3.980  21.341  0.00  0.00    +0.575 C 
ENDBRANCH   6  28
ENDBRANCH  27   6
ENDBRANCH  19  21
BRANCH  17  12
ATOM      7  N   UNL     1      12.128   8.362  20.220  0.00  0.00    -0.282 NA
ATOM     12  C   UNL     1      12.955   7.255  19.700  0.00  0.00    +0.149 C 
ATOM     13  C   UNL     1      12.724   7.272  18.177  0.00  0.00    +0.061 C 
ATOM     14  C   UNL     1      11.718   8.393  17.944  0.00  0.00    +0.130 C 
ATOM     15  C   UNL     1      11.019   8.526  19.283  0.00  0.00    +0.117 C 
BRANCH  14   4
ATOM      4  O   UNL     1      10.815   8.050  16.911  0.00  0.00    -0.390 OA
ATOM     29  H   UNL     1      10.753   8.815  16.312  0.00  0.00    +0.210 HD
ENDBRANCH  14   4
BRANCH   7  16
ATOM     16  C   UNL     1      11.665   8.141  21.584  0.00  0.00    +0.159 C 
BRANCH  16  18
ATOM      9  N   UNL     1      12.850  10.061  22.677  0.00  0.00    -0.347 N 
ATOM     10  N   UNL     1      10.641  10.032  22.905  0.00  0.00    -0.239 NA
ATOM     18  C   UNL     1      11.680   9.412  22.393  0.00  0.00    +0.121 A 
ATOM     20  C   UNL     1      12.536  11.165  23.418  0.00  0.00    +0.104 A 
ATOM     22  C   UNL     1      11.167  11.126  23.546  0.00  0.00    +0.130 A 
ATOM     30  H   UNL     1      13.778   9.779  22.390  0.00  0.00    +0.167 HD
ENDBRANCH  16  18
ENDBRANCH   7  16
ENDBRANCH  17  12
TORSDOF 7
ENDMDL
MODEL 2
REMARK VINA RESULT:      -7.3      2.024      3.607
REMARK  Name = 26743750
REMARK  7 active torsions:
REMARK  status: ('A' for Active; 'I' for Inactive)
REMARK    1  A    between atoms: O_4  and  C_14
REMARK    2  A    between atoms: O_6  and  C_27
REMARK    3  A    between atoms: O_6  and  C_28
REMARK    4  A    between atoms: N_7  and  C_16
REMARK    5  A    between atoms: C_12  and  C_17
REMARK    6  A    between atoms: C_16  and  C_18
REMARK    7  A    between atoms: C_19  and  C_21
REMARK                            x       y       z     vdW  Elec       q    Type
REMARK                         _______ _______ _______ _____ _____    ______ ____
ROOT
ATOM      5  O   UNL     1      14.410   6.713  19.463  0.00  0.00    -0.336 OA
ATOM      8  N   UNL     1      15.616   7.540  21.159  0.00  0.00    -0.190 NA
ATOM     11  N   UNL     1      15.704   6.203  19.304  0.00  0.00    -0.056 NA
ATOM     17  C   UNL     1      14.444   7.489  20.577  0.00  0.00    +0.245 A 
ATOM     19  C   UNL     1      16.357   6.736  20.341  0.00  0.00    +0.202 A 
ENDROOT
BRANCH  19  21
ATOM     21  C   UNL     1      17.747   6.487  20.589  0.00  0.00    +0.023 A 
ATOM     23  C   UNL     1      18.428   5.522  19.845  0.00  0.00    +0.015 A 
ATOM     24  C   UNL     1      18.419   7.208  21.577  0.00  0.00    +0.015 A 
ATOM     25  C   UNL     1      19.779   5.279  20.089  0.00  0.00    +0.046 A 
ATOM     26  C   UNL     1      19.771   6.965  21.819  0.00  0.00    +0.046 A 
ATOM     27  C   UNL     1      20.451   6.000  21.075  0.00  0.00    +0.130 A 
BRANCH  27   6
ATOM      6  O   UNL     1      21.770   5.763  21.312  0.00  0.00    -0.406 OA
BRANCH   6  28
ATOM      1  F   UNL     1      21.418   3.618  21.919  0.00  0.00    -0.133 F 
ATOM      2  F   UNL     1      23.430   4.437  22.161  0.00  0.00    -0.133 F 
ATOM      3  F   UNL     1      21.792   5.084  23.496  0.00  0.00    -0.133 F 
ATOM     28  C   UNL     1      22.114   4.734  22.233  0.00  0.00    +0.575 C 
ENDBRANCH   6  28
ENDBRANCH  27   6
ENDBRANCH  19  21
BRANCH  17  12
ATOM      7  N   UNL     1      12.308   8.510  19.807  0.00  0.00    -0.282 NA
ATOM     12  C   UNL     1      13.147   8.163  20.972  0.00  0.00    +0.149 C 
ATOM     13  C   UNL     1      12.253   7.269  21.849  0.00  0.00    +0.061 C 
ATOM     14  C   UNL     1      10.918   7.207  21.117  0.00  0.00    +0.130 C 
ATOM     15  C   UNL     1      10.922   8.463  20.266  0.00  0.00    +0.117 C 
BRANCH  14   4
ATOM      4  O   UNL     1       9.842   7.199  22.035  0.00  0.00    -0.390 OA
ATOM     29  H   UNL     1       9.420   8.075  21.999  0.00  0.00    +0.210 HD
ENDBRANCH  14   4
BRANCH   7  16
ATOM     16  C   UNL     1      12.648   9.799  19.218  0.00  0.00    +0.159 C 
BRANCH  16  18
ATOM      9  N   UNL     1      12.162   9.734  16.760  0.00  0.00    -0.347 N 
ATOM     10  N   UNL     1      14.292   9.473  17.331  0.00  0.00    -0.239 NA
ATOM     18  C   UNL     1      13.072   9.664  17.779  0.00  0.00    +0.121 A 
ATOM     20  C   UNL     1      12.847   9.577  15.588  0.00  0.00    +0.104 A 
ATOM     22  C   UNL     1      14.160   9.417  15.966  0.00  0.00    +0.130 A 
ATOM     30  H   UNL     1      11.166   9.878  16.854  0.00  0.00    +0.167 HD
ENDBRANCH  16  18
ENDBRANCH   7  16
ENDBRANCH  17  12
TORSDOF 7
ENDMDL
MODEL 3
REMARK VINA RESULT:      -7.1      1.813      3.397
REMARK  Name = 26743750
REMARK  7 active torsions:
REMARK  status: ('A' for Active; 'I' for Inactive)
REMARK    1  A    between atoms: O_4  and  C_14
REMARK    2  A    between atoms: O_6  and  C_27
REMARK    3  A    between atoms: O_6  and  C_28
REMARK    4  A    between atoms: N_7  and  C_16
REMARK    5  A    between atoms: C_12  and  C_17
REMARK    6  A    between atoms: C_16  and  C_18
REMARK    7  A    between atoms: C_19  and  C_21
REMARK                            x       y       z     vdW  Elec       q    Type
REMARK                         _______ _______ _______ _____ _____    ______ ____
ROOT
ATOM      5  O   UNL     1      15.101   9.600  21.669  0.00  0.00    -0.336 OA
ATOM      8  N   UNL     1      15.397   7.735  20.466  0.00  0.00    -0.190 NA
ATOM     11  N   UNL     1      16.458   9.277  21.782  0.00  0.00    -0.056 NA
ATOM     17  C   UNL     1      14.549   8.644  20.878  0.00  0.00    +0.245 A 
ATOM     19  C   UNL     1      16.555   8.165  21.046  0.00  0.00    +0.202 A 
ENDROOT
BRANCH  19  21
ATOM     21  C   UNL     1      17.791   7.460  20.871  0.00  0.00    +0.023 A 
ATOM     23  C   UNL     1      17.815   6.255  20.168  0.00  0.00    +0.015 A 
ATOM     24  C   UNL     1      18.971   7.978  21.406  0.00  0.00    +0.015 A 
ATOM     25  C   UNL     1      19.017   5.568  20.001  0.00  0.00    +0.046 A 
ATOM     26  C   UNL     1      20.174   7.292  21.238  0.00  0.00    +0.046 A 
ATOM     27  C   UNL     1      20.197   6.086  20.536  0.00  0.00    +0.130 A 
BRANCH  27   6
ATOM      6  O   UNL     1      21.370   5.417  20.373  0.00  0.00    -0.406 OA
BRANCH   6  28
ATOM      1  F   UNL     1      20.964   3.234  20.778  0.00  0.00    -0.133 F 
ATOM      2  F   UNL     1      22.956   4.010  21.231  0.00  0.00    -0.133 F 
ATOM      3  F   UNL     1      21.227   4.566  22.491  0.00  0.00    -0.133 F 
ATOM     28  C   UNL     1      21.641   4.313  21.230  0.00  0.00    +0.575 C 
ENDBRANCH   6  28
ENDBRANCH  27   6
ENDBRANCH  19  21
BRANCH  17  12
ATOM      7  N   UNL     1      12.366   7.471  20.639  0.00  0.00    -0.282 NA
ATOM     12  C   UNL     1      13.066   8.771  20.598  0.00  0.00    +0.149 C 
ATOM     13  C   UNL     1      12.336   9.645  21.634  0.00  0.00    +0.061 C 
ATOM     14  C   UNL     1      11.215   8.765  22.171  0.00  0.00    +0.130 C 
ATOM     15  C   UNL     1      10.997   7.752  21.063  0.00  0.00    +0.117 C 
BRANCH  14   4
ATOM      4  O   UNL     1      10.051   9.530  22.420  0.00  0.00    -0.390 OA
ATOM     29  H   UNL     1       9.772   9.921  21.574  0.00  0.00    +0.210 HD
ENDBRANCH  14   4
BRANCH   7  16
ATOM     16  C   UNL     1      12.411   6.754  19.371  0.00  0.00    +0.159 C 
BRANCH  16  18
ATOM      9  N   UNL     1      13.555   8.020  17.535  0.00  0.00    -0.347 N 
ATOM     10  N   UNL     1      11.355   8.293  17.672  0.00  0.00    -0.239 NA
ATOM     18  C   UNL     1      12.402   7.694  18.195  0.00  0.00    +0.121 A 
ATOM     20  C   UNL     1      13.221   8.882  16.529  0.00  0.00    +0.104 A 
ATOM     22  C   UNL     1      11.859   9.036  16.633  0.00  0.00    +0.130 A 
ATOM     30  H   UNL     1      14.484   7.683  17.749  0.00  0.00    +0.167 HD
ENDBRANCH  16  18
ENDBRANCH   7  16
ENDBRANCH  17  12
TORSDOF 7
ENDMDL
MODEL 4
REMARK VINA RESULT:      -7.0      4.917      8.856
REMARK  Name = 26743750
REMARK  7 active torsions:
REMARK  status: ('A' for Active; 'I' for Inactive)
REMARK    1  A    between atoms: O_4  and  C_14
REMARK    2  A    between atoms: O_6  and  C_27
REMARK    3  A    between atoms: O_6  and  C_28
REMARK    4  A    between atoms: N_7  and  C_16
REMARK    5  A    between atoms: C_12  and  C_17
REMARK    6  A    between atoms: C_16  and  C_18
REMARK    7  A    between atoms: C_19  and  C_21
REMARK                            x       y       z     vdW  Elec       q    Type
REMARK                         _______ _______ _______ _____ _____    ______ ____
ROOT
ATOM      5  O   UNL     1      19.291   7.858  21.878  0.00  0.00    -0.336 OA
ATOM      8  N   UNL     1      18.176   6.241  20.802  0.00  0.00    -0.190 NA
ATOM     11  N   UNL     1      17.960   8.285  21.808  0.00  0.00    -0.056 NA
ATOM     17  C   UNL     1      19.332   6.647  21.264  0.00  0.00    +0.245 A 
ATOM     19  C   UNL     1      17.365   7.279  21.161  0.00  0.00    +0.202 A 
ENDROOT
BRANCH  19  21
ATOM     21  C   UNL     1      15.964   7.279  20.854  0.00  0.00    +0.023 A 
ATOM     23  C   UNL     1      15.027   7.491  21.867  0.00  0.00    +0.015 A 
ATOM     24  C   UNL     1      15.537   7.066  19.543  0.00  0.00    +0.015 A 
ATOM     25  C   UNL     1      13.665   7.488  21.567  0.00  0.00    +0.046 A 
ATOM     26  C   UNL     1      14.175   7.065  19.244  0.00  0.00    +0.046 A 
ATOM     27  C   UNL     1      13.238   7.276  20.257  0.00  0.00    +0.130 A 
BRANCH  27   6
ATOM      6  O   UNL     1      11.909   7.274  19.965  0.00  0.00    -0.406 OA
BRANCH   6  28
ATOM      1  F   UNL     1      10.475   8.687  20.985  0.00  0.00    -0.133 F 
ATOM      2  F   UNL     1      12.117   9.548  19.828  0.00  0.00    -0.133 F 
ATOM      3  F   UNL     1      10.421   8.567  18.804  0.00  0.00    -0.133 F 
ATOM     28  C   UNL     1      11.236   8.526  19.880  0.00  0.00    +0.575 C 
ENDBRANCH   6  28
ENDBRANCH  27   6
ENDBRANCH  19  21
BRANCH  17  12
ATOM      7  N   UNL     1      21.149   5.513  22.533  0.00  0.00    -0.282 NA
ATOM     12  C   UNL     1      20.682   5.963  21.206  0.00  0.00    +0.149 C 
ATOM     13  C   UNL     1      20.668   4.690  20.341  0.00  0.00    +0.061 C 
ATOM     14  C   UNL     1      21.186   3.587  21.255  0.00  0.00    +0.130 C 
ATOM     15  C   UNL     1      21.987   4.339  22.300  0.00  0.00    +0.117 C 
BRANCH  14   4
ATOM      4  O   UNL     1      21.990   2.673  20.534  0.00  0.00    -0.390 OA
ATOM     29  H   UNL     1      22.514   2.171  21.182  0.00  0.00    +0.210 HD
ENDBRANCH  14   4
BRANCH   7  16
ATOM     16  C   UNL     1      21.854   6.551  23.275  0.00  0.00    +0.159 C 
BRANCH  16  18
ATOM      9  N   UNL     1      20.608   7.969  24.924  0.00  0.00    -0.347 N 
ATOM     10  N   UNL     1      21.212   5.957  25.643  0.00  0.00    -0.239 NA
ATOM     18  C   UNL     1      21.235   6.790  24.627  0.00  0.00    +0.121 A 
ATOM     20  C   UNL     1      20.158   7.881  26.211  0.00  0.00    +0.104 A 
ATOM     22  C   UNL     1      20.543   6.631  26.634  0.00  0.00    +0.130 A 
ATOM     30  H   UNL     1      20.495   8.761  24.306  0.00  0.00    +0.167 HD
ENDBRANCH  16  18
ENDBRANCH   7  16
ENDBRANCH  17  12
TORSDOF 7
ENDMDL
MODEL 5
REMARK VINA RESULT:      -6.9      1.499      2.111
REMARK  Name = 26743750
REMARK  7 active torsions:
REMARK  status: ('A' for Active; 'I' for Inactive)
REMARK    1  A    between atoms: O_4  and  C_14
REMARK    2  A    between atoms: O_6  and  C_27
REMARK    3  A    between atoms: O_6  and  C_28
REMARK    4  A    between atoms: N_7  and  C_16
REMARK    5  A    between atoms: C_12  and  C_17
REMARK    6  A    between atoms: C_16  and  C_18
REMARK    7  A    between atoms: C_19  and  C_21
REMARK                            x       y       z     vdW  Elec       q    Type
REMARK                         _______ _______ _______ _____ _____    ______ ____
ROOT
ATOM      5  O   UNL     1      15.709   8.110  20.186  0.00  0.00    -0.336 OA
ATOM      8  N   UNL     1      16.702   6.260  19.407  0.00  0.00    -0.190 NA
ATOM     11  N   UNL     1      16.934   8.015  20.858  0.00  0.00    -0.056 NA
ATOM     17  C   UNL     1      15.652   7.041  19.352  0.00  0.00    +0.245 A 
ATOM     19  C   UNL     1      17.462   6.899  20.344  0.00  0.00    +0.202 A 
ENDROOT
BRANCH  19  21
ATOM     21  C   UNL     1      18.742   6.394  20.747  0.00  0.00    +0.023 A 
ATOM     23  C   UNL     1      19.357   6.888  21.899  0.00  0.00    +0.015 A 
ATOM     24  C   UNL     1      19.375   5.411  19.986  0.00  0.00    +0.015 A 
ATOM     25  C   UNL     1      20.603   6.398  22.288  0.00  0.00    +0.046 A 
ATOM     26  C   UNL     1      20.621   4.921  20.376  0.00  0.00    +0.046 A 
ATOM     27  C   UNL     1      21.235   5.415  21.527  0.00  0.00    +0.130 A 
BRANCH  27   6
ATOM      6  O   UNL     1      22.451   4.936  21.907  0.00  0.00    -0.406 OA
BRANCH   6  28
ATOM      1  F   UNL     1      22.940   2.995  20.865  0.00  0.00    -0.133 F 
ATOM      2  F   UNL     1      23.589   3.240  22.937  0.00  0.00    -0.133 F 
ATOM      3  F   UNL     1      21.449   2.957  22.462  0.00  0.00    -0.133 F 
ATOM     28  C   UNL     1      22.604   3.529  22.060  0.00  0.00    +0.575 C 
ENDBRANCH   6  28
ENDBRANCH  27   6
ENDBRANCH  19  21
BRANCH  17  12
ATOM      7  N   UNL     1      13.219   7.523  19.132  0.00  0.00    -0.282 NA
ATOM     12  C   UNL     1      14.406   6.914  18.500  0.00  0.00    +0.149 C 
ATOM     13  C   UNL     1      14.538   7.626  17.141  0.00  0.00    +0.061 C 
ATOM     14  C   UNL     1      13.356   8.585  17.082  0.00  0.00    +0.130 C 
ATOM     15  C   UNL     1      12.355   7.972  18.043  0.00  0.00    +0.117 C 
BRANCH  14   4
ATOM      4  O   UNL     1      12.840   8.666  15.768  0.00  0.00    -0.390 OA
ATOM     29  H   UNL     1      12.878   9.600  15.497  0.00  0.00    +0.210 HD
ENDBRANCH  14   4
BRANCH   7  16
ATOM     16  C   UNL     1      12.528   6.621  20.044  0.00  0.00    +0.159 C 
BRANCH  16  18
ATOM      9  N   UNL     1      10.435   7.128  21.326  0.00  0.00    -0.347 N 
ATOM     10  N   UNL     1      12.229   8.303  21.903  0.00  0.00    -0.239 NA
ATOM     18  C   UNL     1      11.762   7.372  21.102  0.00  0.00    +0.121 A 
ATOM     20  C   UNL     1      10.031   7.957  22.334  0.00  0.00    +0.104 A 
ATOM     22  C   UNL     1      11.155   8.673  22.673  0.00  0.00    +0.130 A 
ATOM     30  H   UNL     1       9.857   6.456  20.839  0.00  0.00    +0.167 HD
ENDBRANCH  16  18
ENDBRANCH   7  16
ENDBRANCH  17  12
TORSDOF 7
ENDMDL
MODEL 6
REMARK VINA RESULT:      -6.8     16.678     19.216
REMARK  Name = 26743750
REMARK  7 active torsions:
REMARK  status: ('A' for Active; 'I' for Inactive)
REMARK    1  A    between atoms: O_4  and  C_14
REMARK    2  A    between atoms: O_6  and  C_27
REMARK    3  A    between atoms: O_6  and  C_28
REMARK    4  A    between atoms: N_7  and  C_16
REMARK    5  A    between atoms: C_12  and  C_17
REMARK    6  A    between atoms: C_16  and  C_18
REMARK    7  A    between atoms: C_19  and  C_21
REMARK                            x       y       z     vdW  Elec       q    Type
REMARK                         _______ _______ _______ _____ _____    ______ ____
ROOT
ATOM      5  O   UNL     1      10.238   4.282   4.965  0.00  0.00    -0.336 OA
ATOM      8  N   UNL     1      10.220   5.702   3.234  0.00  0.00    -0.190 NA
ATOM     11  N   UNL     1      10.825   3.597   3.895  0.00  0.00    -0.056 NA
ATOM     17  C   UNL     1       9.912   5.513   4.492  0.00  0.00    +0.245 A 
ATOM     19  C   UNL     1      10.778   4.499   2.910  0.00  0.00    +0.202 A 
ENDROOT
BRANCH  19  21
ATOM     21  C   UNL     1      11.277   4.231   1.593  0.00  0.00    +0.023 A 
ATOM     23  C   UNL     1      12.509   3.597   1.428  0.00  0.00    +0.015 A 
ATOM     24  C   UNL     1      10.532   4.608   0.475  0.00  0.00    +0.015 A 
ATOM     25  C   UNL     1      12.995   3.339   0.146  0.00  0.00    +0.046 A 
ATOM     26  C   UNL     1      11.018   4.349  -0.807  0.00  0.00    +0.046 A 
ATOM     27  C   UNL     1      12.250   3.715  -0.971  0.00  0.00    +0.130 A 
BRANCH  27   6
ATOM      6  O   UNL     1      12.724   3.463  -2.222  0.00  0.00    -0.406 OA
BRANCH   6  28
ATOM      1  F   UNL     1      12.967   2.076  -3.985  0.00  0.00    -0.133 F 
ATOM      2  F   UNL     1      12.013   1.289  -2.184  0.00  0.00    -0.133 F 
ATOM      3  F   UNL     1      10.950   2.737  -3.469  0.00  0.00    -0.133 F 
ATOM     28  C   UNL     1      12.148   2.388  -2.956  0.00  0.00    +0.575 C 
ENDBRANCH   6  28
ENDBRANCH  27   6
ENDBRANCH  19  21
BRANCH  17  12
ATOM      7  N   UNL     1      10.171   7.516   5.947  0.00  0.00    -0.282 NA
ATOM     12  C   UNL     1       9.253   6.462   5.472  0.00  0.00    +0.149 C 
ATOM     13  C   UNL     1       8.064   7.222   4.857  0.00  0.00    +0.061 C 
ATOM     14  C   UNL     1       8.383   8.695   5.075  0.00  0.00    +0.130 C 
ATOM     15  C   UNL     1       9.342   8.680   6.251  0.00  0.00    +0.117 C 
BRANCH  14   4
ATOM      4  O   UNL     1       7.208   9.427   5.366  0.00  0.00    -0.390 OA
ATOM     29  H   UNL     1       6.535   9.171   4.711  0.00  0.00    +0.210 HD
ENDBRANCH  14   4
BRANCH   7  16
ATOM     16  C   UNL     1      10.976   7.104   7.090  0.00  0.00    +0.159 C 
BRANCH  16  18
ATOM      9  N   UNL     1      10.570   4.793   7.971  0.00  0.00    -0.347 N 
ATOM     10  N   UNL     1       9.259   6.385   8.794  0.00  0.00    -0.239 NA
ATOM     18  C   UNL     1      10.245   6.122   7.966  0.00  0.00    +0.121 A 
ATOM     20  C   UNL     1       9.737   4.171   8.857  0.00  0.00    +0.104 A 
ATOM     22  C   UNL     1       8.937   5.173   9.352  0.00  0.00    +0.130 A 
ATOM     30  H   UNL     1      11.295   4.350   7.421  0.00  0.00    +0.167 HD
ENDBRANCH  16  18
ENDBRANCH   7  16
ENDBRANCH  17  12
TORSDOF 7
ENDMDL
MODEL 7
REMARK VINA RESULT:      -6.7     26.570     29.593
REMARK  Name = 26743750
REMARK  7 active torsions:
REMARK  status: ('A' for Active; 'I' for Inactive)
REMARK    1  A    between atoms: O_4  and  C_14
REMARK    2  A    between atoms: O_6  and  C_27
REMARK    3  A    between atoms: O_6  and  C_28
REMARK    4  A    between atoms: N_7  and  C_16
REMARK    5  A    between atoms: C_12  and  C_17
REMARK    6  A    between atoms: C_16  and  C_18
REMARK    7  A    between atoms: C_19  and  C_21
REMARK                            x       y       z     vdW  Elec       q    Type
REMARK                         _______ _______ _______ _____ _____    ______ ____
ROOT
ATOM      5  O   UNL     1      -5.202 -11.845  16.838  0.00  0.00    -0.336 OA
ATOM      8  N   UNL     1      -5.633 -10.179  15.405  0.00  0.00    -0.190 NA
ATOM     11  N   UNL     1      -6.502 -11.412  17.126  0.00  0.00    -0.056 NA
ATOM     17  C   UNL     1      -4.763 -11.069  15.814  0.00  0.00    +0.245 A 
ATOM     19  C   UNL     1      -6.684 -10.429  16.239  0.00  0.00    +0.202 A 
ENDROOT
BRANCH  19  21
ATOM     21  C   UNL     1      -7.902  -9.675  16.162  0.00  0.00    +0.023 A 
ATOM     23  C   UNL     1      -8.605  -9.605  14.959  0.00  0.00    +0.015 A 
ATOM     24  C   UNL     1      -8.382  -9.008  17.290  0.00  0.00    +0.015 A 
ATOM     25  C   UNL     1      -9.787  -8.869  14.885  0.00  0.00    +0.046 A 
ATOM     26  C   UNL     1      -9.564  -8.273  17.216  0.00  0.00    +0.046 A 
ATOM     27  C   UNL     1     -10.268  -8.203  16.012  0.00  0.00    +0.130 A 
BRANCH  27   6
ATOM      6  O   UNL     1     -11.422  -7.486  15.939  0.00  0.00    -0.406 OA
BRANCH   6  28
ATOM      1  F   UNL     1     -11.400  -5.529  17.064  0.00  0.00    -0.133 F 
ATOM      2  F   UNL     1     -10.149  -5.702  15.280  0.00  0.00    -0.133 F 
ATOM      3  F   UNL     1     -12.348  -5.572  15.095  0.00  0.00    -0.133 F 
ATOM     28  C   UNL     1     -11.328  -6.070  15.827  0.00  0.00    +0.575 C 
ENDBRANCH   6  28
ENDBRANCH  27   6
ENDBRANCH  19  21
BRANCH  17  12
ATOM      7  N   UNL     1      -3.041 -10.587  14.082  0.00  0.00    -0.282 NA
ATOM     12  C   UNL     1      -3.362 -11.343  15.309  0.00  0.00    +0.149 C 
ATOM     13  C   UNL     1      -2.274 -10.935  16.320  0.00  0.00    +0.061 C 
ATOM     14  C   UNL     1      -1.363  -9.983  15.555  0.00  0.00    +0.130 C 
ATOM     15  C   UNL     1      -1.599 -10.357  14.104  0.00  0.00    +0.117 C 
BRANCH  14   4
ATOM      4  O   UNL     1      -0.013 -10.168  15.933  0.00  0.00    -0.390 OA
ATOM     29  H   UNL     1       0.054  -9.972  16.884  0.00  0.00    +0.210 HD
ENDBRANCH  14   4
BRANCH   7  16
ATOM     16  C   UNL     1      -3.471 -11.261  12.864  0.00  0.00    +0.159 C 
BRANCH  16  18
ATOM      9  N   UNL     1      -2.932 -10.074  10.723  0.00  0.00    -0.347 N 
ATOM     10  N   UNL     1      -4.872  -9.539  11.662  0.00  0.00    -0.239 NA
ATOM     18  C   UNL     1      -3.792 -10.282  11.765  0.00  0.00    +0.121 A 
ATOM     20  C   UNL     1      -3.499  -9.140   9.903  0.00  0.00    +0.104 A 
ATOM     22  C   UNL     1      -4.695  -8.824  10.503  0.00  0.00    +0.130 A 
ATOM     30  H   UNL     1      -2.040 -10.530  10.581  0.00  0.00    +0.167 HD
ENDBRANCH  16  18
ENDBRANCH   7  16
ENDBRANCH  17  12
TORSDOF 7
ENDMDL
MODEL 8
REMARK VINA RESULT:      -6.5      5.404      7.183
REMARK  Name = 26743750
REMARK  7 active torsions:
REMARK  status: ('A' for Active; 'I' for Inactive)
REMARK    1  A    between atoms: O_4  and  C_14
REMARK    2  A    between atoms: O_6  and  C_27
REMARK    3  A    between atoms: O_6  and  C_28
REMARK    4  A    between atoms: N_7  and  C_16
REMARK    5  A    between atoms: C_12  and  C_17
REMARK    6  A    between atoms: C_16  and  C_18
REMARK    7  A    between atoms: C_19  and  C_21
REMARK                            x       y       z     vdW  Elec       q    Type
REMARK                         _______ _______ _______ _____ _____    ______ ____
ROOT
ATOM      5  O   UNL     1      12.528   7.738  17.185  0.00  0.00    -0.336 OA
ATOM      8  N   UNL     1      13.507   9.463  18.227  0.00  0.00    -0.190 NA
ATOM     11  N   UNL     1      13.289   8.399  16.212  0.00  0.00    -0.056 NA
ATOM     17  C   UNL     1      12.712   8.427  18.341  0.00  0.00    +0.245 A 
ATOM     19  C   UNL     1      13.836   9.404  16.903  0.00  0.00    +0.202 A 
ENDROOT
BRANCH  19  21
ATOM     21  C   UNL     1      14.712  10.367  16.302  0.00  0.00    +0.023 A 
ATOM     23  C   UNL     1      15.214  11.425  17.061  0.00  0.00    +0.015 A 
ATOM     24  C   UNL     1      15.060  10.248  14.956  0.00  0.00    +0.015 A 
ATOM     25  C   UNL     1      16.063  12.362  16.475  0.00  0.00    +0.046 A 
ATOM     26  C   UNL     1      15.910  11.185  14.370  0.00  0.00    +0.046 A 
ATOM     27  C   UNL     1      16.412  12.243  15.130  0.00  0.00    +0.130 A 
BRANCH  27   6
ATOM      6  O   UNL     1      17.241  13.158  14.558  0.00  0.00    -0.406 OA
BRANCH   6  28
ATOM      1  F   UNL     1      19.305  13.439  13.688  0.00  0.00    -0.133 F 
ATOM      2  F   UNL     1      19.027  13.831  15.820  0.00  0.00    -0.133 F 
ATOM      3  F   UNL     1      18.983  11.760  15.050  0.00  0.00    -0.133 F 
ATOM     28  C   UNL     1      18.640  13.041  14.796  0.00  0.00    +0.575 C 
ENDBRANCH   6  28
ENDBRANCH  27   6
ENDBRANCH  19  21
BRANCH  17  12
ATOM      7  N   UNL     1      12.879   7.732  20.725  0.00  0.00    -0.282 NA
ATOM     12  C   UNL     1      11.986   7.906  19.563  0.00  0.00    +0.149 C 
ATOM     13  C   UNL     1      10.883   8.862  20.053  0.00  0.00    +0.061 C 
ATOM     14  C   UNL     1      11.218   9.132  21.514  0.00  0.00    +0.130 C 
ATOM     15  C   UNL     1      12.056   7.933  21.914  0.00  0.00    +0.117 C 
BRANCH  14   4
ATOM      4  O   UNL     1      10.039   9.232  22.290  0.00  0.00    -0.390 OA
ATOM     29  H   UNL     1       9.792   8.331  22.562  0.00  0.00    +0.210 HD
ENDBRANCH  14   4
BRANCH   7  16
ATOM     16  C   UNL     1      13.558   6.441  20.740  0.00  0.00    +0.159 C 
BRANCH  16  18
ATOM      9  N   UNL     1      15.878   6.488  21.686  0.00  0.00    -0.347 N 
ATOM     10  N   UNL     1      15.720   6.825  19.496  0.00  0.00    -0.239 NA
ATOM     18  C   UNL     1      15.050   6.591  20.602  0.00  0.00    +0.121 A 
ATOM     20  C   UNL     1      17.157   6.669  21.242  0.00  0.00    +0.104 A 
ATOM     22  C   UNL     1      17.035   6.876  19.888  0.00  0.00    +0.130 A 
ATOM     30  H   UNL     1      15.597   6.309  22.641  0.00  0.00    +0.167 HD
ENDBRANCH  16  18
ENDBRANCH   7  16
ENDBRANCH  17  12
TORSDOF 7
ENDMDL
MODEL 9
REMARK VINA RESULT:      -6.4      1.725      2.485
REMARK  Name = 26743750
REMARK  7 active torsions:
REMARK  status: ('A' for Active; 'I' for Inactive)
REMARK    1  A    between atoms: O_4  and  C_14
REMARK    2  A    between atoms: O_6  and  C_27
REMARK    3  A    between atoms: O_6  and  C_28
REMARK    4  A    between atoms: N_7  and  C_16
REMARK    5  A    between atoms: C_12  and  C_17
REMARK    6  A    between atoms: C_16  and  C_18
REMARK    7  A    between atoms: C_19  and  C_21
REMARK                            x       y       z     vdW  Elec       q    Type
REMARK                         _______ _______ _______ _____ _____    ______ ____
ROOT
ATOM      5  O   UNL     1      14.488   6.686  19.595  0.00  0.00    -0.336 OA
ATOM      8  N   UNL     1      15.739   7.622  21.199  0.00  0.00    -0.190 NA
ATOM     11  N   UNL     1      15.788   6.204  19.403  0.00  0.00    -0.056 NA
ATOM     17  C   UNL     1      14.546   7.513  20.671  0.00  0.00    +0.245 A 
ATOM     19  C   UNL     1      16.468   6.801  20.387  0.00  0.00    +0.202 A 
ENDROOT
BRANCH  19  21
ATOM     21  C   UNL     1      17.874   6.601  20.586  0.00  0.00    +0.023 A 
ATOM     23  C   UNL     1      18.539   5.586  19.897  0.00  0.00    +0.015 A 
ATOM     24  C   UNL     1      18.576   7.419  21.472  0.00  0.00    +0.015 A 
ATOM     25  C   UNL     1      19.906   5.390  20.093  0.00  0.00    +0.046 A 
ATOM     26  C   UNL     1      19.943   7.223  21.667  0.00  0.00    +0.046 A 
ATOM     27  C   UNL     1      20.609   6.209  20.978  0.00  0.00    +0.130 A 
BRANCH  27   6
ATOM      6  O   UNL     1      21.942   6.018  21.169  0.00  0.00    -0.406 OA
BRANCH   6  28
ATOM      1  F   UNL     1      22.591   3.877  20.871  0.00  0.00    -0.133 F 
ATOM      2  F   UNL     1      23.517   5.014  22.490  0.00  0.00    -0.133 F 
ATOM      3  F   UNL     1      21.414   4.356  22.648  0.00  0.00    -0.133 F 
ATOM     28  C   UNL     1      22.366   4.821  21.812  0.00  0.00    +0.575 C 
ENDBRANCH   6  28
ENDBRANCH  27   6
ENDBRANCH  19  21
BRANCH  17  12
ATOM      7  N   UNL     1      12.449   8.638  19.939  0.00  0.00    -0.282 NA
ATOM     12  C   UNL     1      13.248   8.170  21.090  0.00  0.00    +0.149 C 
ATOM     13  C   UNL     1      12.315   7.213  21.854  0.00  0.00    +0.061 C 
ATOM     14  C   UNL     1      11.001   7.244  21.083  0.00  0.00    +0.130 C 
ATOM     15  C   UNL     1      11.050   8.572  20.352  0.00  0.00    +0.117 C 
BRANCH  14   4
ATOM      4  O   UNL     1       9.898   7.168  21.964  0.00  0.00    -0.390 OA
ATOM     29  H   UNL     1       9.284   6.504  21.608  0.00  0.00    +0.210 HD
ENDBRANCH  14   4
BRANCH   7  16
ATOM     16  C   UNL     1      12.825   9.970  19.483  0.00  0.00    +0.159 C 
BRANCH  16  18
ATOM      9  N   UNL     1      12.000  11.580  21.218  0.00  0.00    -0.347 N 
ATOM     10  N   UNL     1      14.191  11.214  21.202  0.00  0.00    -0.239 NA
ATOM     18  C   UNL     1      13.044  10.916  20.634  0.00  0.00    +0.121 A 
ATOM     20  C   UNL     1      12.516  12.352  22.220  0.00  0.00    +0.104 A 
ATOM     22  C   UNL     1      13.869  12.110  22.191  0.00  0.00    +0.130 A 
ATOM     30  H   UNL     1      11.025  11.512  20.958  0.00  0.00    +0.167 HD
ENDBRANCH  16  18
ENDBRANCH   7  16
ENDBRANCH  17  12
TORSDOF 7
ENDMDL
MODEL 10
REMARK VINA RESULT:      -6.4     17.098     20.056
REMARK  Name = 26743750
REMARK  7 active torsions:
REMARK  status: ('A' for Active; 'I' for Inactive)
REMARK    1  A    between atoms: O_4  and  C_14
REMARK    2  A    between atoms: O_6  and  C_27
REMARK    3  A    between atoms: O_6  and  C_28
REMARK    4  A    between atoms: N_7  and  C_16
REMARK    5  A    between atoms: C_12  and  C_17
REMARK    6  A    between atoms: C_16  and  C_18
REMARK    7  A    between atoms: C_19  and  C_21
REMARK                            x       y       z     vdW  Elec       q    Type
REMARK                         _______ _______ _______ _____ _____    ______ ____
ROOT
ATOM      5  O   UNL     1      12.131   5.918   1.127  0.00  0.00    -0.336 OA
ATOM      8  N   UNL     1      12.214   4.425   2.795  0.00  0.00    -0.190 NA
ATOM     11  N   UNL     1      11.394   6.472   2.181  0.00  0.00    -0.056 NA
ATOM     17  C   UNL     1      12.579   4.715   1.571  0.00  0.00    +0.245 A 
ATOM     19  C   UNL     1      11.489   5.534   3.128  0.00  0.00    +0.202 A 
ENDROOT
BRANCH  19  21
ATOM     21  C   UNL     1      10.871   5.670   4.415  0.00  0.00    +0.023 A 
ATOM     23  C   UNL     1       9.580   5.184   4.624  0.00  0.00    +0.015 A 
ATOM     24  C   UNL     1      11.560   6.293   5.456  0.00  0.00    +0.015 A 
ATOM     25  C   UNL     1       8.979   5.319   5.876  0.00  0.00    +0.046 A 
ATOM     26  C   UNL     1      10.959   6.427   6.707  0.00  0.00    +0.046 A 
ATOM     27  C   UNL     1       9.668   5.941   6.917  0.00  0.00    +0.130 A 
BRANCH  27   6
ATOM      6  O   UNL     1       9.081   6.073   8.138  0.00  0.00    -0.406 OA
BRANCH   6  28
ATOM      1  F   UNL     1       9.575   3.916   8.582  0.00  0.00    -0.133 F 
ATOM      2  F   UNL     1      10.578   5.462   9.756  0.00  0.00    -0.133 F 
ATOM      3  F   UNL     1       8.433   5.037  10.071  0.00  0.00    -0.133 F 
ATOM     28  C   UNL     1       9.417   5.132   9.152  0.00  0.00    +0.575 C 
ENDBRANCH   6  28
ENDBRANCH  27   6
ENDBRANCH  19  21
BRANCH  17  12
ATOM      7  N   UNL     1      13.235   4.330  -0.800  0.00  0.00    -0.282 NA
ATOM     12  C   UNL     1      13.416   3.905   0.603  0.00  0.00    +0.149 C 
ATOM     13  C   UNL     1      14.927   4.041   0.863  0.00  0.00    +0.061 C 
ATOM     14  C   UNL     1      15.516   4.505  -0.463  0.00  0.00    +0.130 C 
ATOM     15  C   UNL     1      14.493   4.045  -1.485  0.00  0.00    +0.117 C 
BRANCH  14   4
ATOM      4  O   UNL     1      16.782   3.915  -0.685  0.00  0.00    -0.390 OA
ATOM     29  H   UNL     1      17.342   4.580  -1.122  0.00  0.00    +0.210 HD
ENDBRANCH  14   4
BRANCH   7  16
ATOM     16  C   UNL     1      12.098   3.690  -1.451  0.00  0.00    +0.159 C 
BRANCH  16  18
ATOM      9  N   UNL     1      11.219   6.019  -1.749  0.00  0.00    -0.347 N 
ATOM     10  N   UNL     1       9.733   4.386  -1.990  0.00  0.00    -0.239 NA
ATOM     18  C   UNL     1      10.990   4.670  -1.734  0.00  0.00    +0.121 A 
ATOM     20  C   UNL     1      10.032   6.632  -2.031  0.00  0.00    +0.104 A 
ATOM     22  C   UNL     1       9.129   5.605  -2.175  0.00  0.00    +0.130 A 
ATOM     30  H   UNL     1      12.105   6.479  -1.584  0.00  0.00    +0.167 HD
ENDBRANCH  16  18
ENDBRANCH   7  16
ENDBRANCH  17  12
TORSDOF 7
ENDMDL
