MODEL 1
REMARK VINA RESULT:      -6.5      0.000      0.000
REMARK  Name = 11939784
REMARK  9 active torsions:
REMARK  status: ('A' for Active; 'I' for Inactive)
REMARK    1  A    between atoms: O_4  and  C_18
REMARK    2  A    between atoms: O_4  and  C_23
REMARK    3  A    between atoms: N_5  and  C_13
REMARK    4  A    between atoms: N_6  and  C_12
REMARK    5  A    between atoms: N_9  and  C_26
REMARK    6  A    between atoms: N_9  and  C_29
REMARK    7  A    between atoms: N_9  and  C_30
REMARK    8  A    between atoms: C_16  and  C_18
REMARK    9  A    between atoms: C_19  and  C_22
REMARK                            x       y       z     vdW  Elec       q    Type
REMARK                         _______ _______ _______ _____ _____    ______ ____
ROOT
ATOM      6  N   UNL     1      -3.278 -10.343  12.339  0.00  0.00    -0.306 N 
ATOM      7  N   UNL     1      -4.051 -10.696  14.527  0.00  0.00    -0.214 NA
ATOM      8  N   UNL     1      -1.710 -10.334  14.086  0.00  0.00    -0.223 NA
ATOM     17  C   UNL     1      -3.005 -10.461  13.691  0.00  0.00    +0.216 A 
ATOM     19  C   UNL     1      -3.749 -10.807  15.837  0.00  0.00    +0.076 A 
ATOM     20  C   UNL     1      -1.481 -10.454  15.410  0.00  0.00    +0.116 A 
ATOM     21  C   UNL     1      -2.470 -10.694  16.341  0.00  0.00    +0.048 A 
ATOM     32  H   UNL     1      -2.484 -10.220  11.720  0.00  0.00    +0.149 HD
ENDROOT
BRANCH   6  12
ATOM      1  O   UNL     1      -4.715  -8.821  10.060  0.00  0.00    -0.370 OA
ATOM      2  O   UNL     1      -5.821 -11.738  10.124  0.00  0.00    -0.370 OA
ATOM     10  C   UNL     1      -4.544 -11.163  10.444  0.00  0.00    +0.171 C 
ATOM     11  C   UNL     1      -4.289 -10.050   9.447  0.00  0.00    +0.171 C 
ATOM     12  C   UNL     1      -4.605 -10.458  11.778  0.00  0.00    +0.130 C 
ATOM     13  C   UNL     1      -5.183 -10.392   8.277  0.00  0.00    +0.130 C 
ATOM     14  C   UNL     1      -5.139  -9.087  11.406  0.00  0.00    +0.185 C 
ATOM     15  C   UNL     1      -6.346 -11.097   8.953  0.00  0.00    +0.185 C 
BRANCH  13   5
ATOM      3  O   UNL     1      -5.722 -10.685   5.445  0.00  0.00    -0.273 OA
ATOM      5  N   UNL     1      -4.512 -11.265   7.346  0.00  0.00    -0.306 N 
ATOM     16  C   UNL     1      -4.842 -11.337   5.999  0.00  0.00    +0.239 C 
ATOM     31  H   UNL     1      -3.728 -11.814   7.687  0.00  0.00    +0.149 HD
BRANCH  16  18
ATOM     18  C   UNL     1      -3.975 -12.336   5.261  0.00  0.00    +0.255 C 
BRANCH  18   4
ATOM      4  O   UNL     1      -4.075 -12.148   3.866  0.00  0.00    -0.374 OA
ATOM     23  C   UNL     1      -2.875 -12.515   3.192  0.00  0.00    +0.194 C 
ENDBRANCH  18   4
ENDBRANCH  16  18
ENDBRANCH  13   5
ENDBRANCH   6  12
BRANCH  19  22
ATOM     22  C   UNL     1      -4.875 -11.057  16.706  0.00  0.00    +0.001 A 
ATOM     24  C   UNL     1      -4.722 -10.978  18.091  0.00  0.00    +0.012 A 
ATOM     25  C   UNL     1      -6.120 -11.382  16.164  0.00  0.00    +0.012 A 
ATOM     26  C   UNL     1      -7.051 -11.546  18.387  0.00  0.00    +0.029 A 
ATOM     27  C   UNL     1      -5.809 -11.223  18.932  0.00  0.00    +0.024 A 
ATOM     28  C   UNL     1      -7.207 -11.626  17.003  0.00  0.00    +0.024 A 
BRANCH  26   9
ATOM      9  N   UNL     1      -8.150 -11.793  19.236  0.00  0.00    -0.336 N 
ATOM     29  C   UNL     1      -9.246 -10.847  19.311  0.00  0.00    +0.129 C 
ATOM     30  C   UNL     1      -8.206 -13.001  20.033  0.00  0.00    +0.129 C 
ENDBRANCH  26   9
ENDBRANCH  19  22
TORSDOF 6
ENDMDL
MODEL 2
REMARK VINA RESULT:      -6.5      3.817      9.057
REMARK  Name = 11939784
REMARK  9 active torsions:
REMARK  status: ('A' for Active; 'I' for Inactive)
REMARK    1  A    between atoms: O_4  and  C_18
REMARK    2  A    between atoms: O_4  and  C_23
REMARK    3  A    between atoms: N_5  and  C_13
REMARK    4  A    between atoms: N_6  and  C_12
REMARK    5  A    between atoms: N_9  and  C_26
REMARK    6  A    between atoms: N_9  and  C_29
REMARK    7  A    between atoms: N_9  and  C_30
REMARK    8  A    between atoms: C_16  and  C_18
REMARK    9  A    between atoms: C_19  and  C_22
REMARK                            x       y       z     vdW  Elec       q    Type
REMARK                         _______ _______ _______ _____ _____    ______ ____
ROOT
ATOM      6  N   UNL     1      -3.818 -11.583  16.931  0.00  0.00    -0.306 N 
ATOM      7  N   UNL     1      -3.439 -11.252  14.638  0.00  0.00    -0.214 NA
ATOM      8  N   UNL     1      -1.832 -10.517  16.277  0.00  0.00    -0.223 NA
ATOM     17  C   UNL     1      -3.006 -11.103  15.918  0.00  0.00    +0.216 A 
ATOM     19  C   UNL     1      -2.623 -10.772  13.678  0.00  0.00    +0.076 A 
ATOM     20  C   UNL     1      -1.066 -10.061  15.265  0.00  0.00    +0.116 A 
ATOM     21  C   UNL     1      -1.413 -10.161  13.934  0.00  0.00    +0.048 A 
ATOM     32  H   UNL     1      -3.509 -11.420  17.883  0.00  0.00    +0.149 HD
ENDROOT
BRANCH   6  12
ATOM      1  O   UNL     1      -6.240 -12.141  18.775  0.00  0.00    -0.370 OA
ATOM      2  O   UNL     1      -7.310 -11.718  15.875  0.00  0.00    -0.370 OA
ATOM     10  C   UNL     1      -6.185 -11.189  16.595  0.00  0.00    +0.171 C 
ATOM     11  C   UNL     1      -6.628 -10.975  18.029  0.00  0.00    +0.171 C 
ATOM     12  C   UNL     1      -5.092 -12.227  16.698  0.00  0.00    +0.130 C 
ATOM     13  C   UNL     1      -8.135 -10.887  17.938  0.00  0.00    +0.130 C 
ATOM     14  C   UNL     1      -5.507 -13.029  17.917  0.00  0.00    +0.185 C 
ATOM     15  C   UNL     1      -8.442 -11.786  16.753  0.00  0.00    +0.185 C 
BRANCH  13   5
ATOM      3  O   UNL     1     -10.859  -9.912  17.766  0.00  0.00    -0.273 OA
ATOM      5  N   UNL     1      -8.564  -9.532  17.693  0.00  0.00    -0.306 N 
ATOM     16  C   UNL     1      -9.900  -9.159  17.626  0.00  0.00    +0.239 C 
ATOM     31  H   UNL     1      -7.851  -8.813  17.614  0.00  0.00    +0.149 HD
BRANCH  16  18
ATOM     18  C   UNL     1     -10.055  -7.676  17.357  0.00  0.00    +0.255 C 
BRANCH  18   4
ATOM      4  O   UNL     1     -10.012  -7.415  15.971  0.00  0.00    -0.374 OA
ATOM     23  C   UNL     1     -10.675  -6.198  15.639  0.00  0.00    +0.194 C 
ENDBRANCH  18   4
ENDBRANCH  16  18
ENDBRANCH  13   5
ENDBRANCH   6  12
BRANCH  19  22
ATOM     22  C   UNL     1      -3.104 -10.940  12.326  0.00  0.00    +0.001 A 
ATOM     24  C   UNL     1      -3.200 -12.217  11.770  0.00  0.00    +0.012 A 
ATOM     25  C   UNL     1      -3.473  -9.825  11.570  0.00  0.00    +0.012 A 
ATOM     26  C   UNL     1      -4.030 -11.264   9.711  0.00  0.00    +0.029 A 
ATOM     27  C   UNL     1      -3.663 -12.379  10.464  0.00  0.00    +0.024 A 
ATOM     28  C   UNL     1      -3.935  -9.986  10.264  0.00  0.00    +0.024 A 
BRANCH  26   9
ATOM      9  N   UNL     1      -4.498 -11.428   8.391  0.00  0.00    -0.336 N 
ATOM     29  C   UNL     1      -4.316 -12.688   7.698  0.00  0.00    +0.129 C 
ATOM     30  C   UNL     1      -5.181 -10.343   7.715  0.00  0.00    +0.129 C 
ENDBRANCH  26   9
ENDBRANCH  19  22
TORSDOF 6
ENDMDL
MODEL 3
REMARK VINA RESULT:      -6.4      4.349      6.105
REMARK  Name = 11939784
REMARK  9 active torsions:
REMARK  status: ('A' for Active; 'I' for Inactive)
REMARK    1  A    between atoms: O_4  and  C_18
REMARK    2  A    between atoms: O_4  and  C_23
REMARK    3  A    between atoms: N_5  and  C_13
REMARK    4  A    between atoms: N_6  and  C_12
REMARK    5  A    between atoms: N_9  and  C_26
REMARK    6  A    between atoms: N_9  and  C_29
REMARK    7  A    between atoms: N_9  and  C_30
REMARK    8  A    between atoms: C_16  and  C_18
REMARK    9  A    between atoms: C_19  and  C_22
REMARK                            x       y       z     vdW  Elec       q    Type
REMARK                         _______ _______ _______ _____ _____    ______ ____
ROOT
ATOM      6  N   UNL     1      -3.506 -11.337  17.015  0.00  0.00    -0.306 N 
ATOM      7  N   UNL     1      -5.704 -10.517  17.033  0.00  0.00    -0.214 NA
ATOM      8  N   UNL     1      -4.848 -11.801  18.883  0.00  0.00    -0.223 NA
ATOM     17  C   UNL     1      -4.723 -11.215  17.663  0.00  0.00    +0.216 A 
ATOM     19  C   UNL     1      -6.877 -10.418  17.693  0.00  0.00    +0.076 A 
ATOM     20  C   UNL     1      -6.047 -11.662  19.486  0.00  0.00    +0.116 A 
ATOM     21  C   UNL     1      -7.108 -10.975  18.934  0.00  0.00    +0.048 A 
ATOM     32  H   UNL     1      -2.798 -11.904  17.471  0.00  0.00    +0.149 HD
ENDROOT
BRANCH   6  12
ATOM      1  O   UNL     1      -1.012 -11.429  15.185  0.00  0.00    -0.370 OA
ATOM      2  O   UNL     1      -3.541 -11.259  13.366  0.00  0.00    -0.370 OA
ATOM     10  C   UNL     1      -3.294 -11.843  14.656  0.00  0.00    +0.171 C 
ATOM     11  C   UNL     1      -1.892 -12.419  14.628  0.00  0.00    +0.171 C 
ATOM     12  C   UNL     1      -3.231 -10.768  15.715  0.00  0.00    +0.130 C 
ATOM     13  C   UNL     1      -1.603 -12.611  13.156  0.00  0.00    +0.130 C 
ATOM     14  C   UNL     1      -1.787 -10.308  15.637  0.00  0.00    +0.185 C 
ATOM     15  C   UNL     1      -2.407 -11.493  12.518  0.00  0.00    +0.185 C 
BRANCH  13   5
ATOM      3  O   UNL     1      -0.185 -15.131  13.351  0.00  0.00    -0.273 OA
ATOM      5  N   UNL     1      -2.052 -13.904  12.701  0.00  0.00    -0.306 N 
ATOM     16  C   UNL     1      -1.298 -15.062  12.838  0.00  0.00    +0.239 C 
ATOM     31  H   UNL     1      -2.986 -13.973  12.307  0.00  0.00    +0.149 HD
BRANCH  16  18
ATOM     18  C   UNL     1      -2.017 -16.270  12.273  0.00  0.00    +0.255 C 
BRANCH  18   4
ATOM      4  O   UNL     1      -1.858 -16.332  10.871  0.00  0.00    -0.374 OA
ATOM     23  C   UNL     1      -0.693 -17.064  10.500  0.00  0.00    +0.194 C 
ENDBRANCH  18   4
ENDBRANCH  16  18
ENDBRANCH  13   5
ENDBRANCH   6  12
BRANCH  19  22
ATOM     22  C   UNL     1      -7.906  -9.674  17.005  0.00  0.00    +0.001 A 
ATOM     24  C   UNL     1      -8.735  -8.804  17.716  0.00  0.00    +0.012 A 
ATOM     25  C   UNL     1      -8.075  -9.823  15.627  0.00  0.00    +0.012 A 
ATOM     26  C   UNL     1      -9.898  -8.237  15.676  0.00  0.00    +0.029 A 
ATOM     27  C   UNL     1      -9.731  -8.087  17.052  0.00  0.00    +0.024 A 
ATOM     28  C   UNL     1      -9.071  -9.106  14.963  0.00  0.00    +0.024 A 
BRANCH  26   9
ATOM      9  N   UNL     1     -10.904  -7.512  15.004  0.00  0.00    -0.336 N 
ATOM     29  C   UNL     1     -11.148  -6.121  15.332  0.00  0.00    +0.129 C 
ATOM     30  C   UNL     1     -11.695  -8.142  13.967  0.00  0.00    +0.129 C 
ENDBRANCH  26   9
ENDBRANCH  19  22
TORSDOF 6
ENDMDL
MODEL 4
REMARK VINA RESULT:      -6.1      4.839      7.701
REMARK  Name = 11939784
REMARK  9 active torsions:
REMARK  status: ('A' for Active; 'I' for Inactive)
REMARK    1  A    between atoms: O_4  and  C_18
REMARK    2  A    between atoms: O_4  and  C_23
REMARK    3  A    between atoms: N_5  and  C_13
REMARK    4  A    between atoms: N_6  and  C_12
REMARK    5  A    between atoms: N_9  and  C_26
REMARK    6  A    between atoms: N_9  and  C_29
REMARK    7  A    between atoms: N_9  and  C_30
REMARK    8  A    between atoms: C_16  and  C_18
REMARK    9  A    between atoms: C_19  and  C_22
REMARK                            x       y       z     vdW  Elec       q    Type
REMARK                         _______ _______ _______ _____ _____    ______ ____
ROOT
ATOM      6  N   UNL     1      -6.899 -11.172  17.622  0.00  0.00    -0.306 N 
ATOM      7  N   UNL     1      -8.910  -9.980  17.417  0.00  0.00    -0.214 NA
ATOM      8  N   UNL     1      -8.447 -11.295  19.382  0.00  0.00    -0.223 NA
ATOM     17  C   UNL     1      -8.122 -10.805  18.156  0.00  0.00    +0.216 A 
ATOM     19  C   UNL     1     -10.094  -9.642  17.968  0.00  0.00    +0.076 A 
ATOM     20  C   UNL     1      -9.646 -10.916  19.872  0.00  0.00    +0.116 A 
ATOM     21  C   UNL     1     -10.519 -10.084  19.204  0.00  0.00    +0.048 A 
ATOM     32  H   UNL     1      -6.343 -11.829  18.159  0.00  0.00    +0.149 HD
ENDROOT
BRANCH   6  12
ATOM      1  O   UNL     1      -4.116 -10.254  16.628  0.00  0.00    -0.370 OA
ATOM      2  O   UNL     1      -5.589 -11.630  14.246  0.00  0.00    -0.370 OA
ATOM     10  C   UNL     1      -5.624 -11.826  15.670  0.00  0.00    +0.171 C 
ATOM     11  C   UNL     1      -4.214 -11.619  16.186  0.00  0.00    +0.171 C 
ATOM     12  C   UNL     1      -6.424 -10.729  16.331  0.00  0.00    +0.130 C 
ATOM     13  C   UNL     1      -3.340 -11.842  14.973  0.00  0.00    +0.130 C 
ATOM     14  C   UNL     1      -5.399  -9.623  16.498  0.00  0.00    +0.185 C 
ATOM     15  C   UNL     1      -4.237 -11.379  13.838  0.00  0.00    +0.185 C 
BRANCH  13   5
ATOM      3  O   UNL     1      -1.212 -12.964  13.357  0.00  0.00    -0.273 OA
ATOM      5  N   UNL     1      -2.993 -13.235  14.830  0.00  0.00    -0.306 N 
ATOM     16  C   UNL     1      -1.951 -13.679  14.027  0.00  0.00    +0.239 C 
ATOM     31  H   UNL     1      -3.507 -13.914  15.384  0.00  0.00    +0.149 HD
BRANCH  16  18
ATOM     18  C   UNL     1      -1.815 -15.188  14.068  0.00  0.00    +0.255 C 
BRANCH  18   4
ATOM      4  O   UNL     1      -0.558 -15.588  13.567  0.00  0.00    -0.374 OA
ATOM     23  C   UNL     1      -0.682 -16.344  12.365  0.00  0.00    +0.194 C 
ENDBRANCH  18   4
ENDBRANCH  16  18
ENDBRANCH  13   5
ENDBRANCH   6  12
BRANCH  19  22
ATOM     22  C   UNL     1     -10.916  -8.767  17.165  0.00  0.00    +0.001 A 
ATOM     24  C   UNL     1     -12.051  -9.265  16.523  0.00  0.00    +0.012 A 
ATOM     25  C   UNL     1     -10.576  -7.419  17.026  0.00  0.00    +0.012 A 
ATOM     26  C   UNL     1     -12.502  -7.075  15.609  0.00  0.00    +0.029 A 
ATOM     27  C   UNL     1     -12.843  -8.420  15.745  0.00  0.00    +0.024 A 
ATOM     28  C   UNL     1     -11.367  -6.574  16.249  0.00  0.00    +0.024 A 
BRANCH  26   9
ATOM      9  N   UNL     1     -13.303  -6.220  14.823  0.00  0.00    -0.336 N 
ATOM     29  C   UNL     1     -12.693  -5.195  14.000  0.00  0.00    +0.129 C 
ATOM     30  C   UNL     1     -14.744  -6.364  14.818  0.00  0.00    +0.129 C 
ENDBRANCH  26   9
ENDBRANCH  19  22
TORSDOF 6
ENDMDL
MODEL 5
REMARK VINA RESULT:      -6.0      3.339     10.399
REMARK  Name = 11939784
REMARK  9 active torsions:
REMARK  status: ('A' for Active; 'I' for Inactive)
REMARK    1  A    between atoms: O_4  and  C_18
REMARK    2  A    between atoms: O_4  and  C_23
REMARK    3  A    between atoms: N_5  and  C_13
REMARK    4  A    between atoms: N_6  and  C_12
REMARK    5  A    between atoms: N_9  and  C_26
REMARK    6  A    between atoms: N_9  and  C_29
REMARK    7  A    between atoms: N_9  and  C_30
REMARK    8  A    between atoms: C_16  and  C_18
REMARK    9  A    between atoms: C_19  and  C_22
REMARK                            x       y       z     vdW  Elec       q    Type
REMARK                         _______ _______ _______ _____ _____    ______ ____
ROOT
ATOM      6  N   UNL     1      -3.992 -10.053  11.052  0.00  0.00    -0.306 N 
ATOM      7  N   UNL     1      -4.216 -11.000   8.917  0.00  0.00    -0.214 NA
ATOM      8  N   UNL     1      -5.613  -9.162   9.608  0.00  0.00    -0.223 NA
ATOM     17  C   UNL     1      -4.626 -10.073   9.822  0.00  0.00    +0.216 A 
ATOM     19  C   UNL     1      -4.856 -10.991   7.729  0.00  0.00    +0.076 A 
ATOM     20  C   UNL     1      -6.209  -9.209   8.398  0.00  0.00    +0.116 A 
ATOM     21  C   UNL     1      -5.870 -10.110   7.411  0.00  0.00    +0.048 A 
ATOM     32  H   UNL     1      -4.341  -9.392  11.738  0.00  0.00    +0.149 HD
ENDROOT
BRANCH   6  12
ATOM      1  O   UNL     1      -1.815  -9.935  13.248  0.00  0.00    -0.370 OA
ATOM      2  O   UNL     1      -2.548 -12.930  12.773  0.00  0.00    -0.370 OA
ATOM     10  C   UNL     1      -3.297 -11.707  12.680  0.00  0.00    +0.171 C 
ATOM     11  C   UNL     1      -2.821 -10.802  13.798  0.00  0.00    +0.171 C 
ATOM     12  C   UNL     1      -2.929 -10.961  11.419  0.00  0.00    +0.130 C 
ATOM     13  C   UNL     1      -2.206 -11.750  14.803  0.00  0.00    +0.130 C 
ATOM     14  C   UNL     1      -1.695 -10.184  11.839  0.00  0.00    +0.185 C 
ATOM     15  C   UNL     1      -1.684 -12.867  13.917  0.00  0.00    +0.185 C 
BRANCH  13   5
ATOM      3  O   UNL     1      -3.767 -10.192  16.682  0.00  0.00    -0.273 OA
ATOM      5  N   UNL     1      -3.195 -12.238  15.732  0.00  0.00    -0.306 N 
ATOM     16  C   UNL     1      -3.895 -11.410  16.599  0.00  0.00    +0.239 C 
ATOM     31  H   UNL     1      -3.421 -13.228  15.712  0.00  0.00    +0.149 HD
BRANCH  16  18
ATOM     18  C   UNL     1      -4.867 -12.192  17.459  0.00  0.00    +0.255 C 
BRANCH  18   4
ATOM      4  O   UNL     1      -4.786 -11.777  18.806  0.00  0.00    -0.374 OA
ATOM     23  C   UNL     1      -3.611 -12.269  19.444  0.00  0.00    +0.194 C 
ENDBRANCH  18   4
ENDBRANCH  16  18
ENDBRANCH  13   5
ENDBRANCH   6  12
BRANCH  19  22
ATOM     22  C   UNL     1      -4.406 -11.985   6.783  0.00  0.00    +0.001 A 
ATOM     24  C   UNL     1      -4.423 -11.708   5.415  0.00  0.00    +0.012 A 
ATOM     25  C   UNL     1      -3.954 -13.227   7.234  0.00  0.00    +0.012 A 
ATOM     26  C   UNL     1      -3.539 -13.909   4.954  0.00  0.00    +0.029 A 
ATOM     27  C   UNL     1      -3.990 -12.670   4.501  0.00  0.00    +0.024 A 
ATOM     28  C   UNL     1      -3.521 -14.188   6.321  0.00  0.00    +0.024 A 
BRANCH  26   9
ATOM      9  N   UNL     1      -3.101 -14.880   4.030  0.00  0.00    -0.336 N 
ATOM     29  C   UNL     1      -1.784 -15.473   4.158  0.00  0.00    +0.129 C 
ATOM     30  C   UNL     1      -3.966 -15.310   2.950  0.00  0.00    +0.129 C 
ENDBRANCH  26   9
ENDBRANCH  19  22
TORSDOF 6
ENDMDL
MODEL 6
REMARK VINA RESULT:      -5.9      5.324     10.998
REMARK  Name = 11939784
REMARK  9 active torsions:
REMARK  status: ('A' for Active; 'I' for Inactive)
REMARK    1  A    between atoms: O_4  and  C_18
REMARK    2  A    between atoms: O_4  and  C_23
REMARK    3  A    between atoms: N_5  and  C_13
REMARK    4  A    between atoms: N_6  and  C_12
REMARK    5  A    between atoms: N_9  and  C_26
REMARK    6  A    between atoms: N_9  and  C_29
REMARK    7  A    between atoms: N_9  and  C_30
REMARK    8  A    between atoms: C_16  and  C_18
REMARK    9  A    between atoms: C_19  and  C_22
REMARK                            x       y       z     vdW  Elec       q    Type
REMARK                         _______ _______ _______ _____ _____    ______ ____
ROOT
ATOM      6  N   UNL     1      -8.619 -10.437  19.126  0.00  0.00    -0.306 N 
ATOM      7  N   UNL     1      -6.743 -10.614  17.727  0.00  0.00    -0.214 NA
ATOM      8  N   UNL     1      -6.592 -11.147  20.072  0.00  0.00    -0.223 NA
ATOM     17  C   UNL     1      -7.278 -10.741  18.970  0.00  0.00    +0.216 A 
ATOM     19  C   UNL     1      -5.434 -10.918  17.612  0.00  0.00    +0.076 A 
ATOM     20  C   UNL     1      -5.287 -11.435  19.884  0.00  0.00    +0.116 A 
ATOM     21  C   UNL     1      -4.649 -11.338  18.666  0.00  0.00    +0.048 A 
ATOM     32  H   UNL     1      -8.995 -10.486  20.067  0.00  0.00    +0.149 HD
ENDROOT
BRANCH   6  12
ATOM      1  O   UNL     1     -11.048 -11.738  17.716  0.00  0.00    -0.370 OA
ATOM      2  O   UNL     1     -11.441  -8.643  17.662  0.00  0.00    -0.370 OA
ATOM     10  C   UNL     1     -10.803  -9.538  18.588  0.00  0.00    +0.171 C 
ATOM     11  C   UNL     1     -11.636 -10.803  18.637  0.00  0.00    +0.171 C 
ATOM     12  C   UNL     1      -9.470  -9.993  18.044  0.00  0.00    +0.130 C 
ATOM     13  C   UNL     1     -12.998 -10.367  18.146  0.00  0.00    +0.130 C 
ATOM     14  C   UNL     1      -9.853 -11.166  17.161  0.00  0.00    +0.185 C 
ATOM     15  C   UNL     1     -12.651  -9.246  17.182  0.00  0.00    +0.185 C 
BRANCH  13   5
ATOM      3  O   UNL     1     -14.735 -11.933  19.857  0.00  0.00    -0.273 OA
ATOM      5  N   UNL     1     -13.815  -9.888  19.233  0.00  0.00    -0.306 N 
ATOM     16  C   UNL     1     -14.621 -10.719  20.000  0.00  0.00    +0.239 C 
ATOM     31  H   UNL     1     -13.757  -8.903  19.476  0.00  0.00    +0.149 HD
BRANCH  16  18
ATOM     18  C   UNL     1     -15.366  -9.946  21.070  0.00  0.00    +0.255 C 
BRANCH  18   4
ATOM      4  O   UNL     1     -15.007  -8.582  21.039  0.00  0.00    -0.374 OA
ATOM     23  C   UNL     1     -16.092  -7.738  21.416  0.00  0.00    +0.194 C 
ENDBRANCH  18   4
ENDBRANCH  16  18
ENDBRANCH  13   5
ENDBRANCH   6  12
BRANCH  19  22
ATOM     22  C   UNL     1      -4.887 -10.773  16.283  0.00  0.00    +0.001 A 
ATOM     24  C   UNL     1      -5.731 -10.514  15.202  0.00  0.00    +0.012 A 
ATOM     25  C   UNL     1      -3.511 -10.895  16.075  0.00  0.00    +0.012 A 
ATOM     26  C   UNL     1      -3.829 -10.499  13.713  0.00  0.00    +0.029 A 
ATOM     27  C   UNL     1      -5.203 -10.376  13.918  0.00  0.00    +0.024 A 
ATOM     28  C   UNL     1      -2.982 -10.759  14.792  0.00  0.00    +0.024 A 
BRANCH  26   9
ATOM      9  N   UNL     1      -3.294 -10.359  12.415  0.00  0.00    -0.336 N 
ATOM     29  C   UNL     1      -1.896 -10.646  12.164  0.00  0.00    +0.129 C 
ATOM     30  C   UNL     1      -4.138  -9.942  11.315  0.00  0.00    +0.129 C 
ENDBRANCH  26   9
ENDBRANCH  19  22
TORSDOF 6
ENDMDL
MODEL 7
REMARK VINA RESULT:      -5.9      4.501      8.685
REMARK  Name = 11939784
REMARK  9 active torsions:
REMARK  status: ('A' for Active; 'I' for Inactive)
REMARK    1  A    between atoms: O_4  and  C_18
REMARK    2  A    between atoms: O_4  and  C_23
REMARK    3  A    between atoms: N_5  and  C_13
REMARK    4  A    between atoms: N_6  and  C_12
REMARK    5  A    between atoms: N_9  and  C_26
REMARK    6  A    between atoms: N_9  and  C_29
REMARK    7  A    between atoms: N_9  and  C_30
REMARK    8  A    between atoms: C_16  and  C_18
REMARK    9  A    between atoms: C_19  and  C_22
REMARK                            x       y       z     vdW  Elec       q    Type
REMARK                         _______ _______ _______ _____ _____    ______ ____
ROOT
ATOM      6  N   UNL     1      -7.585 -12.530  19.378  0.00  0.00    -0.306 N 
ATOM      7  N   UNL     1      -9.823 -12.089  19.929  0.00  0.00    -0.214 NA
ATOM      8  N   UNL     1      -8.742 -14.110  20.671  0.00  0.00    -0.223 NA
ATOM     17  C   UNL     1      -8.752 -12.921  20.011  0.00  0.00    +0.216 A 
ATOM     19  C   UNL     1     -10.943 -12.502  20.557  0.00  0.00    +0.076 A 
ATOM     20  C   UNL     1      -9.896 -14.460  21.277  0.00  0.00    +0.116 A 
ATOM     21  C   UNL     1     -11.039 -13.689  21.253  0.00  0.00    +0.048 A 
ATOM     32  H   UNL     1      -6.809 -13.182  19.402  0.00  0.00    +0.149 HD
ENDROOT
BRANCH   6  12
ATOM      1  O   UNL     1      -5.271 -10.489  19.132  0.00  0.00    -0.370 OA
ATOM      2  O   UNL     1      -6.842 -10.501  16.436  0.00  0.00    -0.370 OA
ATOM     10  C   UNL     1      -6.578 -11.509  17.425  0.00  0.00    +0.171 C 
ATOM     11  C   UNL     1      -5.170 -11.280  17.936  0.00  0.00    +0.171 C 
ATOM     12  C   UNL     1      -7.451 -11.294  18.639  0.00  0.00    +0.130 C 
ATOM     13  C   UNL     1      -4.503 -10.486  16.836  0.00  0.00    +0.130 C 
ATOM     14  C   UNL     1      -6.657 -10.283  19.446  0.00  0.00    +0.185 C 
ATOM     15  C   UNL     1      -5.665  -9.701  16.253  0.00  0.00    +0.185 C 
BRANCH  13   5
ATOM      3  O   UNL     1      -1.741 -10.530  15.960  0.00  0.00    -0.273 OA
ATOM      5  N   UNL     1      -3.913 -11.357  15.849  0.00  0.00    -0.306 N 
ATOM     16  C   UNL     1      -2.573 -11.303  15.493  0.00  0.00    +0.239 C 
ATOM     31  H   UNL     1      -4.501 -12.075  15.434  0.00  0.00    +0.149 HD
BRANCH  16  18
ATOM     18  C   UNL     1      -2.231 -12.332  14.434  0.00  0.00    +0.255 C 
BRANCH  18   4
ATOM      4  O   UNL     1      -2.903 -12.045  13.226  0.00  0.00    -0.374 OA
ATOM     23  C   UNL     1      -2.069 -11.340  12.310  0.00  0.00    +0.194 C 
ENDBRANCH  18   4
ENDBRANCH  16  18
ENDBRANCH  13   5
ENDBRANCH   6  12
BRANCH  19  22
ATOM     22  C   UNL     1     -12.069 -11.603  20.455  0.00  0.00    +0.001 A 
ATOM     24  C   UNL     1     -13.213 -11.824  21.224  0.00  0.00    +0.012 A 
ATOM     25  C   UNL     1     -12.018 -10.511  19.586  0.00  0.00    +0.012 A 
ATOM     26  C   UNL     1     -14.248  -9.867  20.256  0.00  0.00    +0.029 A 
ATOM     27  C   UNL     1     -14.302 -10.957  21.124  0.00  0.00    +0.024 A 
ATOM     28  C   UNL     1     -13.106  -9.644  19.486  0.00  0.00    +0.024 A 
BRANCH  26   9
ATOM      9  N   UNL     1     -15.348  -8.990  20.155  0.00  0.00    -0.336 N 
ATOM     29  C   UNL     1     -15.751  -8.185  21.291  0.00  0.00    +0.129 C 
ATOM     30  C   UNL     1     -16.080  -8.871  18.911  0.00  0.00    +0.129 C 
ENDBRANCH  26   9
ENDBRANCH  19  22
TORSDOF 6
ENDMDL
MODEL 8
REMARK VINA RESULT:      -5.7      5.513      8.440
REMARK  Name = 11939784
REMARK  9 active torsions:
REMARK  status: ('A' for Active; 'I' for Inactive)
REMARK    1  A    between atoms: O_4  and  C_18
REMARK    2  A    between atoms: O_4  and  C_23
REMARK    3  A    between atoms: N_5  and  C_13
REMARK    4  A    between atoms: N_6  and  C_12
REMARK    5  A    between atoms: N_9  and  C_26
REMARK    6  A    between atoms: N_9  and  C_29
REMARK    7  A    between atoms: N_9  and  C_30
REMARK    8  A    between atoms: C_16  and  C_18
REMARK    9  A    between atoms: C_19  and  C_22
REMARK                            x       y       z     vdW  Elec       q    Type
REMARK                         _______ _______ _______ _____ _____    ______ ____
ROOT
ATOM      6  N   UNL     1      -7.764  -9.351  17.374  0.00  0.00    -0.306 N 
ATOM      7  N   UNL     1      -9.882  -9.735  18.310  0.00  0.00    -0.214 NA
ATOM      8  N   UNL     1      -9.586  -8.131  16.536  0.00  0.00    -0.223 NA
ATOM     17  C   UNL     1      -9.118  -9.064  17.408  0.00  0.00    +0.216 A 
ATOM     19  C   UNL     1     -11.196  -9.430  18.316  0.00  0.00    +0.076 A 
ATOM     20  C   UNL     1     -10.910  -7.877  16.597  0.00  0.00    +0.116 A 
ATOM     21  C   UNL     1     -11.771  -8.501  17.475  0.00  0.00    +0.048 A 
ATOM     32  H   UNL     1      -7.196  -8.807  16.734  0.00  0.00    +0.149 HD
ENDROOT
BRANCH   6  12
ATOM      1  O   UNL     1      -7.075 -12.345  17.008  0.00  0.00    -0.370 OA
ATOM      2  O   UNL     1      -4.922 -11.078  18.878  0.00  0.00    -0.370 OA
ATOM     10  C   UNL     1      -5.708 -10.562  17.791  0.00  0.00    +0.171 C 
ATOM     11  C   UNL     1      -5.832 -11.666  16.760  0.00  0.00    +0.171 C 
ATOM     12  C   UNL     1      -7.129 -10.317  18.242  0.00  0.00    +0.130 C 
ATOM     13  C   UNL     1      -4.665 -12.580  17.059  0.00  0.00    +0.130 C 
ATOM     14  C   UNL     1      -7.773 -11.680  18.072  0.00  0.00    +0.185 C 
ATOM     15  C   UNL     1      -4.495 -12.410  18.558  0.00  0.00    +0.185 C 
BRANCH  13   5
ATOM      3  O   UNL     1      -4.050 -13.028  14.263  0.00  0.00    -0.273 OA
ATOM      5  N   UNL     1      -3.482 -12.164  16.347  0.00  0.00    -0.306 N 
ATOM     16  C   UNL     1      -3.274 -12.426  15.000  0.00  0.00    +0.239 C 
ATOM     31  H   UNL     1      -2.793 -11.610  16.849  0.00  0.00    +0.149 HD
BRANCH  16  18
ATOM     18  C   UNL     1      -1.948 -11.874  14.518  0.00  0.00    +0.255 C 
BRANCH  18   4
ATOM      4  O   UNL     1      -1.303 -11.159  15.550  0.00  0.00    -0.374 OA
ATOM     23  C   UNL     1      -1.077  -9.798  15.193  0.00  0.00    +0.194 C 
ENDBRANCH  18   4
ENDBRANCH  16  18
ENDBRANCH  13   5
ENDBRANCH   6  12
BRANCH  19  22
ATOM     22  C   UNL     1     -11.988 -10.154  19.283  0.00  0.00    +0.001 A 
ATOM     24  C   UNL     1     -13.103  -9.550  19.868  0.00  0.00    +0.012 A 
ATOM     25  C   UNL     1     -11.639 -11.459  19.639  0.00  0.00    +0.012 A 
ATOM     26  C   UNL     1     -13.517 -11.551  21.156  0.00  0.00    +0.029 A 
ATOM     27  C   UNL     1     -13.867 -10.249  20.804  0.00  0.00    +0.024 A 
ATOM     28  C   UNL     1     -12.402 -12.157  20.574  0.00  0.00    +0.024 A 
BRANCH  26   9
ATOM      9  N   UNL     1     -14.289 -12.258  22.102  0.00  0.00    -0.336 N 
ATOM     29  C   UNL     1     -15.523 -12.905  21.704  0.00  0.00    +0.129 C 
ATOM     30  C   UNL     1     -13.852 -12.358  23.479  0.00  0.00    +0.129 C 
ENDBRANCH  26   9
ENDBRANCH  19  22
TORSDOF 6
ENDMDL
MODEL 9
REMARK VINA RESULT:      -5.7      2.812     11.038
REMARK  Name = 11939784
REMARK  9 active torsions:
REMARK  status: ('A' for Active; 'I' for Inactive)
REMARK    1  A    between atoms: O_4  and  C_18
REMARK    2  A    between atoms: O_4  and  C_23
REMARK    3  A    between atoms: N_5  and  C_13
REMARK    4  A    between atoms: N_6  and  C_12
REMARK    5  A    between atoms: N_9  and  C_26
REMARK    6  A    between atoms: N_9  and  C_29
REMARK    7  A    between atoms: N_9  and  C_30
REMARK    8  A    between atoms: C_16  and  C_18
REMARK    9  A    between atoms: C_19  and  C_22
REMARK                            x       y       z     vdW  Elec       q    Type
REMARK                         _______ _______ _______ _____ _____    ______ ____
ROOT
ATOM      6  N   UNL     1      -5.720 -10.752   9.732  0.00  0.00    -0.306 N 
ATOM      7  N   UNL     1      -5.485 -11.287   7.459  0.00  0.00    -0.214 NA
ATOM      8  N   UNL     1      -7.577 -10.463   8.326  0.00  0.00    -0.223 NA
ATOM     17  C   UNL     1      -6.277 -10.837   8.467  0.00  0.00    +0.216 A 
ATOM     19  C   UNL     1      -6.061 -11.357   6.241  0.00  0.00    +0.076 A 
ATOM     20  C   UNL     1      -8.088 -10.558   7.080  0.00  0.00    +0.116 A 
ATOM     21  C   UNL     1      -7.370 -11.003   5.990  0.00  0.00    +0.048 A 
ATOM     32  H   UNL     1      -6.335 -10.465  10.485  0.00  0.00    +0.149 HD
ENDROOT
BRANCH   6  12
ATOM      1  O   UNL     1      -3.451  -9.279  11.235  0.00  0.00    -0.370 OA
ATOM      2  O   UNL     1      -3.072 -12.345  11.673  0.00  0.00    -0.370 OA
ATOM     10  C   UNL     1      -4.229 -11.515  11.481  0.00  0.00    +0.171 C 
ATOM     11  C   UNL     1      -3.969 -10.208  12.203  0.00  0.00    +0.171 C 
ATOM     12  C   UNL     1      -4.353 -11.117  10.029  0.00  0.00    +0.130 C 
ATOM     13  C   UNL     1      -2.905 -10.554  13.220  0.00  0.00    +0.130 C 
ATOM     14  C   UNL     1      -3.452  -9.898   9.939  0.00  0.00    +0.185 C 
ATOM     15  C   UNL     1      -2.138 -11.663  12.523  0.00  0.00    +0.185 C 
BRANCH  13   5
ATOM      3  O   UNL     1      -1.823 -10.286  15.895  0.00  0.00    -0.273 OA
ATOM      5  N   UNL     1      -3.494 -11.020  14.452  0.00  0.00    -0.306 N 
ATOM     16  C   UNL     1      -2.897 -10.845  15.693  0.00  0.00    +0.239 C 
ATOM     31  H   UNL     1      -4.413 -11.452  14.408  0.00  0.00    +0.149 HD
BRANCH  16  18
ATOM     18  C   UNL     1      -3.737 -11.433  16.808  0.00  0.00    +0.255 C 
BRANCH  18   4
ATOM      4  O   UNL     1      -4.794 -10.561  17.147  0.00  0.00    -0.374 OA
ATOM     23  C   UNL     1      -5.206 -10.727  18.502  0.00  0.00    +0.194 C 
ENDBRANCH  18   4
ENDBRANCH  16  18
ENDBRANCH  13   5
ENDBRANCH   6  12
BRANCH  19  22
ATOM     22  C   UNL     1      -5.202 -11.840   5.184  0.00  0.00    +0.001 A 
ATOM     24  C   UNL     1      -5.731 -12.117   3.923  0.00  0.00    +0.012 A 
ATOM     25  C   UNL     1      -3.839 -12.032   5.422  0.00  0.00    +0.012 A 
ATOM     26  C   UNL     1      -3.542 -12.776   3.143  0.00  0.00    +0.029 A 
ATOM     27  C   UNL     1      -4.902 -12.585   2.903  0.00  0.00    +0.024 A 
ATOM     28  C   UNL     1      -3.010 -12.500   4.403  0.00  0.00    +0.024 A 
BRANCH  26   9
ATOM      9  N   UNL     1      -2.703 -13.248   2.112  0.00  0.00    -0.336 N 
ATOM     29  C   UNL     1      -1.407 -13.818   2.424  0.00  0.00    +0.129 C 
ATOM     30  C   UNL     1      -3.131 -13.183   0.730  0.00  0.00    +0.129 C 
ENDBRANCH  26   9
ENDBRANCH  19  22
TORSDOF 6
ENDMDL
MODEL 10
REMARK VINA RESULT:      -5.5      5.522      9.253
REMARK  Name = 11939784
REMARK  9 active torsions:
REMARK  status: ('A' for Active; 'I' for Inactive)
REMARK    1  A    between atoms: O_4  and  C_18
REMARK    2  A    between atoms: O_4  and  C_23
REMARK    3  A    between atoms: N_5  and  C_13
REMARK    4  A    between atoms: N_6  and  C_12
REMARK    5  A    between atoms: N_9  and  C_26
REMARK    6  A    between atoms: N_9  and  C_29
REMARK    7  A    between atoms: N_9  and  C_30
REMARK    8  A    between atoms: C_16  and  C_18
REMARK    9  A    between atoms: C_19  and  C_22
REMARK                            x       y       z     vdW  Elec       q    Type
REMARK                         _______ _______ _______ _____ _____    ______ ____
ROOT
ATOM      6  N   UNL     1      -7.203  -9.897   9.409  0.00  0.00    -0.306 N 
ATOM      7  N   UNL     1      -8.634  -8.059   9.128  0.00  0.00    -0.214 NA
ATOM      8  N   UNL     1      -7.198  -8.794   7.338  0.00  0.00    -0.223 NA
ATOM     17  C   UNL     1      -7.693  -8.886   8.601  0.00  0.00    +0.216 A 
ATOM     19  C   UNL     1      -9.089  -7.085   8.312  0.00  0.00    +0.076 A 
ATOM     20  C   UNL     1      -7.699  -7.797   6.578  0.00  0.00    +0.116 A 
ATOM     21  C   UNL     1      -8.654  -6.904   7.016  0.00  0.00    +0.048 A 
ATOM     32  H   UNL     1      -6.464 -10.475   9.024  0.00  0.00    +0.149 HD
ENDROOT
BRANCH   6  12
ATOM      1  O   UNL     1      -6.619 -12.150  11.449  0.00  0.00    -0.370 OA
ATOM      2  O   UNL     1      -7.038  -9.495  13.033  0.00  0.00    -0.370 OA
ATOM     10  C   UNL     1      -6.513  -9.790  11.729  0.00  0.00    +0.171 C 
ATOM     11  C   UNL     1      -5.735 -11.086  11.839  0.00  0.00    +0.171 C 
ATOM     12  C   UNL     1      -7.636 -10.113  10.772  0.00  0.00    +0.130 C 
ATOM     13  C   UNL     1      -5.403 -11.192  13.310  0.00  0.00    +0.130 C 
ATOM     14  C   UNL     1      -7.871 -11.592  11.021  0.00  0.00    +0.185 C 
ATOM     15  C   UNL     1      -6.582 -10.491  13.960  0.00  0.00    +0.185 C 
BRANCH  13   5
ATOM      3  O   UNL     1      -2.763 -12.374  13.483  0.00  0.00    -0.273 OA
ATOM      5  N   UNL     1      -4.163 -10.520  13.614  0.00  0.00    -0.306 N 
ATOM     16  C   UNL     1      -2.940 -11.175  13.675  0.00  0.00    +0.239 C 
ATOM     31  H   UNL     1      -4.185  -9.512  13.739  0.00  0.00    +0.149 HD
BRANCH  16  18
ATOM     18  C   UNL     1      -1.811 -10.224  14.013  0.00  0.00    +0.255 C 
BRANCH  18   4
ATOM      4  O   UNL     1      -1.121 -10.659  15.165  0.00  0.00    -0.374 OA
ATOM     23  C   UNL     1      -1.984 -10.766  16.293  0.00  0.00    +0.194 C 
ENDBRANCH  18   4
ENDBRANCH  16  18
ENDBRANCH  13   5
ENDBRANCH   6  12
BRANCH  19  22
ATOM     22  C   UNL     1     -10.087  -6.217   8.893  0.00  0.00    +0.001 A 
ATOM     24  C   UNL     1     -11.162  -6.760   9.600  0.00  0.00    +0.012 A 
ATOM     25  C   UNL     1      -9.982  -4.832   8.747  0.00  0.00    +0.012 A 
ATOM     26  C   UNL     1     -12.019  -4.540  10.012  0.00  0.00    +0.029 A 
ATOM     27  C   UNL     1     -12.127  -5.922  10.159  0.00  0.00    +0.024 A 
ATOM     28  C   UNL     1     -10.947  -3.994   9.305  0.00  0.00    +0.024 A 
BRANCH  26   9
ATOM      9  N   UNL     1     -12.994  -3.692  10.577  0.00  0.00    -0.336 N 
ATOM     29  C   UNL     1     -14.091  -3.194   9.771  0.00  0.00    +0.129 C 
ATOM     30  C   UNL     1     -12.921  -3.319  11.975  0.00  0.00    +0.129 C 
ENDBRANCH  26   9
ENDBRANCH  19  22
TORSDOF 6
ENDMDL
