REMARK  Name = 11912820
REMARK  9 active torsions:
REMARK  status: ('A' for Active; 'I' for Inactive)
REMARK    1  A    between atoms: O_4  and  C_29
REMARK    2  A    between atoms: O_4  and  C_30
REMARK    3  A    between atoms: N_5  and  C_11
REMARK    4  A    between atoms: N_6  and  C_12
REMARK    5  A    between atoms: C_15  and  C_16
REMARK    6  A    between atoms: C_16  and  C_18
REMARK    7  A    between atoms: C_16  and  C_19
REMARK    8  A    between atoms: C_16  and  C_20
REMARK    9  A    between atoms: C_21  and  C_24
REMARK                            x       y       z     vdW  Elec       q    Type
REMARK                         _______ _______ _______ _____ _____    ______ ____
ROOT
ATOM      6  N   UNL     1       0.079  -2.691   0.298  0.00  0.00    -0.306 N 
ATOM      7  N   UNL     1      -1.853  -1.425  -0.119  0.00  0.00    -0.214 NA
ATOM      8  N   UNL     1      -1.315  -3.343  -1.474  0.00  0.00    -0.223 NA
ATOM     17  C   UNL     1      -1.063  -2.480  -0.454  0.00  0.00    +0.216 A 
ATOM     21  C   UNL     1      -2.958  -1.249  -0.872  0.00  0.00    +0.076 A 
ATOM     22  C   UNL     1      -2.436  -3.108  -2.187  0.00  0.00    +0.116 A 
ATOM     23  C   UNL     1      -3.303  -2.066  -1.929  0.00  0.00    +0.048 A 
ATOM     32  H   UNL     1       0.686  -3.449   0.006  0.00  0.00    +0.149 HD
ENDROOT
BRANCH   6  12
ATOM      1  O   UNL     1       1.197   0.409   1.868  0.00  0.00    -0.370 OA
ATOM      2  O   UNL     1       2.786  -2.273   1.739  0.00  0.00    -0.370 OA
ATOM      9  C   UNL     1       2.683  -1.147   0.852  0.00  0.00    +0.171 C 
ATOM     10  C   UNL     1       1.248  -0.659   0.907  0.00  0.00    +0.171 C 
ATOM     11  C   UNL     1       3.487   0.017   1.386  0.00  0.00    +0.130 C 
ATOM     12  C   UNL     1       0.471  -1.853   1.409  0.00  0.00    +0.130 C 
ATOM     13  C   UNL     1       2.520   0.659   2.364  0.00  0.00    +0.185 C 
ATOM     14  C   UNL     1       1.489  -2.572   2.276  0.00  0.00    +0.185 C 
BRANCH  11   5
ATOM      3  O   UNL     1       5.931   0.026  -0.082  0.00  0.00    -0.275 OA
ATOM      5  N   UNL     1       3.847   0.931   0.329  0.00  0.00    -0.307 N 
ATOM     15  C   UNL     1       5.064   0.863  -0.335  0.00  0.00    +0.219 C 
ATOM     31  H   UNL     1       3.153   1.613   0.037  0.00  0.00    +0.149 HD
BRANCH  15  16
ATOM     16  C   UNL     1       5.248   1.931  -1.433  0.00  0.00    +0.039 C 
ATOM     18  C   UNL     1       6.636   1.765  -2.079  0.00  0.00    +0.020 C 
ATOM     19  C   UNL     1       4.178   1.757  -2.522  0.00  0.00    +0.020 C 
ATOM     20  C   UNL     1       5.157   3.338  -0.822  0.00  0.00    +0.020 C 
ENDBRANCH  15  16
ENDBRANCH  11   5
ENDBRANCH   6  12
BRANCH  21  24
ATOM     24  C   UNL     1      -3.780  -0.123  -0.500  0.00  0.00    +0.001 A 
ATOM     25  C   UNL     1      -5.160  -0.161  -0.716  0.00  0.00    +0.013 A 
ATOM     26  C   UNL     1      -3.200   1.009   0.076  0.00  0.00    +0.013 A 
ATOM     27  C   UNL     1      -5.954   0.928  -0.356  0.00  0.00    +0.046 A 
ATOM     28  C   UNL     1      -3.994   2.098   0.436  0.00  0.00    +0.046 A 
ATOM     29  C   UNL     1      -5.372   2.057   0.219  0.00  0.00    +0.120 A 
BRANCH  29   4
ATOM      4  O   UNL     1      -6.146   3.120   0.569  0.00  0.00    -0.495 OA
ATOM     30  C   UNL     1      -5.486   4.242   1.153  0.00  0.00    +0.277 C 
ENDBRANCH  29   4
ENDBRANCH  21  24
TORSDOF 5
