MODEL 1
REMARK VINA RESULT:      -7.0      0.000      0.000
REMARK  Name = 45361421
REMARK  16 active torsions:
REMARK  status: ('A' for Active; 'I' for Inactive)
REMARK    1  A    between atoms: O_1  and  C_10
REMARK    2  A    between atoms: O_4  and  C_34
REMARK    3  A    between atoms: O_4  and  C_35
REMARK    4  A    between atoms: N_5  and  C_14
REMARK    5  A    between atoms: N_6  and  C_25
REMARK    6  A    between atoms: C_7  and  C_17
REMARK    7  A    between atoms: C_9  and  C_19
REMARK    8  A    between atoms: C_13  and  C_18
REMARK    9  A    between atoms: C_18  and  C_20
REMARK   10  A    between atoms: C_18  and  C_21
REMARK   11  A    between atoms: C_22  and  C_23
REMARK   12  A    between atoms: C_23  and  C_24
REMARK   13  A    between atoms: C_24  and  C_26
REMARK   14  A    between atoms: C_24  and  C_27
REMARK   15  A    between atoms: C_24  and  C_28
REMARK   16  A    between atoms: C_25  and  C_29
REMARK                            x       y       z     vdW  Elec       q    Type
REMARK                         _______ _______ _______ _____ _____    ______ ____
ROOT
ATOM      7  C   UNL     1      -4.838 -11.048  16.786  0.00  0.00    -0.027 C 
ATOM      8  C   UNL     1      -5.576 -10.466  15.534  0.00  0.00    +0.028 C 
ATOM      9  C   UNL     1      -7.131 -10.625  15.679  0.00  0.00    +0.012 C 
ATOM     10  C   UNL     1      -4.968 -11.019  14.213  0.00  0.00    +0.122 C 
ATOM     11  C   UNL     1      -3.320 -10.774  16.663  0.00  0.00    +0.007 C 
ATOM     12  C   UNL     1      -5.346 -10.323  18.053  0.00  0.00    +0.009 C 
ATOM     13  C   UNL     1      -3.433 -10.836  14.142  0.00  0.00    +0.029 C 
ATOM     14  C   UNL     1      -7.621  -9.957  16.995  0.00  0.00    +0.076 C 
ATOM     15  C   UNL     1      -2.714 -11.349  15.389  0.00  0.00    +0.007 C 
ATOM     16  C   UNL     1      -6.854 -10.420  18.233  0.00  0.00    +0.023 C 
ATOM     17  C   UNL     1      -5.057 -12.573  16.948  0.00  0.00    +0.011 C 
ATOM     19  C   UNL     1      -7.923 -10.046  14.494  0.00  0.00    +0.010 C 
ENDROOT
BRANCH  14   5
ATOM      3  O   UNL     1      -9.646  -7.975  17.595  0.00  0.00    -0.276 OA
ATOM      5  N   UNL     1      -9.033 -10.184  17.218  0.00  0.00    -0.312 N 
ATOM     22  C   UNL     1      -9.927  -9.168  17.501  0.00  0.00    +0.214 C 
ATOM     36  H   UNL     1      -9.364 -11.145  17.199  0.00  0.00    +0.149 HD
BRANCH  22  23
ATOM     23  C   UNL     1     -11.349  -9.668  17.702  0.00  0.00    +0.102 C 
BRANCH  23  24
ATOM     24  C   UNL     1     -11.600 -10.372  19.057  0.00  0.00    -0.029 C 
ATOM     26  C   UNL     1     -10.402 -10.192  20.004  0.00  0.00    +0.011 C 
ATOM     27  C   UNL     1     -12.837  -9.723  19.709  0.00  0.00    +0.011 C 
ATOM     28  C   UNL     1     -11.880 -11.872  18.871  0.00  0.00    +0.011 C 
ENDBRANCH  23  24
ENDBRANCH  22  23
ENDBRANCH  14   5
BRANCH  10   1
ATOM      1  O   UNL     1      -5.515 -10.308  13.102  0.00  0.00    -0.391 OA
ATOM     37  H   UNL     1      -4.960  -9.526  12.939  0.00  0.00    +0.210 HD
ENDBRANCH  10   1
BRANCH  13  18
ATOM     18  C   UNL     1      -2.838 -11.502  12.897  0.00  0.00    +0.077 C 
ATOM     20  C   UNL     1      -1.624 -12.342  13.279  0.00  0.00    +0.017 C 
BRANCH  18  21
ATOM      2  O   UNL     1      -1.373  -9.901  11.821  0.00  0.00    -0.276 OA
ATOM      6  N   UNL     1      -3.525 -10.166  10.995  0.00  0.00    -0.311 N 
ATOM     21  C   UNL     1      -2.477 -10.441  11.861  0.00  0.00    +0.216 C 
ATOM     38  H   UNL     1      -4.389 -10.694  11.061  0.00  0.00    +0.149 HD
BRANCH   6  25
ATOM     25  C   UNL     1      -3.424  -9.194   9.930  0.00  0.00    +0.139 C 
BRANCH  25  29
ATOM     29  C   UNL     1      -4.710  -9.061   9.168  0.00  0.00    -0.030 A 
ATOM     30  C   UNL     1      -5.715  -8.215   9.638  0.00  0.00    +0.009 A 
ATOM     31  C   UNL     1      -4.901  -9.784   7.991  0.00  0.00    +0.009 A 
ATOM     32  C   UNL     1      -6.911  -8.093   8.930  0.00  0.00    +0.046 A 
ATOM     33  C   UNL     1      -6.097  -9.662   7.283  0.00  0.00    +0.046 A 
ATOM     34  C   UNL     1      -7.102  -8.816   7.752  0.00  0.00    +0.120 A 
BRANCH  34   4
ATOM      4  O   UNL     1      -8.268  -8.696   7.061  0.00  0.00    -0.495 OA
ATOM     35  C   UNL     1      -8.454  -7.499   6.307  0.00  0.00    +0.277 C 
ENDBRANCH  34   4
ENDBRANCH  25  29
ENDBRANCH   6  25
ENDBRANCH  18  21
ENDBRANCH  13  18
TORSDOF 9
ENDMDL
MODEL 2
REMARK VINA RESULT:      -6.9      2.000      8.393
REMARK  Name = 45361421
REMARK  16 active torsions:
REMARK  status: ('A' for Active; 'I' for Inactive)
REMARK    1  A    between atoms: O_1  and  C_10
REMARK    2  A    between atoms: O_4  and  C_34
REMARK    3  A    between atoms: O_4  and  C_35
REMARK    4  A    between atoms: N_5  and  C_14
REMARK    5  A    between atoms: N_6  and  C_25
REMARK    6  A    between atoms: C_7  and  C_17
REMARK    7  A    between atoms: C_9  and  C_19
REMARK    8  A    between atoms: C_13  and  C_18
REMARK    9  A    between atoms: C_18  and  C_20
REMARK   10  A    between atoms: C_18  and  C_21
REMARK   11  A    between atoms: C_22  and  C_23
REMARK   12  A    between atoms: C_23  and  C_24
REMARK   13  A    between atoms: C_24  and  C_26
REMARK   14  A    between atoms: C_24  and  C_27
REMARK   15  A    between atoms: C_24  and  C_28
REMARK   16  A    between atoms: C_25  and  C_29
REMARK                            x       y       z     vdW  Elec       q    Type
REMARK                         _______ _______ _______ _____ _____    ______ ____
ROOT
ATOM      7  C   UNL     1      -3.407 -11.069  11.276  0.00  0.00    -0.027 C 
ATOM      8  C   UNL     1      -4.740 -10.604  11.952  0.00  0.00    +0.028 C 
ATOM      9  C   UNL     1      -5.508  -9.589  11.033  0.00  0.00    +0.012 C 
ATOM     10  C   UNL     1      -4.497 -10.131  13.414  0.00  0.00    +0.122 C 
ATOM     11  C   UNL     1      -2.734 -12.151  12.154  0.00  0.00    +0.007 C 
ATOM     12  C   UNL     1      -3.732 -11.708   9.907  0.00  0.00    +0.009 C 
ATOM     13  C   UNL     1      -3.730 -11.176  14.258  0.00  0.00    +0.029 C 
ATOM     14  C   UNL     1      -5.763 -10.215   9.633  0.00  0.00    +0.076 C 
ATOM     15  C   UNL     1      -2.458 -11.676  13.575  0.00  0.00    +0.007 C 
ATOM     16  C   UNL     1      -4.501 -10.778   8.980  0.00  0.00    +0.023 C 
ATOM     17  C   UNL     1      -2.408  -9.902  11.071  0.00  0.00    +0.011 C 
ATOM     19  C   UNL     1      -6.846  -9.113  11.624  0.00  0.00    +0.010 C 
ENDROOT
BRANCH  14   5
ATOM      3  O   UNL     1      -8.091 -10.622   7.958  0.00  0.00    -0.276 OA
ATOM      5  N   UNL     1      -6.366  -9.265   8.722  0.00  0.00    -0.312 N 
ATOM     22  C   UNL     1      -7.484  -9.554   7.960  0.00  0.00    +0.214 C 
ATOM     36  H   UNL     1      -5.917  -8.360   8.620  0.00  0.00    +0.149 HD
BRANCH  22  23
ATOM     23  C   UNL     1      -7.915  -8.392   7.078  0.00  0.00    +0.102 C 
BRANCH  23  24
ATOM     24  C   UNL     1      -8.760  -7.314   7.797  0.00  0.00    -0.029 C 
ATOM     26  C   UNL     1      -7.899  -6.094   8.169  0.00  0.00    +0.011 C 
ATOM     27  C   UNL     1      -9.867  -6.852   6.829  0.00  0.00    +0.011 C 
ATOM     28  C   UNL     1      -9.425  -7.871   9.067  0.00  0.00    +0.011 C 
ENDBRANCH  23  24
ENDBRANCH  22  23
ENDBRANCH  14   5
BRANCH  10   1
ATOM      1  O   UNL     1      -5.752  -9.923  14.063  0.00  0.00    -0.391 OA
ATOM     37  H   UNL     1      -5.673  -9.137  14.630  0.00  0.00    +0.210 HD
ENDBRANCH  10   1
BRANCH  13  18
ATOM     18  C   UNL     1      -3.386 -10.640  15.652  0.00  0.00    +0.077 C 
ATOM     20  C   UNL     1      -1.902 -10.842  15.941  0.00  0.00    +0.017 C 
BRANCH  18  21
ATOM      2  O   UNL     1      -4.341 -12.547  16.800  0.00  0.00    -0.276 OA
ATOM      6  N   UNL     1      -4.926 -10.417  17.511  0.00  0.00    -0.311 N 
ATOM     21  C   UNL     1      -4.256 -11.324  16.702  0.00  0.00    +0.216 C 
ATOM     38  H   UNL     1      -4.761  -9.422  17.399  0.00  0.00    +0.149 HD
BRANCH   6  25
ATOM     25  C   UNL     1      -5.812 -10.825  18.576  0.00  0.00    +0.139 C 
BRANCH  25  29
ATOM     29  C   UNL     1      -7.225 -10.380  18.333  0.00  0.00    -0.030 A 
ATOM     30  C   UNL     1      -8.269 -10.939  19.070  0.00  0.00    +0.009 A 
ATOM     31  C   UNL     1      -7.494  -9.409  17.368  0.00  0.00    +0.009 A 
ATOM     32  C   UNL     1      -9.582 -10.526  18.842  0.00  0.00    +0.046 A 
ATOM     33  C   UNL     1      -8.806  -8.996  17.141  0.00  0.00    +0.046 A 
ATOM     34  C   UNL     1      -9.851  -9.554  17.878  0.00  0.00    +0.120 A 
BRANCH  34   4
ATOM      4  O   UNL     1     -11.131  -9.151  17.657  0.00  0.00    -0.495 OA
ATOM     35  C   UNL     1     -11.312  -7.943  16.919  0.00  0.00    +0.277 C 
ENDBRANCH  34   4
ENDBRANCH  25  29
ENDBRANCH   6  25
ENDBRANCH  18  21
ENDBRANCH  13  18
TORSDOF 9
ENDMDL
MODEL 3
REMARK VINA RESULT:      -6.9     24.141     27.072
REMARK  Name = 45361421
REMARK  16 active torsions:
REMARK  status: ('A' for Active; 'I' for Inactive)
REMARK    1  A    between atoms: O_1  and  C_10
REMARK    2  A    between atoms: O_4  and  C_34
REMARK    3  A    between atoms: O_4  and  C_35
REMARK    4  A    between atoms: N_5  and  C_14
REMARK    5  A    between atoms: N_6  and  C_25
REMARK    6  A    between atoms: C_7  and  C_17
REMARK    7  A    between atoms: C_9  and  C_19
REMARK    8  A    between atoms: C_13  and  C_18
REMARK    9  A    between atoms: C_18  and  C_20
REMARK   10  A    between atoms: C_18  and  C_21
REMARK   11  A    between atoms: C_22  and  C_23
REMARK   12  A    between atoms: C_23  and  C_24
REMARK   13  A    between atoms: C_24  and  C_26
REMARK   14  A    between atoms: C_24  and  C_27
REMARK   15  A    between atoms: C_24  and  C_28
REMARK   16  A    between atoms: C_25  and  C_29
REMARK                            x       y       z     vdW  Elec       q    Type
REMARK                         _______ _______ _______ _____ _____    ______ ____
ROOT
ATOM      7  C   UNL     1       9.814   6.555   6.637  0.00  0.00    -0.027 C 
ATOM      8  C   UNL     1      10.311   7.491   5.484  0.00  0.00    +0.028 C 
ATOM      9  C   UNL     1      11.377   6.760   4.592  0.00  0.00    +0.012 C 
ATOM     10  C   UNL     1      10.739   8.883   6.032  0.00  0.00    +0.122 C 
ATOM     11  C   UNL     1       8.687   7.263   7.425  0.00  0.00    +0.007 C 
ATOM     12  C   UNL     1       9.222   5.268   6.021  0.00  0.00    +0.009 C 
ATOM     13  C   UNL     1       9.646   9.540   6.907  0.00  0.00    +0.029 C 
ATOM     14  C   UNL     1      10.795   5.429   4.039  0.00  0.00    +0.076 C 
ATOM     15  C   UNL     1       9.115   8.608   7.997  0.00  0.00    +0.007 C 
ATOM     16  C   UNL     1      10.203   4.528   5.122  0.00  0.00    +0.023 C 
ATOM     17  C   UNL     1      10.947   6.175   7.622  0.00  0.00    +0.011 C 
ATOM     19  C   UNL     1      11.888   7.614   3.419  0.00  0.00    +0.010 C 
ENDROOT
BRANCH  14   5
ATOM      3  O   UNL     1      10.409   3.924   1.594  0.00  0.00    -0.276 OA
ATOM      5  N   UNL     1      11.789   4.672   3.307  0.00  0.00    -0.312 N 
ATOM     22  C   UNL     1      11.507   3.982   2.142  0.00  0.00    +0.214 C 
ATOM     36  H   UNL     1      12.726   4.625   3.697  0.00  0.00    +0.149 HD
BRANCH  22  23
ATOM     23  C   UNL     1      12.719   3.261   1.573  0.00  0.00    +0.102 C 
BRANCH  23  24
ATOM     24  C   UNL     1      13.351   3.939   0.334  0.00  0.00    -0.029 C 
ATOM     26  C   UNL     1      12.970   5.428   0.263  0.00  0.00    +0.011 C 
ATOM     27  C   UNL     1      14.883   3.834   0.463  0.00  0.00    +0.011 C 
ATOM     28  C   UNL     1      12.924   3.244  -0.969  0.00  0.00    +0.011 C 
ENDBRANCH  23  24
ENDBRANCH  22  23
ENDBRANCH  14   5
BRANCH  10   1
ATOM      1  O   UNL     1      10.978   9.772   4.940  0.00  0.00    -0.391 OA
ATOM     37  H   UNL     1      11.784   9.479   4.481  0.00  0.00    +0.210 HD
ENDBRANCH  10   1
BRANCH  13  18
ATOM     18  C   UNL     1      10.134  10.846   7.543  0.00  0.00    +0.077 C 
ATOM     20  C   UNL     1      10.168  10.711   9.061  0.00  0.00    +0.017 C 
BRANCH  18  21
ATOM      2  O   UNL     1       9.214  13.081   7.698  0.00  0.00    -0.276 OA
ATOM      6  N   UNL     1       8.478  11.694   5.991  0.00  0.00    -0.311 N 
ATOM     21  C   UNL     1       9.241  12.003   7.107  0.00  0.00    +0.216 C 
ATOM     38  H   UNL     1       8.596  10.799   5.528  0.00  0.00    +0.149 HD
BRANCH   6  25
ATOM     25  C   UNL     1       7.552  12.630   5.393  0.00  0.00    +0.139 C 
BRANCH  25  29
ATOM     29  C   UNL     1       6.524  11.938   4.546  0.00  0.00    -0.030 A 
ATOM     30  C   UNL     1       5.336  12.592   4.217  0.00  0.00    +0.009 A 
ATOM     31  C   UNL     1       6.756  10.641   4.088  0.00  0.00    +0.009 A 
ATOM     32  C   UNL     1       4.381  11.948   3.430  0.00  0.00    +0.046 A 
ATOM     33  C   UNL     1       5.800   9.998   3.301  0.00  0.00    +0.046 A 
ATOM     34  C   UNL     1       4.613  10.651   2.972  0.00  0.00    +0.120 A 
BRANCH  34   4
ATOM      4  O   UNL     1       3.681  10.024   2.204  0.00  0.00    -0.495 OA
ATOM     35  C   UNL     1       4.080   9.633   0.891  0.00  0.00    +0.277 C 
ENDBRANCH  34   4
ENDBRANCH  25  29
ENDBRANCH   6  25
ENDBRANCH  18  21
ENDBRANCH  13  18
TORSDOF 9
ENDMDL
MODEL 4
REMARK VINA RESULT:      -6.8      3.303      6.338
REMARK  Name = 45361421
REMARK  16 active torsions:
REMARK  status: ('A' for Active; 'I' for Inactive)
REMARK    1  A    between atoms: O_1  and  C_10
REMARK    2  A    between atoms: O_4  and  C_34
REMARK    3  A    between atoms: O_4  and  C_35
REMARK    4  A    between atoms: N_5  and  C_14
REMARK    5  A    between atoms: N_6  and  C_25
REMARK    6  A    between atoms: C_7  and  C_17
REMARK    7  A    between atoms: C_9  and  C_19
REMARK    8  A    between atoms: C_13  and  C_18
REMARK    9  A    between atoms: C_18  and  C_20
REMARK   10  A    between atoms: C_18  and  C_21
REMARK   11  A    between atoms: C_22  and  C_23
REMARK   12  A    between atoms: C_23  and  C_24
REMARK   13  A    between atoms: C_24  and  C_26
REMARK   14  A    between atoms: C_24  and  C_27
REMARK   15  A    between atoms: C_24  and  C_28
REMARK   16  A    between atoms: C_25  and  C_29
REMARK                            x       y       z     vdW  Elec       q    Type
REMARK                         _______ _______ _______ _____ _____    ______ ____
ROOT
ATOM      7  C   UNL     1      -4.346 -10.387  10.803  0.00  0.00    -0.027 C 
ATOM      8  C   UNL     1      -5.792  -9.920  11.180  0.00  0.00    +0.028 C 
ATOM      9  C   UNL     1      -6.280 -10.624  12.496  0.00  0.00    +0.012 C 
ATOM     10  C   UNL     1      -6.757 -10.033   9.964  0.00  0.00    +0.122 C 
ATOM     11  C   UNL     1      -3.854  -9.593   9.569  0.00  0.00    +0.007 C 
ATOM     12  C   UNL     1      -3.392 -10.072  11.977  0.00  0.00    +0.009 C 
ATOM     13  C   UNL     1      -6.209  -9.325   8.702  0.00  0.00    +0.029 C 
ATOM     14  C   UNL     1      -5.274 -10.362  13.652  0.00  0.00    +0.076 C 
ATOM     15  C   UNL     1      -4.776  -9.734   8.365  0.00  0.00    +0.007 C 
ATOM     16  C   UNL     1      -3.830 -10.707  13.290  0.00  0.00    +0.023 C 
ATOM     17  C   UNL     1      -4.277 -11.901  10.480  0.00  0.00    +0.011 C 
ATOM     19  C   UNL     1      -7.686 -10.187  12.943  0.00  0.00    +0.010 C 
ENDROOT
BRANCH  14   5
ATOM      3  O   UNL     1      -5.963  -9.259  16.240  0.00  0.00    -0.276 OA
ATOM      5  N   UNL     1      -5.633 -11.091  14.850  0.00  0.00    -0.312 N 
ATOM     22  C   UNL     1      -5.947 -10.472  16.046  0.00  0.00    +0.214 C 
ATOM     36  H   UNL     1      -5.614 -12.106  14.807  0.00  0.00    +0.149 HD
BRANCH  22  23
ATOM     23  C   UNL     1      -6.279 -11.459  17.155  0.00  0.00    +0.102 C 
BRANCH  23  24
ATOM     24  C   UNL     1      -5.065 -11.918  17.996  0.00  0.00    -0.029 C 
ATOM     26  C   UNL     1      -5.270 -11.594  19.486  0.00  0.00    +0.011 C 
ATOM     27  C   UNL     1      -4.931 -13.446  17.845  0.00  0.00    +0.011 C 
ATOM     28  C   UNL     1      -3.761 -11.265  17.509  0.00  0.00    +0.011 C 
ENDBRANCH  23  24
ENDBRANCH  22  23
ENDBRANCH  14   5
BRANCH  10   1
ATOM      1  O   UNL     1      -7.998  -9.401  10.280  0.00  0.00    -0.391 OA
ATOM     37  H   UNL     1      -7.879  -8.894  11.102  0.00  0.00    +0.210 HD
ENDBRANCH  10   1
BRANCH  13  18
ATOM     18  C   UNL     1      -7.109  -9.559   7.484  0.00  0.00    +0.077 C 
ATOM     20  C   UNL     1      -6.356 -10.347   6.418  0.00  0.00    +0.017 C 
BRANCH  18  21
ATOM      2  O   UNL     1      -7.513  -7.911   5.754  0.00  0.00    -0.276 OA
ATOM      6  N   UNL     1      -8.159  -7.420   7.927  0.00  0.00    -0.311 N 
ATOM     21  C   UNL     1      -7.606  -8.222   6.940  0.00  0.00    +0.216 C 
ATOM     38  H   UNL     1      -8.247  -7.771   8.875  0.00  0.00    +0.149 HD
BRANCH   6  25
ATOM     25  C   UNL     1      -8.696  -6.106   7.657  0.00  0.00    +0.139 C 
BRANCH  25  29
ATOM     29  C   UNL     1      -9.826  -5.759   8.583  0.00  0.00    -0.030 A 
ATOM     30  C   UNL     1     -10.573  -6.774   9.181  0.00  0.00    +0.009 A 
ATOM     31  C   UNL     1     -10.128  -4.423   8.845  0.00  0.00    +0.009 A 
ATOM     32  C   UNL     1     -11.623  -6.452  10.042  0.00  0.00    +0.046 A 
ATOM     33  C   UNL     1     -11.178  -4.101   9.705  0.00  0.00    +0.046 A 
ATOM     34  C   UNL     1     -11.925  -5.115  10.303  0.00  0.00    +0.120 A 
BRANCH  34   4
ATOM      4  O   UNL     1     -12.949  -4.801  11.143  0.00  0.00    -0.495 OA
ATOM     35  C   UNL     1     -12.903  -3.520  11.771  0.00  0.00    +0.277 C 
ENDBRANCH  34   4
ENDBRANCH  25  29
ENDBRANCH   6  25
ENDBRANCH  18  21
ENDBRANCH  13  18
TORSDOF 9
ENDMDL
MODEL 5
REMARK VINA RESULT:      -6.8     24.144     27.039
REMARK  Name = 45361421
REMARK  16 active torsions:
REMARK  status: ('A' for Active; 'I' for Inactive)
REMARK    1  A    between atoms: O_1  and  C_10
REMARK    2  A    between atoms: O_4  and  C_34
REMARK    3  A    between atoms: O_4  and  C_35
REMARK    4  A    between atoms: N_5  and  C_14
REMARK    5  A    between atoms: N_6  and  C_25
REMARK    6  A    between atoms: C_7  and  C_17
REMARK    7  A    between atoms: C_9  and  C_19
REMARK    8  A    between atoms: C_13  and  C_18
REMARK    9  A    between atoms: C_18  and  C_20
REMARK   10  A    between atoms: C_18  and  C_21
REMARK   11  A    between atoms: C_22  and  C_23
REMARK   12  A    between atoms: C_23  and  C_24
REMARK   13  A    between atoms: C_24  and  C_26
REMARK   14  A    between atoms: C_24  and  C_27
REMARK   15  A    between atoms: C_24  and  C_28
REMARK   16  A    between atoms: C_25  and  C_29
REMARK                            x       y       z     vdW  Elec       q    Type
REMARK                         _______ _______ _______ _____ _____    ______ ____
ROOT
ATOM      7  C   UNL     1      13.643   5.244   0.733  0.00  0.00    -0.027 C 
ATOM      8  C   UNL     1      12.096   5.092   0.921  0.00  0.00    +0.028 C 
ATOM      9  C   UNL     1      11.722   5.031   2.445  0.00  0.00    +0.012 C 
ATOM     10  C   UNL     1      11.532   3.936   0.047  0.00  0.00    +0.122 C 
ATOM     11  C   UNL     1      13.965   5.415  -0.771  0.00  0.00    +0.007 C 
ATOM     12  C   UNL     1      14.117   6.520   1.465  0.00  0.00    +0.009 C 
ATOM     13  C   UNL     1      11.946   4.057  -1.439  0.00  0.00    +0.029 C 
ATOM     14  C   UNL     1      12.269   6.283   3.185  0.00  0.00    +0.076 C 
ATOM     15  C   UNL     1      13.449   4.264  -1.624  0.00  0.00    +0.007 C 
ATOM     16  C   UNL     1      13.758   6.529   2.944  0.00  0.00    +0.023 C 
ATOM     17  C   UNL     1      14.428   4.023   1.274  0.00  0.00    +0.011 C 
ATOM     19  C   UNL     1      10.210   4.912   2.704  0.00  0.00    +0.010 C 
ENDROOT
BRANCH  14   5
ATOM      3  O   UNL     1      10.886   8.204   4.855  0.00  0.00    -0.276 OA
ATOM      5  N   UNL     1      12.043   6.203   4.613  0.00  0.00    -0.312 N 
ATOM     22  C   UNL     1      11.367   7.177   5.327  0.00  0.00    +0.214 C 
ATOM     36  H   UNL     1      12.435   5.407   5.108  0.00  0.00    +0.149 HD
BRANCH  22  23
ATOM     23  C   UNL     1      11.271   6.862   6.812  0.00  0.00    +0.102 C 
BRANCH  23  24
ATOM     24  C   UNL     1       9.863   6.440   7.293  0.00  0.00    -0.029 C 
ATOM     26  C   UNL     1       9.954   5.446   8.464  0.00  0.00    +0.011 C 
ATOM     27  C   UNL     1       9.129   7.703   7.783  0.00  0.00    +0.011 C 
ATOM     28  C   UNL     1       9.043   5.811   6.155  0.00  0.00    +0.011 C 
ENDBRANCH  23  24
ENDBRANCH  22  23
ENDBRANCH  14   5
BRANCH  10   1
ATOM      1  O   UNL     1      10.104   3.968   0.077  0.00  0.00    -0.391 OA
ATOM     37  H   UNL     1       9.785   3.067   0.260  0.00  0.00    +0.210 HD
ENDBRANCH  10   1
BRANCH  13  18
ATOM     18  C   UNL     1      11.492   2.842  -2.257  0.00  0.00    +0.077 C 
ATOM     20  C   UNL     1      12.570   2.453  -3.263  0.00  0.00    +0.017 C 
BRANCH  18  21
ATOM      2  O   UNL     1       9.456   2.271  -3.439  0.00  0.00    -0.276 OA
ATOM      6  N   UNL     1       9.874   4.503  -2.964  0.00  0.00    -0.311 N 
ATOM     21  C   UNL     1      10.167   3.147  -2.950  0.00  0.00    +0.216 C 
ATOM     38  H   UNL     1      10.489   5.159  -2.492  0.00  0.00    +0.149 HD
BRANCH   6  25
ATOM     25  C   UNL     1       8.675   5.038  -3.567  0.00  0.00    +0.139 C 
BRANCH  25  29
ATOM     29  C   UNL     1       8.229   6.307  -2.901  0.00  0.00    -0.030 A 
ATOM     30  C   UNL     1       9.083   6.967  -2.016  0.00  0.00    +0.009 A 
ATOM     31  C   UNL     1       6.962   6.826  -3.165  0.00  0.00    +0.009 A 
ATOM     32  C   UNL     1       8.668   8.146  -1.397  0.00  0.00    +0.046 A 
ATOM     33  C   UNL     1       6.547   8.004  -2.545  0.00  0.00    +0.046 A 
ATOM     34  C   UNL     1       7.400   8.665  -1.661  0.00  0.00    +0.120 A 
BRANCH  34   4
ATOM      4  O   UNL     1       6.996   9.815  -1.057  0.00  0.00    -0.495 OA
ATOM     35  C   UNL     1       6.478   9.705   0.267  0.00  0.00    +0.277 C 
ENDBRANCH  34   4
ENDBRANCH  25  29
ENDBRANCH   6  25
ENDBRANCH  18  21
ENDBRANCH  13  18
TORSDOF 9
ENDMDL
MODEL 6
REMARK VINA RESULT:      -6.7      2.684      3.530
REMARK  Name = 45361421
REMARK  16 active torsions:
REMARK  status: ('A' for Active; 'I' for Inactive)
REMARK    1  A    between atoms: O_1  and  C_10
REMARK    2  A    between atoms: O_4  and  C_34
REMARK    3  A    between atoms: O_4  and  C_35
REMARK    4  A    between atoms: N_5  and  C_14
REMARK    5  A    between atoms: N_6  and  C_25
REMARK    6  A    between atoms: C_7  and  C_17
REMARK    7  A    between atoms: C_9  and  C_19
REMARK    8  A    between atoms: C_13  and  C_18
REMARK    9  A    between atoms: C_18  and  C_20
REMARK   10  A    between atoms: C_18  and  C_21
REMARK   11  A    between atoms: C_22  and  C_23
REMARK   12  A    between atoms: C_23  and  C_24
REMARK   13  A    between atoms: C_24  and  C_26
REMARK   14  A    between atoms: C_24  and  C_27
REMARK   15  A    between atoms: C_24  and  C_28
REMARK   16  A    between atoms: C_25  and  C_29
REMARK                            x       y       z     vdW  Elec       q    Type
REMARK                         _______ _______ _______ _____ _____    ______ ____
ROOT
ATOM      7  C   UNL     1      -5.379 -11.159  17.717  0.00  0.00    -0.027 C 
ATOM      8  C   UNL     1      -5.564 -12.390  16.767  0.00  0.00    +0.028 C 
ATOM      9  C   UNL     1      -6.272 -13.573  17.519  0.00  0.00    +0.012 C 
ATOM     10  C   UNL     1      -4.233 -12.754  16.050  0.00  0.00    +0.122 C 
ATOM     11  C   UNL     1      -4.784  -9.976  16.916  0.00  0.00    +0.007 C 
ATOM     12  C   UNL     1      -6.762 -10.720  18.249  0.00  0.00    +0.009 C 
ATOM     13  C   UNL     1      -3.588 -11.541  15.338  0.00  0.00    +0.029 C 
ATOM     14  C   UNL     1      -7.627 -13.100  18.114  0.00  0.00    +0.076 C 
ATOM     15  C   UNL     1      -3.460 -10.318  16.245  0.00  0.00    +0.007 C 
ATOM     16  C   UNL     1      -7.509 -11.836  18.966  0.00  0.00    +0.023 C 
ATOM     17  C   UNL     1      -4.446 -11.468  18.914  0.00  0.00    +0.011 C 
ATOM     19  C   UNL     1      -6.513 -14.809  16.634  0.00  0.00    +0.010 C 
ENDROOT
BRANCH  14   5
ATOM      3  O   UNL     1     -10.422 -13.862  18.125  0.00  0.00    -0.276 OA
ATOM      5  N   UNL     1      -8.253 -14.133  18.912  0.00  0.00    -0.312 N 
ATOM     22  C   UNL     1      -9.603 -14.425  18.847  0.00  0.00    +0.214 C 
ATOM     36  H   UNL     1      -7.668 -14.636  19.573  0.00  0.00    +0.149 HD
BRANCH  22  23
ATOM     23  C   UNL     1     -10.013 -15.544  19.791  0.00  0.00    +0.102 C 
BRANCH  23  24
ATOM     24  C   UNL     1     -10.363 -15.084  21.226  0.00  0.00    -0.029 C 
ATOM     26  C   UNL     1     -11.475 -15.959  21.831  0.00  0.00    +0.011 C 
ATOM     27  C   UNL     1      -9.099 -15.232  22.096  0.00  0.00    +0.011 C 
ATOM     28  C   UNL     1     -10.804 -13.612  21.255  0.00  0.00    +0.011 C 
ENDBRANCH  23  24
ENDBRANCH  22  23
ENDBRANCH  14   5
BRANCH  10   1
ATOM      1  O   UNL     1      -4.487 -13.732  15.040  0.00  0.00    -0.391 OA
ATOM     37  H   UNL     1      -5.442 -13.918  15.033  0.00  0.00    +0.210 HD
ENDBRANCH  10   1
BRANCH  13  18
ATOM     18  C   UNL     1      -2.216 -11.889  14.751  0.00  0.00    +0.077 C 
ATOM     20  C   UNL     1      -1.143 -10.988  15.352  0.00  0.00    +0.017 C 
BRANCH  18  21
ATOM      2  O   UNL     1      -2.332 -12.748  12.489  0.00  0.00    -0.276 OA
ATOM      6  N   UNL     1      -2.193 -10.453  12.798  0.00  0.00    -0.311 N 
ATOM     21  C   UNL     1      -2.256 -11.769  13.230  0.00  0.00    +0.216 C 
ATOM     38  H   UNL     1      -2.185  -9.698  13.476  0.00  0.00    +0.149 HD
BRANCH   6  25
ATOM     25  C   UNL     1      -2.212 -10.086  11.401  0.00  0.00    +0.139 C 
BRANCH  25  29
ATOM     29  C   UNL     1      -3.580  -9.662  10.950  0.00  0.00    -0.030 A 
ATOM     30  C   UNL     1      -4.651  -9.700  11.843  0.00  0.00    +0.009 A 
ATOM     31  C   UNL     1      -3.780  -9.230   9.639  0.00  0.00    +0.009 A 
ATOM     32  C   UNL     1      -5.922  -9.307  11.424  0.00  0.00    +0.046 A 
ATOM     33  C   UNL     1      -5.051  -8.837   9.220  0.00  0.00    +0.046 A 
ATOM     34  C   UNL     1      -6.122  -8.875  10.112  0.00  0.00    +0.120 A 
BRANCH  34   4
ATOM      4  O   UNL     1      -7.362  -8.490   9.704  0.00  0.00    -0.495 OA
ATOM     35  C   UNL     1      -7.461  -7.880   8.418  0.00  0.00    +0.277 C 
ENDBRANCH  34   4
ENDBRANCH  25  29
ENDBRANCH   6  25
ENDBRANCH  18  21
ENDBRANCH  13  18
TORSDOF 9
ENDMDL
MODEL 7
REMARK VINA RESULT:      -6.6     24.125     27.499
REMARK  Name = 45361421
REMARK  16 active torsions:
REMARK  status: ('A' for Active; 'I' for Inactive)
REMARK    1  A    between atoms: O_1  and  C_10
REMARK    2  A    between atoms: O_4  and  C_34
REMARK    3  A    between atoms: O_4  and  C_35
REMARK    4  A    between atoms: N_5  and  C_14
REMARK    5  A    between atoms: N_6  and  C_25
REMARK    6  A    between atoms: C_7  and  C_17
REMARK    7  A    between atoms: C_9  and  C_19
REMARK    8  A    between atoms: C_13  and  C_18
REMARK    9  A    between atoms: C_18  and  C_20
REMARK   10  A    between atoms: C_18  and  C_21
REMARK   11  A    between atoms: C_22  and  C_23
REMARK   12  A    between atoms: C_23  and  C_24
REMARK   13  A    between atoms: C_24  and  C_26
REMARK   14  A    between atoms: C_24  and  C_27
REMARK   15  A    between atoms: C_24  and  C_28
REMARK   16  A    between atoms: C_25  and  C_29
REMARK                            x       y       z     vdW  Elec       q    Type
REMARK                         _______ _______ _______ _____ _____    ______ ____
ROOT
ATOM      7  C   UNL     1       9.760   6.584   6.559  0.00  0.00    -0.027 C 
ATOM      8  C   UNL     1      10.270   7.535   5.425  0.00  0.00    +0.028 C 
ATOM      9  C   UNL     1      11.355   6.820   4.543  0.00  0.00    +0.012 C 
ATOM     10  C   UNL     1      10.681   8.923   5.996  0.00  0.00    +0.122 C 
ATOM     11  C   UNL     1       8.615   7.277   7.336  0.00  0.00    +0.007 C 
ATOM     12  C   UNL     1       9.185   5.300   5.919  0.00  0.00    +0.009 C 
ATOM     13  C   UNL     1       9.570   9.564   6.860  0.00  0.00    +0.029 C 
ATOM     14  C   UNL     1      10.790   5.492   3.965  0.00  0.00    +0.076 C 
ATOM     15  C   UNL     1       9.027   8.618   7.930  0.00  0.00    +0.007 C 
ATOM     16  C   UNL     1      10.185   4.575   5.029  0.00  0.00    +0.023 C 
ATOM     17  C   UNL     1      10.878   6.198   7.559  0.00  0.00    +0.011 C 
ATOM     19  C   UNL     1      11.881   7.689   3.388  0.00  0.00    +0.010 C 
ENDROOT
BRANCH  14   5
ATOM      3  O   UNL     1      10.422   3.889   1.581  0.00  0.00    -0.276 OA
ATOM      5  N   UNL     1      11.800   4.749   3.242  0.00  0.00    -0.312 N 
ATOM     22  C   UNL     1      11.526   4.008   2.107  0.00  0.00    +0.214 C 
ATOM     36  H   UNL     1      12.745   4.751   3.616  0.00  0.00    +0.149 HD
BRANCH  22  23
ATOM     23  C   UNL     1      12.755   3.315   1.540  0.00  0.00    +0.102 C 
BRANCH  23  24
ATOM     24  C   UNL     1      13.294   3.927   0.226  0.00  0.00    -0.029 C 
ATOM     26  C   UNL     1      12.765   3.162  -0.999  0.00  0.00    +0.011 C 
ATOM     27  C   UNL     1      12.799   5.385   0.141  0.00  0.00    +0.011 C 
ATOM     28  C   UNL     1      14.831   3.934   0.195  0.00  0.00    +0.011 C 
ENDBRANCH  23  24
ENDBRANCH  22  23
ENDBRANCH  14   5
BRANCH  10   1
ATOM      1  O   UNL     1      10.933   9.826   4.918  0.00  0.00    -0.391 OA
ATOM     37  H   UNL     1      11.893   9.852   4.763  0.00  0.00    +0.210 HD
ENDBRANCH  10   1
BRANCH  13  18
ATOM     18  C   UNL     1      10.041  10.866   7.518  0.00  0.00    +0.077 C 
ATOM     20  C   UNL     1      10.000  10.731   9.036  0.00  0.00    +0.017 C 
BRANCH  18  21
ATOM      2  O   UNL     1       8.813  12.149   5.871  0.00  0.00    -0.276 OA
ATOM      6  N   UNL     1       8.876  12.922   8.057  0.00  0.00    -0.311 N 
ATOM     21  C   UNL     1       9.181  12.032   7.038  0.00  0.00    +0.216 C 
ATOM     38  H   UNL     1       9.175  12.725   9.007  0.00  0.00    +0.149 HD
BRANCH   6  25
ATOM     25  C   UNL     1       8.077  14.107   7.847  0.00  0.00    +0.139 C 
BRANCH  25  29
ATOM     29  C   UNL     1       6.676  13.937   8.362  0.00  0.00    -0.030 A 
ATOM     30  C   UNL     1       6.455  13.723   9.722  0.00  0.00    +0.009 A 
ATOM     31  C   UNL     1       5.598  13.993   7.479  0.00  0.00    +0.009 A 
ATOM     32  C   UNL     1       5.153  13.565  10.200  0.00  0.00    +0.046 A 
ATOM     33  C   UNL     1       4.297  13.834   7.957  0.00  0.00    +0.046 A 
ATOM     34  C   UNL     1       4.074  13.621   9.317  0.00  0.00    +0.120 A 
BRANCH  34   4
ATOM      4  O   UNL     1       2.805  13.467   9.783  0.00  0.00    -0.495 OA
ATOM     35  C   UNL     1       2.566  13.826  11.143  0.00  0.00    +0.277 C 
ENDBRANCH  34   4
ENDBRANCH  25  29
ENDBRANCH   6  25
ENDBRANCH  18  21
ENDBRANCH  13  18
TORSDOF 9
ENDMDL
MODEL 8
REMARK VINA RESULT:      -6.5      4.248      7.804
REMARK  Name = 45361421
REMARK  16 active torsions:
REMARK  status: ('A' for Active; 'I' for Inactive)
REMARK    1  A    between atoms: O_1  and  C_10
REMARK    2  A    between atoms: O_4  and  C_34
REMARK    3  A    between atoms: O_4  and  C_35
REMARK    4  A    between atoms: N_5  and  C_14
REMARK    5  A    between atoms: N_6  and  C_25
REMARK    6  A    between atoms: C_7  and  C_17
REMARK    7  A    between atoms: C_9  and  C_19
REMARK    8  A    between atoms: C_13  and  C_18
REMARK    9  A    between atoms: C_18  and  C_20
REMARK   10  A    between atoms: C_18  and  C_21
REMARK   11  A    between atoms: C_22  and  C_23
REMARK   12  A    between atoms: C_23  and  C_24
REMARK   13  A    between atoms: C_24  and  C_26
REMARK   14  A    between atoms: C_24  and  C_27
REMARK   15  A    between atoms: C_24  and  C_28
REMARK   16  A    between atoms: C_25  and  C_29
REMARK                            x       y       z     vdW  Elec       q    Type
REMARK                         _______ _______ _______ _____ _____    ______ ____
ROOT
ATOM      7  C   UNL     1     -11.337 -10.161  14.830  0.00  0.00    -0.027 C 
ATOM      8  C   UNL     1     -10.369  -9.061  15.380  0.00  0.00    +0.028 C 
ATOM      9  C   UNL     1      -9.403  -9.660  16.464  0.00  0.00    +0.012 C 
ATOM     10  C   UNL     1     -11.149  -7.786  15.811  0.00  0.00    +0.122 C 
ATOM     11  C   UNL     1     -12.195  -9.566  13.687  0.00  0.00    +0.007 C 
ATOM     12  C   UNL     1     -10.502 -11.319  14.238  0.00  0.00    +0.009 C 
ATOM     13  C   UNL     1     -12.085  -7.257  14.698  0.00  0.00    +0.029 C 
ATOM     14  C   UNL     1      -8.622 -10.871  15.880  0.00  0.00    +0.076 C 
ATOM     15  C   UNL     1     -12.991  -8.341  14.117  0.00  0.00    +0.007 C 
ATOM     16  C   UNL     1      -9.526 -11.923  15.238  0.00  0.00    +0.023 C 
ATOM     17  C   UNL     1     -12.283 -10.719  15.922  0.00  0.00    +0.011 C 
ATOM     19  C   UNL     1      -8.400  -8.638  17.028  0.00  0.00    +0.010 C 
ENDROOT
BRANCH  14   5
ATOM      3  O   UNL     1      -6.071 -12.188  15.496  0.00  0.00    -0.276 OA
ATOM      5  N   UNL     1      -7.808 -11.519  16.887  0.00  0.00    -0.312 N 
ATOM     22  C   UNL     1      -6.597 -12.125  16.604  0.00  0.00    +0.214 C 
ATOM     36  H   UNL     1      -8.172 -11.556  17.835  0.00  0.00    +0.149 HD
BRANCH  22  23
ATOM     23  C   UNL     1      -5.943 -12.741  17.831  0.00  0.00    +0.102 C 
BRANCH  23  24
ATOM     24  C   UNL     1      -5.170 -11.740  18.723  0.00  0.00    -0.029 C 
ATOM     26  C   UNL     1      -4.794 -10.473  17.935  0.00  0.00    +0.011 C 
ATOM     27  C   UNL     1      -6.090 -11.333  19.890  0.00  0.00    +0.011 C 
ATOM     28  C   UNL     1      -3.895 -12.372  19.305  0.00  0.00    +0.011 C 
ENDBRANCH  23  24
ENDBRANCH  22  23
ENDBRANCH  14   5
BRANCH  10   1
ATOM      1  O   UNL     1     -10.224  -6.736  16.100  0.00  0.00    -0.391 OA
ATOM     37  H   UNL     1      -9.477  -6.812  15.482  0.00  0.00    +0.210 HD
ENDBRANCH  10   1
BRANCH  13  18
ATOM     18  C   UNL     1     -12.939  -6.081  15.185  0.00  0.00    +0.077 C 
ATOM     20  C   UNL     1     -14.137  -6.595  15.978  0.00  0.00    +0.017 C 
BRANCH  18  21
ATOM      2  O   UNL     1     -14.551  -5.169  13.624  0.00  0.00    -0.276 OA
ATOM      6  N   UNL     1     -12.324  -4.558  13.403  0.00  0.00    -0.311 N 
ATOM     21  C   UNL     1     -13.381  -5.231  13.998  0.00  0.00    +0.216 C 
ATOM     38  H   UNL     1     -11.394  -4.622  13.804  0.00  0.00    +0.149 HD
BRANCH   6  25
ATOM     25  C   UNL     1     -12.493  -3.693  12.258  0.00  0.00    +0.139 C 
BRANCH  25  29
ATOM     29  C   UNL     1     -11.910  -4.292  11.011  0.00  0.00    -0.030 A 
ATOM     30  C   UNL     1     -11.327  -3.468  10.048  0.00  0.00    +0.009 A 
ATOM     31  C   UNL     1     -11.955  -5.672  10.815  0.00  0.00    +0.009 A 
ATOM     32  C   UNL     1     -10.786  -4.026   8.889  0.00  0.00    +0.046 A 
ATOM     33  C   UNL     1     -11.415  -6.229   9.655  0.00  0.00    +0.046 A 
ATOM     34  C   UNL     1     -10.830  -5.406   8.693  0.00  0.00    +0.120 A 
BRANCH  34   4
ATOM      4  O   UNL     1     -10.302  -5.950   7.562  0.00  0.00    -0.495 OA
ATOM     35  C   UNL     1     -11.125  -6.861   6.836  0.00  0.00    +0.277 C 
ENDBRANCH  34   4
ENDBRANCH  25  29
ENDBRANCH   6  25
ENDBRANCH  18  21
ENDBRANCH  13  18
TORSDOF 9
ENDMDL
MODEL 9
REMARK VINA RESULT:      -6.5     24.371     28.710
REMARK  Name = 45361421
REMARK  16 active torsions:
REMARK  status: ('A' for Active; 'I' for Inactive)
REMARK    1  A    between atoms: O_1  and  C_10
REMARK    2  A    between atoms: O_4  and  C_34
REMARK    3  A    between atoms: O_4  and  C_35
REMARK    4  A    between atoms: N_5  and  C_14
REMARK    5  A    between atoms: N_6  and  C_25
REMARK    6  A    between atoms: C_7  and  C_17
REMARK    7  A    between atoms: C_9  and  C_19
REMARK    8  A    between atoms: C_13  and  C_18
REMARK    9  A    between atoms: C_18  and  C_20
REMARK   10  A    between atoms: C_18  and  C_21
REMARK   11  A    between atoms: C_22  and  C_23
REMARK   12  A    between atoms: C_23  and  C_24
REMARK   13  A    between atoms: C_24  and  C_26
REMARK   14  A    between atoms: C_24  and  C_27
REMARK   15  A    between atoms: C_24  and  C_28
REMARK   16  A    between atoms: C_25  and  C_29
REMARK                            x       y       z     vdW  Elec       q    Type
REMARK                         _______ _______ _______ _____ _____    ______ ____
ROOT
ATOM      7  C   UNL     1       9.568   6.596   6.625  0.00  0.00    -0.027 C 
ATOM      8  C   UNL     1      10.588   7.480   5.832  0.00  0.00    +0.028 C 
ATOM      9  C   UNL     1      11.580   6.584   5.008  0.00  0.00    +0.012 C 
ATOM     10  C   UNL     1      11.254   8.540   6.756  0.00  0.00    +0.122 C 
ATOM     11  C   UNL     1       8.537   7.508   7.333  0.00  0.00    +0.007 C 
ATOM     12  C   UNL     1       8.797   5.699   5.629  0.00  0.00    +0.009 C 
ATOM     13  C   UNL     1      10.218   9.379   7.542  0.00  0.00    +0.029 C 
ATOM     14  C   UNL     1      10.792   5.634   4.064  0.00  0.00    +0.076 C 
ATOM     15  C   UNL     1       9.184   8.520   8.269  0.00  0.00    +0.007 C 
ATOM     16  C   UNL     1       9.710   4.825   4.781  0.00  0.00    +0.023 C 
ATOM     17  C   UNL     1      10.256   5.704   7.688  0.00  0.00    +0.011 C 
ATOM     19  C   UNL     1      12.595   7.391   4.180  0.00  0.00    +0.010 C 
ENDROOT
BRANCH  14   5
ATOM      3  O   UNL     1      10.460   4.554   1.397  0.00  0.00    -0.276 OA
ATOM      5  N   UNL     1      11.671   4.713   3.374  0.00  0.00    -0.312 N 
ATOM     22  C   UNL     1      11.426   4.251   2.094  0.00  0.00    +0.214 C 
ATOM     36  H   UNL     1      12.483   4.370   3.878  0.00  0.00    +0.149 HD
BRANCH  22  23
ATOM     23  C   UNL     1      12.493   3.288   1.598  0.00  0.00    +0.102 C 
BRANCH  23  24
ATOM     24  C   UNL     1      13.718   3.964   0.938  0.00  0.00    -0.029 C 
ATOM     26  C   UNL     1      15.028   3.496   1.593  0.00  0.00    +0.011 C 
ATOM     27  C   UNL     1      13.744   3.557  -0.549  0.00  0.00    +0.011 C 
ATOM     28  C   UNL     1      13.629   5.497   1.020  0.00  0.00    +0.011 C 
ENDBRANCH  23  24
ENDBRANCH  22  23
ENDBRANCH  14   5
BRANCH  10   1
ATOM      1  O   UNL     1      12.007   9.458   5.964  0.00  0.00    -0.391 OA
ATOM     37  H   UNL     1      12.158  10.261   6.492  0.00  0.00    +0.210 HD
ENDBRANCH  10   1
BRANCH  13  18
ATOM     18  C   UNL     1      10.893  10.325   8.542  0.00  0.00    +0.077 C 
ATOM     20  C   UNL     1       9.842  11.002   9.415  0.00  0.00    +0.017 C 
BRANCH  18  21
ATOM      2  O   UNL     1      11.264  12.157   7.001  0.00  0.00    -0.276 OA
ATOM      6  N   UNL     1      13.089  11.257   8.116  0.00  0.00    -0.311 N 
ATOM     21  C   UNL     1      11.742  11.349   7.796  0.00  0.00    +0.216 C 
ATOM     38  H   UNL     1      13.397  10.598   8.823  0.00  0.00    +0.149 HD
BRANCH   6  25
ATOM     25  C   UNL     1      14.091  12.121   7.535  0.00  0.00    +0.139 C 
BRANCH  25  29
ATOM     29  C   UNL     1      15.265  11.345   7.011  0.00  0.00    -0.030 A 
ATOM     30  C   UNL     1      16.557  11.851   7.158  0.00  0.00    +0.009 A 
ATOM     31  C   UNL     1      15.064  10.120   6.376  0.00  0.00    +0.009 A 
ATOM     32  C   UNL     1      17.647  11.130   6.671  0.00  0.00    +0.046 A 
ATOM     33  C   UNL     1      16.154   9.400   5.889  0.00  0.00    +0.046 A 
ATOM     34  C   UNL     1      17.446   9.904   6.036  0.00  0.00    +0.120 A 
BRANCH  34   4
ATOM      4  O   UNL     1      18.509   9.201   5.561  0.00  0.00    -0.495 OA
ATOM     35  C   UNL     1      18.265   8.309   4.474  0.00  0.00    +0.277 C 
ENDBRANCH  34   4
ENDBRANCH  25  29
ENDBRANCH   6  25
ENDBRANCH  18  21
ENDBRANCH  13  18
TORSDOF 9
ENDMDL
MODEL 10
REMARK VINA RESULT:      -6.3     24.458     28.708
REMARK  Name = 45361421
REMARK  16 active torsions:
REMARK  status: ('A' for Active; 'I' for Inactive)
REMARK    1  A    between atoms: O_1  and  C_10
REMARK    2  A    between atoms: O_4  and  C_34
REMARK    3  A    between atoms: O_4  and  C_35
REMARK    4  A    between atoms: N_5  and  C_14
REMARK    5  A    between atoms: N_6  and  C_25
REMARK    6  A    between atoms: C_7  and  C_17
REMARK    7  A    between atoms: C_9  and  C_19
REMARK    8  A    between atoms: C_13  and  C_18
REMARK    9  A    between atoms: C_18  and  C_20
REMARK   10  A    between atoms: C_18  and  C_21
REMARK   11  A    between atoms: C_22  and  C_23
REMARK   12  A    between atoms: C_23  and  C_24
REMARK   13  A    between atoms: C_24  and  C_26
REMARK   14  A    between atoms: C_24  and  C_27
REMARK   15  A    between atoms: C_24  and  C_28
REMARK   16  A    between atoms: C_25  and  C_29
REMARK                            x       y       z     vdW  Elec       q    Type
REMARK                         _______ _______ _______ _____ _____    ______ ____
ROOT
ATOM      7  C   UNL     1      11.389   9.607   6.896  0.00  0.00    -0.027 C 
ATOM      8  C   UNL     1      12.294   8.354   7.140  0.00  0.00    +0.028 C 
ATOM      9  C   UNL     1      13.597   8.427   6.266  0.00  0.00    +0.012 C 
ATOM     10  C   UNL     1      11.478   7.035   7.014  0.00  0.00    +0.122 C 
ATOM     11  C   UNL     1      10.173   9.559   7.853  0.00  0.00    +0.007 C 
ATOM     12  C   UNL     1      12.196  10.884   7.223  0.00  0.00    +0.009 C 
ATOM     13  C   UNL     1      10.206   7.036   7.895  0.00  0.00    +0.029 C 
ATOM     14  C   UNL     1      14.362   9.750   6.549  0.00  0.00    +0.076 C 
ATOM     15  C   UNL     1       9.350   8.287   7.704  0.00  0.00    +0.007 C 
ATOM     16  C   UNL     1      13.486  10.997   6.424  0.00  0.00    +0.023 C 
ATOM     17  C   UNL     1      10.871   9.691   5.438  0.00  0.00    +0.011 C 
ATOM     19  C   UNL     1      14.549   7.238   6.478  0.00  0.00    +0.010 C 
ENDROOT
BRANCH  14   5
ATOM      3  O   UNL     1      16.826  11.162   7.117  0.00  0.00    -0.276 OA
ATOM      5  N   UNL     1      15.507   9.905   5.676  0.00  0.00    -0.312 N 
ATOM     22  C   UNL     1      16.645  10.602   6.039  0.00  0.00    +0.214 C 
ATOM     36  H   UNL     1      15.444   9.509   4.743  0.00  0.00    +0.149 HD
BRANCH  22  23
ATOM     23  C   UNL     1      17.699  10.626   4.943  0.00  0.00    +0.102 C 
BRANCH  23  24
ATOM     24  C   UNL     1      18.618   9.382   4.903  0.00  0.00    -0.029 C 
ATOM     26  C   UNL     1      18.081   8.329   3.920  0.00  0.00    +0.011 C 
ATOM     27  C   UNL     1      20.010   9.834   4.420  0.00  0.00    +0.011 C 
ATOM     28  C   UNL     1      18.769   8.747   6.295  0.00  0.00    +0.011 C 
ENDBRANCH  23  24
ENDBRANCH  22  23
ENDBRANCH  14   5
BRANCH  10   1
ATOM      1  O   UNL     1      12.277   5.936   7.452  0.00  0.00    -0.391 OA
ATOM     37  H   UNL     1      11.806   5.489   8.177  0.00  0.00    +0.210 HD
ENDBRANCH  10   1
BRANCH  13  18
ATOM     18  C   UNL     1       9.349   5.787   7.659  0.00  0.00    +0.077 C 
ATOM     20  C   UNL     1       9.988   4.578   8.333  0.00  0.00    +0.017 C 
BRANCH  18  21
ATOM      2  O   UNL     1       8.257   6.079   5.517  0.00  0.00    -0.276 OA
ATOM      6  N   UNL     1      10.124   4.707   5.632  0.00  0.00    -0.311 N 
ATOM     21  C   UNL     1       9.165   5.558   6.162  0.00  0.00    +0.216 C 
ATOM     38  H   UNL     1      10.874   4.360   6.222  0.00  0.00    +0.149 HD
BRANCH   6  25
ATOM     25  C   UNL     1      10.155   4.337   4.236  0.00  0.00    +0.139 C 
BRANCH  25  29
ATOM     29  C   UNL     1      11.198   5.104   3.475  0.00  0.00    -0.030 A 
ATOM     30  C   UNL     1      11.901   4.486   2.440  0.00  0.00    +0.009 A 
ATOM     31  C   UNL     1      11.466   6.433   3.805  0.00  0.00    +0.009 A 
ATOM     32  C   UNL     1      12.871   5.199   1.735  0.00  0.00    +0.046 A 
ATOM     33  C   UNL     1      12.436   7.144   3.099  0.00  0.00    +0.046 A 
ATOM     34  C   UNL     1      13.138   6.528   2.064  0.00  0.00    +0.120 A 
BRANCH  34   4
ATOM      4  O   UNL     1      14.083   7.223   1.374  0.00  0.00    -0.495 OA
ATOM     35  C   UNL     1      15.434   6.779   1.498  0.00  0.00    +0.277 C 
ENDBRANCH  34   4
ENDBRANCH  25  29
ENDBRANCH   6  25
ENDBRANCH  18  21
ENDBRANCH  13  18
TORSDOF 9
ENDMDL
