REMARK  Name = 11887646
REMARK  7 active torsions:
REMARK  status: ('A' for Active; 'I' for Inactive)
REMARK    1  A    between atoms: S_1  and  N_8
REMARK    2  A    between atoms: S_1  and  C_17
REMARK    3  A    between atoms: O_6  and  C_25
REMARK    4  A    between atoms: O_6  and  C_29
REMARK    5  A    between atoms: O_7  and  C_28
REMARK    6  A    between atoms: O_7  and  C_30
REMARK    7  A    between atoms: N_10  and  C_18
REMARK                            x       y       z     vdW  Elec       q    Type
REMARK                         _______ _______ _______ _____ _____    ______ ____
ROOT
ATOM      2  O   UNL     1       0.407  -1.101   0.150  0.00  0.00    -0.273 OA
ATOM      5  O   UNL     1       0.489   3.603   0.092  0.00  0.00    -0.252 OA
ATOM      8  N   UNL     1      -2.148  -1.059   0.908  0.00  0.00    -0.163 NA
ATOM      9  N   UNL     1      -1.406   2.499   0.630  0.00  0.00    -0.294 N 
ATOM     10  N   UNL     1       0.552   1.248   0.142  0.00  0.00    -0.193 N 
ATOM     11  C   UNL     1      -2.173   1.314   0.878  0.00  0.00    +0.103 C 
ATOM     12  C   UNL     1      -1.648   0.113   0.122  0.00  0.00    +0.186 C 
ATOM     13  C   UNL     1      -2.165   0.856   2.328  0.00  0.00    +0.041 C 
ATOM     14  C   UNL     1      -2.698  -0.565   2.207  0.00  0.00    +0.112 C 
ATOM     15  C   UNL     1      -0.134   0.008   0.138  0.00  0.00    +0.248 C 
ATOM     16  C   UNL     1      -0.068   2.519   0.292  0.00  0.00    +0.313 C 
ATOM     36  H   UNL     1      -1.872   3.394   0.742  0.00  0.00    +0.151 HD
ENDROOT
BRANCH  10  18
ATOM     18  C   UNL     1       1.992   1.223  -0.028  0.00  0.00    +0.046 A 
ATOM     21  C   UNL     1       2.575   0.208  -0.773  0.00  0.00    +0.027 A 
ATOM     22  C   UNL     1       2.767   2.214   0.560  0.00  0.00    +0.027 A 
ATOM     26  C   UNL     1       3.961   0.184  -0.935  0.00  0.00    +0.048 A 
ATOM     27  C   UNL     1       4.152   2.189   0.399  0.00  0.00    +0.048 A 
ATOM     28  C   UNL     1       4.749   1.174  -0.349  0.00  0.00    +0.129 A 
BRANCH  28   7
ATOM      7  O   UNL     1       6.101   1.151  -0.508  0.00  0.00    -0.456 OA
BRANCH   7  30
ATOM     30  C   UNL     1       6.747  -0.063  -0.347  0.00  0.00    +0.128 A 
ATOM     31  C   UNL     1       6.414  -0.866   0.728  0.00  0.00    +0.046 A 
ATOM     32  C   UNL     1       7.710  -0.440  -1.266  0.00  0.00    +0.046 A 
ATOM     33  C   UNL     1       7.066  -2.089   0.891  0.00  0.00    +0.004 A 
ATOM     34  C   UNL     1       8.362  -1.663  -1.104  0.00  0.00    +0.004 A 
ATOM     35  C   UNL     1       8.040  -2.487  -0.025  0.00  0.00    +0.000 A 
ENDBRANCH   7  30
ENDBRANCH  28   7
ENDBRANCH  10  18
BRANCH   8   1
ATOM      1  S   UNL     1      -3.047  -2.243   0.080  0.00  0.00    +0.062 S 
ATOM      3  O   UNL     1      -3.323  -3.353   0.973  0.00  0.00    -0.153 OA
ATOM      4  O   UNL     1      -2.451  -2.476  -1.222  0.00  0.00    -0.153 OA
BRANCH   1  17
ATOM     17  C   UNL     1      -4.565  -1.374  -0.173  0.00  0.00    +0.106 A 
ATOM     19  C   UNL     1      -4.729  -0.621  -1.323  0.00  0.00    +0.032 A 
ATOM     20  C   UNL     1      -5.562  -1.461   0.783  0.00  0.00    +0.032 A 
ATOM     23  C   UNL     1      -5.926   0.066  -1.524  0.00  0.00    +0.047 A 
ATOM     24  C   UNL     1      -6.760  -0.775   0.583  0.00  0.00    +0.047 A 
ATOM     25  C   UNL     1      -6.942  -0.011  -0.571  0.00  0.00    +0.120 A 
BRANCH  25   6
ATOM      6  O   UNL     1      -8.111   0.658  -0.766  0.00  0.00    -0.495 OA
ATOM     29  C   UNL     1      -8.230   1.419  -1.967  0.00  0.00    +0.277 C 
ENDBRANCH  25   6
ENDBRANCH   1  17
ENDBRANCH   8   1
TORSDOF 6
