MODEL 1
REMARK VINA RESULT:      -6.3      0.000      0.000
REMARK  Name = 45783556
REMARK  9 active torsions:
REMARK  status: ('A' for Active; 'I' for Inactive)
REMARK    1  A    between atoms: O_2  and  C_25
REMARK    2  A    between atoms: O_2  and  C_26
REMARK    3  A    between atoms: O_3  and  C_27
REMARK    4  A    between atoms: O_3  and  C_28
REMARK    5  A    between atoms: N_4  and  C_9
REMARK    6  A    between atoms: N_5  and  C_19
REMARK    7  A    between atoms: C_10  and  C_18
REMARK    8  A    between atoms: C_20  and  C_21
REMARK    9  A    between atoms: C_26  and  C_27
REMARK                            x       y       z     vdW  Elec       q    Type
REMARK                         _______ _______ _______ _____ _____    ______ ____
ROOT
ATOM      1  O   UNL     1      -2.086 -10.392  14.473  0.00  0.00    -0.336 OA
ATOM      6  N   UNL     1      -4.270 -10.889  14.454  0.00  0.00    -0.190 NA
ATOM      7  N   UNL     1      -2.481 -10.463  15.815  0.00  0.00    -0.056 NA
ATOM     18  C   UNL     1      -3.200 -10.655  13.738  0.00  0.00    +0.245 A 
ATOM     20  C   UNL     1      -3.781 -10.760  15.721  0.00  0.00    +0.204 A 
ENDROOT
BRANCH  20  21
ATOM      8  N   UNL     1      -6.749 -10.560  17.952  0.00  0.00    -0.221 NA
ATOM     21  C   UNL     1      -4.617 -10.932  16.873  0.00  0.00    +0.041 A 
ATOM     22  C   UNL     1      -4.157 -11.605  18.000  0.00  0.00    +0.018 A 
ATOM     23  C   UNL     1      -5.910 -10.433  16.900  0.00  0.00    +0.126 A 
ATOM     24  C   UNL     1      -4.990 -11.755  19.102  0.00  0.00    +0.068 A 
ATOM     25  C   UNL     1      -6.266 -11.219  19.028  0.00  0.00    +0.215 A 
BRANCH  25   2
ATOM      2  O   UNL     1      -7.106 -11.354  20.103  0.00  0.00    -0.474 OA
BRANCH   2  26
ATOM     26  C   UNL     1      -7.962 -12.491  20.107  0.00  0.00    +0.258 C 
BRANCH  26  27
ATOM     27  C   UNL     1      -9.368 -12.053  19.744  0.00  0.00    +0.200 C 
BRANCH  27   3
ATOM      3  O   UNL     1      -9.621 -10.778  20.323  0.00  0.00    -0.380 OA
ATOM     28  C   UNL     1     -10.847 -10.230  19.859  0.00  0.00    +0.194 C 
ENDBRANCH  27   3
ENDBRANCH  26  27
ENDBRANCH   2  26
ENDBRANCH  25   2
ENDBRANCH  20  21
BRANCH  18  10
ATOM      4  N   UNL     1      -3.870  -9.613  11.581  0.00  0.00    -0.288 NA
ATOM     10  C   UNL     1      -3.034 -10.640  12.234  0.00  0.00    +0.146 C 
ATOM     11  C   UNL     1      -3.160  -9.211  10.367  0.00  0.00    +0.085 C 
ATOM     14  C   UNL     1      -1.595 -10.307  11.797  0.00  0.00    +0.030 C 
ATOM     15  C   UNL     1      -1.730  -9.119  10.855  0.00  0.00    +0.017 C 
BRANCH   4   9
ATOM      5  N   UNL     1      -7.851  -9.586  10.093  0.00  0.00    -0.305 NA
ATOM      9  C   UNL     1      -5.229 -10.070  11.298  0.00  0.00    +0.060 C 
ATOM     12  C   UNL     1      -5.459 -10.143   9.787  0.00  0.00    +0.034 C 
ATOM     13  C   UNL     1      -6.264  -9.142  11.940  0.00  0.00    +0.034 C 
ATOM     16  C   UNL     1      -6.908 -10.525   9.471  0.00  0.00    +0.085 C 
ATOM     17  C   UNL     1      -7.687  -9.556  11.554  0.00  0.00    +0.085 C 
ATOM     19  C   UNL     1      -9.228  -9.935   9.742  0.00  0.00    +0.104 C 
ENDBRANCH   4   9
ENDBRANCH  18  10
TORSDOF 7
ENDMDL
MODEL 2
REMARK VINA RESULT:      -6.3     26.721     29.627
REMARK  Name = 45783556
REMARK  9 active torsions:
REMARK  status: ('A' for Active; 'I' for Inactive)
REMARK    1  A    between atoms: O_2  and  C_25
REMARK    2  A    between atoms: O_2  and  C_26
REMARK    3  A    between atoms: O_3  and  C_27
REMARK    4  A    between atoms: O_3  and  C_28
REMARK    5  A    between atoms: N_4  and  C_9
REMARK    6  A    between atoms: N_5  and  C_19
REMARK    7  A    between atoms: C_10  and  C_18
REMARK    8  A    between atoms: C_20  and  C_21
REMARK    9  A    between atoms: C_26  and  C_27
REMARK                            x       y       z     vdW  Elec       q    Type
REMARK                         _______ _______ _______ _____ _____    ______ ____
ROOT
ATOM      1  O   UNL     1      14.439   6.601  19.715  0.00  0.00    -0.336 OA
ATOM      6  N   UNL     1      15.664   8.060  20.892  0.00  0.00    -0.190 NA
ATOM      7  N   UNL     1      15.742   6.086  19.739  0.00  0.00    -0.056 NA
ATOM     18  C   UNL     1      14.482   7.764  20.417  0.00  0.00    +0.245 A 
ATOM     20  C   UNL     1      16.404   7.002  20.452  0.00  0.00    +0.204 A 
ENDROOT
BRANCH  20  21
ATOM      8  N   UNL     1      19.749   7.738  21.900  0.00  0.00    -0.221 NA
ATOM     21  C   UNL     1      17.805   6.891  20.739  0.00  0.00    +0.041 A 
ATOM     22  C   UNL     1      18.575   5.882  20.171  0.00  0.00    +0.018 A 
ATOM     23  C   UNL     1      18.435   7.786  21.589  0.00  0.00    +0.126 A 
ATOM     24  C   UNL     1      19.931   5.800  20.467  0.00  0.00    +0.068 A 
ATOM     25  C   UNL     1      20.465   6.744  21.329  0.00  0.00    +0.215 A 
BRANCH  25   2
ATOM      2  O   UNL     1      21.800   6.684  21.635  0.00  0.00    -0.474 OA
BRANCH   2  26
ATOM     26  C   UNL     1      22.148   6.046  22.858  0.00  0.00    +0.258 C 
BRANCH  26  27
ATOM     27  C   UNL     1      23.067   4.877  22.562  0.00  0.00    +0.200 C 
BRANCH  27   3
ATOM      3  O   UNL     1      22.296   3.682  22.517  0.00  0.00    -0.380 OA
ATOM     28  C   UNL     1      22.298   3.110  21.216  0.00  0.00    +0.194 C 
ENDBRANCH  27   3
ENDBRANCH  26  27
ENDBRANCH   2  26
ENDBRANCH  25   2
ENDBRANCH  20  21
BRANCH  18  10
ATOM      4  N   UNL     1      12.285   8.310  19.384  0.00  0.00    -0.288 NA
ATOM     10  C   UNL     1      13.179   8.525  20.540  0.00  0.00    +0.146 C 
ATOM     11  C   UNL     1      10.918   8.453  19.886  0.00  0.00    +0.085 C 
ATOM     14  C   UNL     1      12.349   8.090  21.762  0.00  0.00    +0.030 C 
ATOM     15  C   UNL     1      10.987   7.705  21.201  0.00  0.00    +0.017 C 
BRANCH   4   9
ATOM      5  N   UNL     1      14.472  10.415  16.409  0.00  0.00    -0.305 NA
ATOM      9  C   UNL     1      12.558   9.213  18.268  0.00  0.00    +0.060 C 
ATOM     12  C   UNL     1      13.151   8.436  17.091  0.00  0.00    +0.034 C 
ATOM     13  C   UNL     1      13.515  10.331  18.691  0.00  0.00    +0.034 C 
ATOM     16  C   UNL     1      13.535   9.381  15.948  0.00  0.00    +0.085 C 
ATOM     17  C   UNL     1      13.889  11.214  17.497  0.00  0.00    +0.085 C 
ATOM     19  C   UNL     1      14.868  11.279  15.297  0.00  0.00    +0.104 C 
ENDBRANCH   4   9
ENDBRANCH  18  10
TORSDOF 7
ENDMDL
MODEL 3
REMARK VINA RESULT:      -6.2     27.789     30.292
REMARK  Name = 45783556
REMARK  9 active torsions:
REMARK  status: ('A' for Active; 'I' for Inactive)
REMARK    1  A    between atoms: O_2  and  C_25
REMARK    2  A    between atoms: O_2  and  C_26
REMARK    3  A    between atoms: O_3  and  C_27
REMARK    4  A    between atoms: O_3  and  C_28
REMARK    5  A    between atoms: N_4  and  C_9
REMARK    6  A    between atoms: N_5  and  C_19
REMARK    7  A    between atoms: C_10  and  C_18
REMARK    8  A    between atoms: C_20  and  C_21
REMARK    9  A    between atoms: C_26  and  C_27
REMARK                            x       y       z     vdW  Elec       q    Type
REMARK                         _______ _______ _______ _____ _____    ______ ____
ROOT
ATOM      1  O   UNL     1      16.413   8.986  20.443  0.00  0.00    -0.336 OA
ATOM      6  N   UNL     1      16.614   6.768  20.201  0.00  0.00    -0.190 NA
ATOM      7  N   UNL     1      17.699   8.661  20.892  0.00  0.00    -0.056 NA
ATOM     18  C   UNL     1      15.842   7.815  20.055  0.00  0.00    +0.245 A 
ATOM     20  C   UNL     1      17.743   7.336  20.717  0.00  0.00    +0.204 A 
ENDROOT
BRANCH  20  21
ATOM      8  N   UNL     1      20.629   5.999  22.643  0.00  0.00    -0.221 NA
ATOM     21  C   UNL     1      18.896   6.552  21.050  0.00  0.00    +0.041 A 
ATOM     22  C   UNL     1      19.406   5.613  20.160  0.00  0.00    +0.018 A 
ATOM     23  C   UNL     1      19.539   6.705  22.268  0.00  0.00    +0.126 A 
ATOM     24  C   UNL     1      20.526   4.868  20.510  0.00  0.00    +0.068 A 
ATOM     25  C   UNL     1      21.095   5.097  21.752  0.00  0.00    +0.215 A 
BRANCH  25   2
ATOM      2  O   UNL     1      22.201   4.375  22.119  0.00  0.00    -0.474 OA
BRANCH   2  26
ATOM     26  C   UNL     1      22.999   3.846  21.067  0.00  0.00    +0.258 C 
BRANCH  26  27
ATOM     27  C   UNL     1      23.436   2.441  21.436  0.00  0.00    +0.200 C 
BRANCH  27   3
ATOM      3  O   UNL     1      24.339   1.963  20.446  0.00  0.00    -0.380 OA
ATOM     28  C   UNL     1      24.950   3.032  19.737  0.00  0.00    +0.194 C 
ENDBRANCH  27   3
ENDBRANCH  26  27
ENDBRANCH   2  26
ENDBRANCH  25   2
ENDBRANCH  20  21
BRANCH  18  10
ATOM      4  N   UNL     1      13.837   9.240  19.689  0.00  0.00    -0.288 NA
ATOM     10  C   UNL     1      14.428   7.898  19.521  0.00  0.00    +0.146 C 
ATOM     11  C   UNL     1      12.879   9.411  18.596  0.00  0.00    +0.085 C 
ATOM     14  C   UNL     1      14.346   7.622  18.008  0.00  0.00    +0.030 C 
ATOM     15  C   UNL     1      13.641   8.836  17.420  0.00  0.00    +0.017 C 
BRANCH   4   9
ATOM      5  N   UNL     1      11.450  10.985  22.742  0.00  0.00    -0.305 NA
ATOM      9  C   UNL     1      13.217   9.437  20.998  0.00  0.00    +0.060 C 
ATOM     12  C   UNL     1      11.693   9.376  20.877  0.00  0.00    +0.034 C 
ATOM     13  C   UNL     1      13.639  10.777  21.607  0.00  0.00    +0.034 C 
ATOM     16  C   UNL     1      11.024   9.679  22.220  0.00  0.00    +0.085 C 
ATOM     17  C   UNL     1      12.907  11.035  22.927  0.00  0.00    +0.085 C 
ATOM     19  C   UNL     1      10.765  11.282  24.000  0.00  0.00    +0.104 C 
ENDBRANCH   4   9
ENDBRANCH  18  10
TORSDOF 7
ENDMDL
MODEL 4
REMARK VINA RESULT:      -6.2     27.472     30.470
REMARK  Name = 45783556
REMARK  9 active torsions:
REMARK  status: ('A' for Active; 'I' for Inactive)
REMARK    1  A    between atoms: O_2  and  C_25
REMARK    2  A    between atoms: O_2  and  C_26
REMARK    3  A    between atoms: O_3  and  C_27
REMARK    4  A    between atoms: O_3  and  C_28
REMARK    5  A    between atoms: N_4  and  C_9
REMARK    6  A    between atoms: N_5  and  C_19
REMARK    7  A    between atoms: C_10  and  C_18
REMARK    8  A    between atoms: C_20  and  C_21
REMARK    9  A    between atoms: C_26  and  C_27
REMARK                            x       y       z     vdW  Elec       q    Type
REMARK                         _______ _______ _______ _____ _____    ______ ____
ROOT
ATOM      1  O   UNL     1      16.892   9.230  21.528  0.00  0.00    -0.336 OA
ATOM      6  N   UNL     1      16.915   7.044  21.037  0.00  0.00    -0.190 NA
ATOM      7  N   UNL     1      18.194   8.786  21.789  0.00  0.00    -0.056 NA
ATOM     18  C   UNL     1      16.204   8.142  21.089  0.00  0.00    +0.245 A 
ATOM     20  C   UNL     1      18.129   7.488  21.475  0.00  0.00    +0.204 A 
ENDROOT
BRANCH  20  21
ATOM      8  N   UNL     1      21.071   5.742  22.930  0.00  0.00    -0.221 NA
ATOM     21  C   UNL     1      19.255   6.608  21.590  0.00  0.00    +0.041 A 
ATOM     22  C   UNL     1      19.637   5.790  20.532  0.00  0.00    +0.018 A 
ATOM     23  C   UNL     1      20.000   6.547  22.757  0.00  0.00    +0.126 A 
ATOM     24  C   UNL     1      20.734   4.948  20.672  0.00  0.00    +0.068 A 
ATOM     25  C   UNL     1      21.412   4.962  21.880  0.00  0.00    +0.215 A 
BRANCH  25   2
ATOM      2  O   UNL     1      22.498   4.141  22.043  0.00  0.00    -0.474 OA
BRANCH   2  26
ATOM     26  C   UNL     1      23.637   4.421  21.239  0.00  0.00    +0.258 C 
BRANCH  26  27
ATOM     27  C   UNL     1      24.073   3.150  20.536  0.00  0.00    +0.200 C 
BRANCH  27   3
ATOM      3  O   UNL     1      25.003   3.482  19.512  0.00  0.00    -0.380 OA
ATOM     28  C   UNL     1      25.461   4.821  19.639  0.00  0.00    +0.194 C 
ENDBRANCH  27   3
ENDBRANCH  26  27
ENDBRANCH   2  26
ENDBRANCH  25   2
ENDBRANCH  20  21
BRANCH  18  10
ATOM      4  N   UNL     1      14.367   7.700  19.471  0.00  0.00    -0.288 NA
ATOM     10  C   UNL     1      14.749   8.363  20.734  0.00  0.00    +0.146 C 
ATOM     11  C   UNL     1      12.947   7.371  19.590  0.00  0.00    +0.085 C 
ATOM     14  C   UNL     1      13.785   7.783  21.786  0.00  0.00    +0.030 C 
ATOM     15  C   UNL     1      12.863   6.853  21.010  0.00  0.00    +0.017 C 
BRANCH   4   9
ATOM      5  N   UNL     1      13.707  10.352  16.215  0.00  0.00    -0.305 NA
ATOM      9  C   UNL     1      14.646   8.512  18.287  0.00  0.00    +0.060 C 
ATOM     12  C   UNL     1      14.356   9.986  18.576  0.00  0.00    +0.034 C 
ATOM     13  C   UNL     1      13.814   8.040  17.092  0.00  0.00    +0.034 C 
ATOM     16  C   UNL     1      14.548  10.839  17.318  0.00  0.00    +0.085 C 
ATOM     17  C   UNL     1      14.022   8.955  15.882  0.00  0.00    +0.085 C 
ATOM     19  C   UNL     1      13.864  11.205  15.037  0.00  0.00    +0.104 C 
ENDBRANCH   4   9
ENDBRANCH  18  10
TORSDOF 7
ENDMDL
MODEL 5
REMARK VINA RESULT:      -6.0     27.967     30.911
REMARK  Name = 45783556
REMARK  9 active torsions:
REMARK  status: ('A' for Active; 'I' for Inactive)
REMARK    1  A    between atoms: O_2  and  C_25
REMARK    2  A    between atoms: O_2  and  C_26
REMARK    3  A    between atoms: O_3  and  C_27
REMARK    4  A    between atoms: O_3  and  C_28
REMARK    5  A    between atoms: N_4  and  C_9
REMARK    6  A    between atoms: N_5  and  C_19
REMARK    7  A    between atoms: C_10  and  C_18
REMARK    8  A    between atoms: C_20  and  C_21
REMARK    9  A    between atoms: C_26  and  C_27
REMARK                            x       y       z     vdW  Elec       q    Type
REMARK                         _______ _______ _______ _____ _____    ______ ____
ROOT
ATOM      1  O   UNL     1      20.423   4.696  20.160  0.00  0.00    -0.336 OA
ATOM      6  N   UNL     1      19.754   6.647  21.034  0.00  0.00    -0.190 NA
ATOM      7  N   UNL     1      19.089   4.863  19.766  0.00  0.00    -0.056 NA
ATOM     18  C   UNL     1      20.735   5.791  20.903  0.00  0.00    +0.245 A 
ATOM     20  C   UNL     1      18.765   6.036  20.319  0.00  0.00    +0.204 A 
ENDROOT
BRANCH  20  21
ATOM      8  N   UNL     1      15.788   8.152  21.012  0.00  0.00    -0.221 NA
ATOM     21  C   UNL     1      17.465   6.622  20.180  0.00  0.00    +0.041 A 
ATOM     22  C   UNL     1      16.624   6.262  19.131  0.00  0.00    +0.018 A 
ATOM     23  C   UNL     1      17.002   7.563  21.086  0.00  0.00    +0.126 A 
ATOM     24  C   UNL     1      15.368   6.846  19.023  0.00  0.00    +0.068 A 
ATOM     25  C   UNL     1      15.000   7.777  19.980  0.00  0.00    +0.215 A 
BRANCH  25   2
ATOM      2  O   UNL     1      13.765   8.366  19.895  0.00  0.00    -0.474 OA
BRANCH   2  26
ATOM     26  C   UNL     1      12.638   7.502  19.969  0.00  0.00    +0.258 C 
BRANCH  26  27
ATOM     27  C   UNL     1      11.390   8.335  20.192  0.00  0.00    +0.200 C 
BRANCH  27   3
ATOM      3  O   UNL     1      10.586   7.709  21.184  0.00  0.00    -0.380 OA
ATOM     28  C   UNL     1      11.113   6.444  21.559  0.00  0.00    +0.194 C 
ENDBRANCH  27   3
ENDBRANCH  26  27
ENDBRANCH   2  26
ENDBRANCH  25   2
ENDBRANCH  20  21
BRANCH  18  10
ATOM      4  N   UNL     1      23.008   4.780  20.922  0.00  0.00    -0.288 NA
ATOM     10  C   UNL     1      22.144   5.852  21.454  0.00  0.00    +0.146 C 
ATOM     11  C   UNL     1      24.371   5.310  20.919  0.00  0.00    +0.085 C 
ATOM     14  C   UNL     1      22.871   7.159  21.084  0.00  0.00    +0.030 C 
ATOM     15  C   UNL     1      24.159   6.718  20.403  0.00  0.00    +0.017 C 
BRANCH   4   9
ATOM      5  N   UNL     1      24.013   1.686  23.658  0.00  0.00    -0.305 NA
ATOM      9  C   UNL     1      22.905   3.531  21.675  0.00  0.00    +0.060 C 
ATOM     12  C   UNL     1      22.856   3.820  23.177  0.00  0.00    +0.034 C 
ATOM     13  C   UNL     1      24.083   2.604  21.361  0.00  0.00    +0.034 C 
ATOM     16  C   UNL     1      22.848   2.520  23.986  0.00  0.00    +0.085 C 
ATOM     17  C   UNL     1      24.037   1.343  22.229  0.00  0.00    +0.085 C 
ATOM     19  C   UNL     1      24.018   0.472  24.474  0.00  0.00    +0.104 C 
ENDBRANCH   4   9
ENDBRANCH  18  10
TORSDOF 7
ENDMDL
MODEL 6
REMARK VINA RESULT:      -6.0     26.444     29.546
REMARK  Name = 45783556
REMARK  9 active torsions:
REMARK  status: ('A' for Active; 'I' for Inactive)
REMARK    1  A    between atoms: O_2  and  C_25
REMARK    2  A    between atoms: O_2  and  C_26
REMARK    3  A    between atoms: O_3  and  C_27
REMARK    4  A    between atoms: O_3  and  C_28
REMARK    5  A    between atoms: N_4  and  C_9
REMARK    6  A    between atoms: N_5  and  C_19
REMARK    7  A    between atoms: C_10  and  C_18
REMARK    8  A    between atoms: C_20  and  C_21
REMARK    9  A    between atoms: C_26  and  C_27
REMARK                            x       y       z     vdW  Elec       q    Type
REMARK                         _______ _______ _______ _____ _____    ______ ____
ROOT
ATOM      1  O   UNL     1      14.878   9.285  20.524  0.00  0.00    -0.336 OA
ATOM      6  N   UNL     1      13.011   9.674  19.349  0.00  0.00    -0.190 NA
ATOM      7  N   UNL     1      15.295   9.790  19.286  0.00  0.00    -0.056 NA
ATOM     18  C   UNL     1      13.519   9.250  20.477  0.00  0.00    +0.245 A 
ATOM     20  C   UNL     1      14.138   9.996  18.650  0.00  0.00    +0.204 A 
ENDROOT
BRANCH  20  21
ATOM      8  N   UNL     1      13.251  10.305  15.052  0.00  0.00    -0.221 NA
ATOM     21  C   UNL     1      14.074  10.517  17.316  0.00  0.00    +0.041 A 
ATOM     22  C   UNL     1      14.737  11.691  16.971  0.00  0.00    +0.018 A 
ATOM     23  C   UNL     1      13.351   9.868  16.327  0.00  0.00    +0.126 A 
ATOM     24  C   UNL     1      14.657  12.171  15.670  0.00  0.00    +0.068 A 
ATOM     25  C   UNL     1      13.908  11.448  14.756  0.00  0.00    +0.215 A 
BRANCH  25   2
ATOM      2  O   UNL     1      13.815  11.902  13.465  0.00  0.00    -0.474 OA
BRANCH   2  26
ATOM     26  C   UNL     1      13.456  13.267  13.292  0.00  0.00    +0.258 C 
BRANCH  26  27
ATOM     27  C   UNL     1      11.990  13.349  12.913  0.00  0.00    +0.200 C 
BRANCH  27   3
ATOM      3  O   UNL     1      11.701  12.334  11.959  0.00  0.00    -0.380 OA
ATOM     28  C   UNL     1      10.325  11.977  11.981  0.00  0.00    +0.194 C 
ENDBRANCH  27   3
ENDBRANCH  26  27
ENDBRANCH   2  26
ENDBRANCH  25   2
ENDBRANCH  20  21
BRANCH  18  10
ATOM      4  N   UNL     1      11.534   9.424  21.966  0.00  0.00    -0.288 NA
ATOM     10  C   UNL     1      12.815   8.735  21.715  0.00  0.00    +0.146 C 
ATOM     11  C   UNL     1      10.674   8.460  22.654  0.00  0.00    +0.085 C 
ATOM     14  C   UNL     1      12.443   7.244  21.611  0.00  0.00    +0.030 C 
ATOM     15  C   UNL     1      10.946   7.188  21.877  0.00  0.00    +0.017 C 
BRANCH   4   9
ATOM      5  N   UNL     1      10.473  12.990  24.020  0.00  0.00    -0.305 NA
ATOM      9  C   UNL     1      11.686  10.664  22.725  0.00  0.00    +0.060 C 
ATOM     12  C   UNL     1      10.946  10.561  24.061  0.00  0.00    +0.034 C 
ATOM     13  C   UNL     1      11.160  11.861  21.928  0.00  0.00    +0.034 C 
ATOM     16  C   UNL     1      11.011  11.885  24.827  0.00  0.00    +0.085 C 
ATOM     17  C   UNL     1      11.217  13.143  22.763  0.00  0.00    +0.085 C 
ATOM     19  C   UNL     1      10.495  14.238  24.783  0.00  0.00    +0.104 C 
ENDBRANCH   4   9
ENDBRANCH  18  10
TORSDOF 7
ENDMDL
MODEL 7
REMARK VINA RESULT:      -6.0      4.573      7.791
REMARK  Name = 45783556
REMARK  9 active torsions:
REMARK  status: ('A' for Active; 'I' for Inactive)
REMARK    1  A    between atoms: O_2  and  C_25
REMARK    2  A    between atoms: O_2  and  C_26
REMARK    3  A    between atoms: O_3  and  C_27
REMARK    4  A    between atoms: O_3  and  C_28
REMARK    5  A    between atoms: N_4  and  C_9
REMARK    6  A    between atoms: N_5  and  C_19
REMARK    7  A    between atoms: C_10  and  C_18
REMARK    8  A    between atoms: C_20  and  C_21
REMARK    9  A    between atoms: C_26  and  C_27
REMARK                            x       y       z     vdW  Elec       q    Type
REMARK                         _______ _______ _______ _____ _____    ______ ____
ROOT
ATOM      1  O   UNL     1      -8.670 -12.085  16.334  0.00  0.00    -0.336 OA
ATOM      6  N   UNL     1      -8.112  -9.981  16.865  0.00  0.00    -0.190 NA
ATOM      7  N   UNL     1      -9.693 -11.272  15.830  0.00  0.00    -0.056 NA
ATOM     18  C   UNL     1      -7.780 -11.246  16.928  0.00  0.00    +0.245 A 
ATOM     20  C   UNL     1      -9.292 -10.046  16.182  0.00  0.00    +0.204 A 
ENDROOT
BRANCH  20  21
ATOM      8  N   UNL     1     -11.514  -7.697  14.347  0.00  0.00    -0.221 NA
ATOM     21  C   UNL     1     -10.047  -8.868  15.871  0.00  0.00    +0.041 A 
ATOM     22  C   UNL     1     -10.063  -7.778  16.734  0.00  0.00    +0.018 A 
ATOM     23  C   UNL     1     -10.783  -8.777  14.700  0.00  0.00    +0.126 A 
ATOM     24  C   UNL     1     -10.803  -6.648  16.405  0.00  0.00    +0.068 A 
ATOM     25  C   UNL     1     -11.505  -6.658  15.210  0.00  0.00    +0.215 A 
BRANCH  25   2
ATOM      2  O   UNL     1     -12.242  -5.555  14.863  0.00  0.00    -0.474 OA
BRANCH   2  26
ATOM     26  C   UNL     1     -12.490  -5.363  13.476  0.00  0.00    +0.258 C 
BRANCH  26  27
ATOM     27  C   UNL     1     -13.526  -4.268  13.306  0.00  0.00    +0.200 C 
BRANCH  27   3
ATOM      3  O   UNL     1     -12.906  -3.130  12.719  0.00  0.00    -0.380 OA
ATOM     28  C   UNL     1     -12.155  -3.484  11.565  0.00  0.00    +0.194 C 
ENDBRANCH  27   3
ENDBRANCH  26  27
ENDBRANCH   2  26
ENDBRANCH  25   2
ENDBRANCH  20  21
BRANCH  18  10
ATOM      4  N   UNL     1      -5.353 -11.053  17.440  0.00  0.00    -0.288 NA
ATOM     10  C   UNL     1      -6.563 -11.890  17.558  0.00  0.00    +0.146 C 
ATOM     11  C   UNL     1      -4.516 -11.370  18.597  0.00  0.00    +0.085 C 
ATOM     14  C   UNL     1      -6.730 -12.123  19.071  0.00  0.00    +0.030 C 
ATOM     15  C   UNL     1      -5.536 -11.432  19.714  0.00  0.00    +0.017 C 
BRANCH   4   9
ATOM      5  N   UNL     1      -2.410 -12.423  14.697  0.00  0.00    -0.305 NA
ATOM      9  C   UNL     1      -4.641 -11.244  16.178  0.00  0.00    +0.060 C 
ATOM     12  C   UNL     1      -4.597 -12.730  15.814  0.00  0.00    +0.034 C 
ATOM     13  C   UNL     1      -3.218 -10.685  16.262  0.00  0.00    +0.034 C 
ATOM     16  C   UNL     1      -3.770 -12.960  14.547  0.00  0.00    +0.085 C 
ATOM     17  C   UNL     1      -2.435 -10.981  14.980  0.00  0.00    +0.085 C 
ATOM     19  C   UNL     1      -1.617 -12.694  13.497  0.00  0.00    +0.104 C 
ENDBRANCH   4   9
ENDBRANCH  18  10
TORSDOF 7
ENDMDL
MODEL 8
REMARK VINA RESULT:      -6.0     28.829     31.821
REMARK  Name = 45783556
REMARK  9 active torsions:
REMARK  status: ('A' for Active; 'I' for Inactive)
REMARK    1  A    between atoms: O_2  and  C_25
REMARK    2  A    between atoms: O_2  and  C_26
REMARK    3  A    between atoms: O_3  and  C_27
REMARK    4  A    between atoms: O_3  and  C_28
REMARK    5  A    between atoms: N_4  and  C_9
REMARK    6  A    between atoms: N_5  and  C_19
REMARK    7  A    between atoms: C_10  and  C_18
REMARK    8  A    between atoms: C_20  and  C_21
REMARK    9  A    between atoms: C_26  and  C_27
REMARK                            x       y       z     vdW  Elec       q    Type
REMARK                         _______ _______ _______ _____ _____    ______ ____
ROOT
ATOM      1  O   UNL     1      21.024   5.905  22.363  0.00  0.00    -0.336 OA
ATOM      6  N   UNL     1      20.227   5.080  20.439  0.00  0.00    -0.190 NA
ATOM      7  N   UNL     1      19.776   6.510  22.167  0.00  0.00    -0.056 NA
ATOM     18  C   UNL     1      21.212   5.078  21.300  0.00  0.00    +0.245 A 
ATOM     20  C   UNL     1      19.369   5.973  21.013  0.00  0.00    +0.204 A 
ENDROOT
BRANCH  20  21
ATOM      8  N   UNL     1      16.485   5.898  18.667  0.00  0.00    -0.221 NA
ATOM     21  C   UNL     1      18.114   6.308  20.407  0.00  0.00    +0.041 A 
ATOM     22  C   UNL     1      17.316   7.324  20.923  0.00  0.00    +0.018 A 
ATOM     23  C   UNL     1      17.656   5.632  19.286  0.00  0.00    +0.126 A 
ATOM     24  C   UNL     1      16.105   7.627  20.312  0.00  0.00    +0.068 A 
ATOM     25  C   UNL     1      15.738   6.892  19.197  0.00  0.00    +0.215 A 
BRANCH  25   2
ATOM      2  O   UNL     1      14.548   7.173  18.577  0.00  0.00    -0.474 OA
BRANCH   2  26
ATOM     26  C   UNL     1      13.402   7.283  19.413  0.00  0.00    +0.258 C 
BRANCH  26  27
ATOM     27  C   UNL     1      12.520   8.404  18.899  0.00  0.00    +0.200 C 
BRANCH  27   3
ATOM      3  O   UNL     1      11.160   8.086  19.169  0.00  0.00    -0.380 OA
ATOM     28  C   UNL     1      10.824   8.349  20.525  0.00  0.00    +0.194 C 
ENDBRANCH  27   3
ENDBRANCH  26  27
ENDBRANCH   2  26
ENDBRANCH  25   2
ENDBRANCH  20  21
BRANCH  18  10
ATOM      4  N   UNL     1      23.677   5.123  21.633  0.00  0.00    -0.288 NA
ATOM     10  C   UNL     1      22.508   4.296  21.276  0.00  0.00    +0.146 C 
ATOM     11  C   UNL     1      24.650   4.221  22.249  0.00  0.00    +0.085 C 
ATOM     14  C   UNL     1      22.523   3.139  22.293  0.00  0.00    +0.030 C 
ATOM     15  C   UNL     1      23.768   3.369  23.138  0.00  0.00    +0.017 C 
BRANCH   4   9
ATOM      5  N   UNL     1      26.333   7.566  19.386  0.00  0.00    -0.305 NA
ATOM      9  C   UNL     1      24.242   5.845  20.494  0.00  0.00    +0.060 C 
ATOM     12  C   UNL     1      25.646   5.324  20.180  0.00  0.00    +0.034 C 
ATOM     13  C   UNL     1      24.292   7.350  20.770  0.00  0.00    +0.034 C 
ATOM     16  C   UNL     1      26.292   6.135  19.053  0.00  0.00    +0.085 C 
ATOM     17  C   UNL     1      24.983   8.095  19.624  0.00  0.00    +0.085 C 
ATOM     19  C   UNL     1      26.997   8.320  18.323  0.00  0.00    +0.104 C 
ENDBRANCH   4   9
ENDBRANCH  18  10
TORSDOF 7
ENDMDL
MODEL 9
REMARK VINA RESULT:      -5.9     25.603     28.060
REMARK  Name = 45783556
REMARK  9 active torsions:
REMARK  status: ('A' for Active; 'I' for Inactive)
REMARK    1  A    between atoms: O_2  and  C_25
REMARK    2  A    between atoms: O_2  and  C_26
REMARK    3  A    between atoms: O_3  and  C_27
REMARK    4  A    between atoms: O_3  and  C_28
REMARK    5  A    between atoms: N_4  and  C_9
REMARK    6  A    between atoms: N_5  and  C_19
REMARK    7  A    between atoms: C_10  and  C_18
REMARK    8  A    between atoms: C_20  and  C_21
REMARK    9  A    between atoms: C_26  and  C_27
REMARK                            x       y       z     vdW  Elec       q    Type
REMARK                         _______ _______ _______ _____ _____    ______ ____
ROOT
ATOM      1  O   UNL     1      15.391  12.031  15.415  0.00  0.00    -0.336 OA
ATOM      6  N   UNL     1      13.754  10.599  14.880  0.00  0.00    -0.190 NA
ATOM      7  N   UNL     1      15.201  11.219  16.540  0.00  0.00    -0.056 NA
ATOM     18  C   UNL     1      14.500  11.599  14.484  0.00  0.00    +0.245 A 
ATOM     20  C   UNL     1      14.220  10.400  16.147  0.00  0.00    +0.204 A 
ENDROOT
BRANCH  20  21
ATOM      8  N   UNL     1      11.885   7.837  17.490  0.00  0.00    -0.221 NA
ATOM     21  C   UNL     1      13.682   9.377  16.995  0.00  0.00    +0.041 A 
ATOM     22  C   UNL     1      14.381   8.930  18.111  0.00  0.00    +0.018 A 
ATOM     23  C   UNL     1      12.449   8.803  16.731  0.00  0.00    +0.126 A 
ATOM     24  C   UNL     1      13.834   7.938  18.916  0.00  0.00    +0.068 A 
ATOM     25  C   UNL     1      12.594   7.429  18.566  0.00  0.00    +0.215 A 
BRANCH  25   2
ATOM      2  O   UNL     1      12.033   6.450  19.344  0.00  0.00    -0.474 OA
BRANCH   2  26
ATOM     26  C   UNL     1      12.091   6.641  20.753  0.00  0.00    +0.258 C 
BRANCH  26  27
ATOM     27  C   UNL     1      11.014   7.627  21.163  0.00  0.00    +0.200 C 
BRANCH  27   3
ATOM      3  O   UNL     1      11.618   8.710  21.859  0.00  0.00    -0.380 OA
ATOM     28  C   UNL     1      10.655   9.469  22.577  0.00  0.00    +0.194 C 
ENDBRANCH  27   3
ENDBRANCH  26  27
ENDBRANCH   2  26
ENDBRANCH  25   2
ENDBRANCH  20  21
BRANCH  18  10
ATOM      4  N   UNL     1      13.299  13.150  12.954  0.00  0.00    -0.288 NA
ATOM     10  C   UNL     1      14.507  12.325  13.156  0.00  0.00    +0.146 C 
ATOM     11  C   UNL     1      13.699  14.267  12.097  0.00  0.00    +0.085 C 
ATOM     14  C   UNL     1      15.681  13.313  13.025  0.00  0.00    +0.030 C 
ATOM     15  C   UNL     1      15.039  14.652  12.690  0.00  0.00    +0.017 C 
BRANCH   4   9
ATOM      5  N   UNL     1       9.807  12.321  10.677  0.00  0.00    -0.305 NA
ATOM      9  C   UNL     1      12.177  12.401  12.392  0.00  0.00    +0.060 C 
ATOM     12  C   UNL     1      12.275  12.366  10.865  0.00  0.00    +0.034 C 
ATOM     13  C   UNL     1      10.841  13.017  12.815  0.00  0.00    +0.034 C 
ATOM     16  C   UNL     1      11.056  11.671  10.253  0.00  0.00    +0.085 C 
ATOM     17  C   UNL     1       9.668  12.302  12.140  0.00  0.00    +0.085 C 
ATOM     19  C   UNL     1       8.655  11.677  10.046  0.00  0.00    +0.104 C 
ENDBRANCH   4   9
ENDBRANCH  18  10
TORSDOF 7
ENDMDL
MODEL 10
REMARK VINA RESULT:      -5.9     26.363     29.781
REMARK  Name = 45783556
REMARK  9 active torsions:
REMARK  status: ('A' for Active; 'I' for Inactive)
REMARK    1  A    between atoms: O_2  and  C_25
REMARK    2  A    between atoms: O_2  and  C_26
REMARK    3  A    between atoms: O_3  and  C_27
REMARK    4  A    between atoms: O_3  and  C_28
REMARK    5  A    between atoms: N_4  and  C_9
REMARK    6  A    between atoms: N_5  and  C_19
REMARK    7  A    between atoms: C_10  and  C_18
REMARK    8  A    between atoms: C_20  and  C_21
REMARK    9  A    between atoms: C_26  and  C_27
REMARK                            x       y       z     vdW  Elec       q    Type
REMARK                         _______ _______ _______ _____ _____    ______ ____
ROOT
ATOM      1  O   UNL     1      12.075   7.348  18.620  0.00  0.00    -0.336 OA
ATOM      6  N   UNL     1      13.479   9.050  19.011  0.00  0.00    -0.190 NA
ATOM      7  N   UNL     1      12.548   7.759  17.367  0.00  0.00    -0.056 NA
ATOM     18  C   UNL     1      12.673   8.160  19.532  0.00  0.00    +0.245 A 
ATOM     20  C   UNL     1      13.371   8.765  17.680  0.00  0.00    +0.204 A 
ENDROOT
BRANCH  20  21
ATOM      8  N   UNL     1      15.054   9.602  14.472  0.00  0.00    -0.221 NA
ATOM     21  C   UNL     1      14.095   9.506  16.690  0.00  0.00    +0.041 A 
ATOM     22  C   UNL     1      14.542  10.798  16.946  0.00  0.00    +0.018 A 
ATOM     23  C   UNL     1      14.376   8.958  15.448  0.00  0.00    +0.126 A 
ATOM     24  C   UNL     1      15.243  11.492  15.966  0.00  0.00    +0.068 A 
ATOM     25  C   UNL     1      15.471  10.855  14.758  0.00  0.00    +0.215 A 
BRANCH  25   2
ATOM      2  O   UNL     1      16.162  11.519  13.777  0.00  0.00    -0.474 OA
BRANCH   2  26
ATOM     26  C   UNL     1      15.413  11.948  12.646  0.00  0.00    +0.258 C 
BRANCH  26  27
ATOM     27  C   UNL     1      15.810  13.369  12.299  0.00  0.00    +0.200 C 
BRANCH  27   3
ATOM      3  O   UNL     1      17.066  13.659  12.901  0.00  0.00    -0.380 OA
ATOM     28  C   UNL     1      18.030  14.050  11.932  0.00  0.00    +0.194 C 
ENDBRANCH  27   3
ENDBRANCH  26  27
ENDBRANCH   2  26
ENDBRANCH  25   2
ENDBRANCH  20  21
BRANCH  18  10
ATOM      4  N   UNL     1      11.256   8.813  21.469  0.00  0.00    -0.288 NA
ATOM     10  C   UNL     1      12.323   7.915  20.984  0.00  0.00    +0.146 C 
ATOM     11  C   UNL     1      10.545   8.082  22.518  0.00  0.00    +0.085 C 
ATOM     14  C   UNL     1      11.782   6.495  21.234  0.00  0.00    +0.030 C 
ATOM     15  C   UNL     1      10.436   6.697  21.916  0.00  0.00    +0.017 C 
BRANCH   4   9
ATOM      5  N   UNL     1      12.842  11.744  24.108  0.00  0.00    -0.305 NA
ATOM      9  C   UNL     1      11.758  10.102  21.942  0.00  0.00    +0.060 C 
ATOM     12  C   UNL     1      13.202   9.962  22.428  0.00  0.00    +0.034 C 
ATOM     13  C   UNL     1      10.879  10.652  23.068  0.00  0.00    +0.034 C 
ATOM     16  C   UNL     1      13.712  11.280  23.018  0.00  0.00    +0.085 C 
ATOM     17  C   UNL     1      11.464  11.948  23.638  0.00  0.00    +0.085 C 
ATOM     19  C   UNL     1      13.369  12.976  24.694  0.00  0.00    +0.104 C 
ENDBRANCH   4   9
ENDBRANCH  18  10
TORSDOF 7
ENDMDL
