MODEL 1
REMARK VINA RESULT:      -7.3      0.000      0.000
REMARK  Name = 45361391
REMARK  16 active torsions:
REMARK  status: ('A' for Active; 'I' for Inactive)
REMARK    1  A    between atoms: O_1  and  C_12
REMARK    2  A    between atoms: O_4  and  C_32
REMARK    3  A    between atoms: O_4  and  C_38
REMARK    4  A    between atoms: O_5  and  C_35
REMARK    5  A    between atoms: O_5  and  C_39
REMARK    6  A    between atoms: O_6  and  C_37
REMARK    7  A    between atoms: O_6  and  C_40
REMARK    8  A    between atoms: N_7  and  C_16
REMARK    9  A    between atoms: N_8  and  C_26
REMARK   10  A    between atoms: C_9  and  C_19
REMARK   11  A    between atoms: C_11  and  C_21
REMARK   12  A    between atoms: C_15  and  C_20
REMARK   13  A    between atoms: C_20  and  C_22
REMARK   14  A    between atoms: C_20  and  C_23
REMARK   15  A    between atoms: C_24  and  C_25
REMARK   16  A    between atoms: C_26  and  C_29
REMARK                            x       y       z     vdW  Elec       q    Type
REMARK                         _______ _______ _______ _____ _____    ______ ____
ROOT
ATOM      9  C   UNL     1      -4.721 -11.077  16.961  0.00  0.00    -0.027 C 
ATOM     10  C   UNL     1      -5.539 -10.437  15.791  0.00  0.00    +0.028 C 
ATOM     11  C   UNL     1      -7.083 -10.549  16.059  0.00  0.00    +0.012 C 
ATOM     12  C   UNL     1      -5.060 -10.973  14.410  0.00  0.00    +0.122 C 
ATOM     13  C   UNL     1      -3.211 -10.849  16.721  0.00  0.00    +0.007 C 
ATOM     14  C   UNL     1      -5.099 -10.371  18.284  0.00  0.00    +0.009 C 
ATOM     15  C   UNL     1      -3.531 -10.838  14.218  0.00  0.00    +0.029 C 
ATOM     16  C   UNL     1      -7.439  -9.901  17.426  0.00  0.00    +0.076 C 
ATOM     17  C   UNL     1      -2.731 -11.408  15.388  0.00  0.00    +0.007 C 
ATOM     18  C   UNL     1      -6.590 -10.423  18.586  0.00  0.00    +0.023 C 
ATOM     19  C   UNL     1      -4.980 -12.599  17.104  0.00  0.00    +0.011 C 
ATOM     21  C   UNL     1      -7.947  -9.912  14.958  0.00  0.00    +0.010 C 
ENDROOT
BRANCH  16   7
ATOM      3  O   UNL     1      -9.473  -7.876  17.493  0.00  0.00    -0.270 OA
ATOM      7  N   UNL     1      -8.836 -10.089  17.761  0.00  0.00    -0.308 N 
ATOM     24  C   UNL     1      -9.743  -9.043  17.764  0.00  0.00    +0.244 C 
ATOM     41  H   UNL     1      -9.136 -11.040  17.946  0.00  0.00    +0.149 HD
BRANCH  24  25
ATOM     25  C   UNL     1     -11.133  -9.396  18.154  0.00  0.00    +0.037 A 
ATOM     27  C   UNL     1     -11.383  -9.968  19.401  0.00  0.00    +0.016 A 
ATOM     28  C   UNL     1     -12.186  -9.156  17.272  0.00  0.00    +0.016 A 
ATOM     30  C   UNL     1     -12.687 -10.301  19.766  0.00  0.00    +0.046 A 
ATOM     31  C   UNL     1     -13.490  -9.489  17.637  0.00  0.00    +0.046 A 
ATOM     32  C   UNL     1     -13.741 -10.062  18.884  0.00  0.00    +0.120 A 
BRANCH  32   4
ATOM      4  O   UNL     1     -15.014 -10.386  19.240  0.00  0.00    -0.495 OA
ATOM     38  C   UNL     1     -15.173 -11.378  20.253  0.00  0.00    +0.277 C 
ENDBRANCH  32   4
ENDBRANCH  24  25
ENDBRANCH  16   7
BRANCH  12   1
ATOM      1  O   UNL     1      -5.671 -10.214  13.365  0.00  0.00    -0.391 OA
ATOM     42  H   UNL     1      -5.751 -10.786  12.583  0.00  0.00    +0.210 HD
ENDBRANCH  12   1
BRANCH  15  20
ATOM     20  C   UNL     1      -3.063 -11.489  12.911  0.00  0.00    +0.077 C 
ATOM     22  C   UNL     1      -1.887 -12.421  13.179  0.00  0.00    +0.017 C 
BRANCH  20  23
ATOM      2  O   UNL     1      -1.552  -9.988  11.758  0.00  0.00    -0.276 OA
ATOM      8  N   UNL     1      -3.794  -9.977  11.164  0.00  0.00    -0.311 N 
ATOM     23  C   UNL     1      -2.699 -10.411  11.895  0.00  0.00    +0.216 C 
ATOM     43  H   UNL     1      -4.700 -10.414  11.300  0.00  0.00    +0.149 HD
BRANCH   8  26
ATOM     26  C   UNL     1      -3.699  -8.959  10.143  0.00  0.00    +0.139 C 
BRANCH  26  29
ATOM     29  C   UNL     1      -4.833  -9.041   9.162  0.00  0.00    -0.027 A 
ATOM     33  C   UNL     1      -5.989  -8.288   9.368  0.00  0.00    +0.054 A 
ATOM     34  C   UNL     1      -4.731  -9.870   8.044  0.00  0.00    +0.009 A 
ATOM     35  C   UNL     1      -7.043  -8.364   8.456  0.00  0.00    +0.162 A 
ATOM     36  C   UNL     1      -5.784  -9.946   7.133  0.00  0.00    +0.050 A 
ATOM     37  C   UNL     1      -6.940  -9.192   7.339  0.00  0.00    +0.162 A 
BRANCH  35   5
ATOM      5  O   UNL     1      -8.167  -7.623   8.668  0.00  0.00    -0.491 OA
ATOM     39  C   UNL     1      -8.168  -6.289   8.162  0.00  0.00    +0.277 C 
ENDBRANCH  35   5
BRANCH  37   6
ATOM      6  O   UNL     1      -7.963  -9.276   6.443  0.00  0.00    -0.491 OA
ATOM     40  C   UNL     1      -7.704  -8.810   5.120  0.00  0.00    +0.277 C 
ENDBRANCH  37   6
ENDBRANCH  26  29
ENDBRANCH   8  26
ENDBRANCH  20  23
ENDBRANCH  15  20
TORSDOF 10
ENDMDL
MODEL 2
REMARK VINA RESULT:      -7.1      3.029     10.277
REMARK  Name = 45361391
REMARK  16 active torsions:
REMARK  status: ('A' for Active; 'I' for Inactive)
REMARK    1  A    between atoms: O_1  and  C_12
REMARK    2  A    between atoms: O_4  and  C_32
REMARK    3  A    between atoms: O_4  and  C_38
REMARK    4  A    between atoms: O_5  and  C_35
REMARK    5  A    between atoms: O_5  and  C_39
REMARK    6  A    between atoms: O_6  and  C_37
REMARK    7  A    between atoms: O_6  and  C_40
REMARK    8  A    between atoms: N_7  and  C_16
REMARK    9  A    between atoms: N_8  and  C_26
REMARK   10  A    between atoms: C_9  and  C_19
REMARK   11  A    between atoms: C_11  and  C_21
REMARK   12  A    between atoms: C_15  and  C_20
REMARK   13  A    between atoms: C_20  and  C_22
REMARK   14  A    between atoms: C_20  and  C_23
REMARK   15  A    between atoms: C_24  and  C_25
REMARK   16  A    between atoms: C_26  and  C_29
REMARK                            x       y       z     vdW  Elec       q    Type
REMARK                         _______ _______ _______ _____ _____    ______ ____
ROOT
ATOM      9  C   UNL     1      -6.752 -10.291  11.567  0.00  0.00    -0.027 C 
ATOM     10  C   UNL     1      -5.567  -9.584  10.831  0.00  0.00    +0.028 C 
ATOM     11  C   UNL     1      -5.854  -9.466   9.291  0.00  0.00    +0.012 C 
ATOM     12  C   UNL     1      -4.202 -10.230  11.209  0.00  0.00    +0.122 C 
ATOM     13  C   UNL     1      -6.489 -10.289  13.091  0.00  0.00    +0.007 C 
ATOM     14  C   UNL     1      -8.052  -9.494  11.312  0.00  0.00    +0.009 C 
ATOM     15  C   UNL     1      -3.991 -10.319  12.739  0.00  0.00    +0.029 C 
ATOM     16  C   UNL     1      -7.200  -8.727   9.050  0.00  0.00    +0.076 C 
ATOM     17  C   UNL     1      -5.174 -10.957  13.468  0.00  0.00    +0.007 C 
ATOM     18  C   UNL     1      -8.370  -9.323   9.834  0.00  0.00    +0.023 C 
ATOM     19  C   UNL     1      -6.953 -11.755  11.098  0.00  0.00    +0.011 C 
ATOM     21  C   UNL     1      -4.739  -8.752   8.509  0.00  0.00    +0.010 C 
ENDROOT
BRANCH  16   7
ATOM      3  O   UNL     1      -8.207  -6.479   7.574  0.00  0.00    -0.270 OA
ATOM      7  N   UNL     1      -7.556  -8.703   7.646  0.00  0.00    -0.308 N 
ATOM     24  C   UNL     1      -8.034  -7.563   7.023  0.00  0.00    +0.244 C 
ATOM     41  H   UNL     1      -7.389  -9.554   7.119  0.00  0.00    +0.149 HD
BRANCH  24  25
ATOM     25  C   UNL     1      -8.377  -7.709   5.585  0.00  0.00    +0.037 A 
ATOM     27  C   UNL     1      -7.479  -8.325   4.713  0.00  0.00    +0.016 A 
ATOM     28  C   UNL     1      -9.595  -7.227   5.106  0.00  0.00    +0.016 A 
ATOM     30  C   UNL     1      -7.800  -8.459   3.363  0.00  0.00    +0.046 A 
ATOM     31  C   UNL     1      -9.916  -7.361   3.756  0.00  0.00    +0.046 A 
ATOM     32  C   UNL     1      -9.018  -7.977   2.883  0.00  0.00    +0.120 A 
BRANCH  32   4
ATOM      4  O   UNL     1      -9.332  -8.109   1.566  0.00  0.00    -0.495 OA
ATOM     38  C   UNL     1     -10.271  -7.181   1.026  0.00  0.00    +0.277 C 
ENDBRANCH  32   4
ENDBRANCH  24  25
ENDBRANCH  16   7
BRANCH  12   1
ATOM      1  O   UNL     1      -3.137  -9.429  10.696  0.00  0.00    -0.391 OA
ATOM     42  H   UNL     1      -3.521  -8.748  10.118  0.00  0.00    +0.210 HD
ENDBRANCH  12   1
BRANCH  15  20
ATOM     20  C   UNL     1      -2.704 -11.076  13.090  0.00  0.00    +0.077 C 
ATOM     22  C   UNL     1      -2.922 -12.578  12.949  0.00  0.00    +0.017 C 
BRANCH  20  23
ATOM      2  O   UNL     1      -1.311  -9.954  14.723  0.00  0.00    -0.276 OA
ATOM      8  N   UNL     1      -3.026 -11.320  15.480  0.00  0.00    -0.311 N 
ATOM     23  C   UNL     1      -2.256 -10.709  14.502  0.00  0.00    +0.216 C 
ATOM     43  H   UNL     1      -3.823 -11.890  15.216  0.00  0.00    +0.149 HD
BRANCH   8  26
ATOM     26  C   UNL     1      -2.792 -11.128  16.893  0.00  0.00    +0.139 C 
BRANCH  26  29
ATOM     29  C   UNL     1      -4.076 -11.059  17.670  0.00  0.00    -0.027 A 
ATOM     33  C   UNL     1      -5.131 -10.275  17.204  0.00  0.00    +0.054 A 
ATOM     34  C   UNL     1      -4.213 -11.780  18.856  0.00  0.00    +0.009 A 
ATOM     35  C   UNL     1      -6.323 -10.211  17.926  0.00  0.00    +0.162 A 
ATOM     36  C   UNL     1      -5.405 -11.717  19.577  0.00  0.00    +0.050 A 
ATOM     37  C   UNL     1      -6.461 -10.932  19.111  0.00  0.00    +0.162 A 
BRANCH  35   5
ATOM      5  O   UNL     1      -7.348  -9.442  17.461  0.00  0.00    -0.491 OA
ATOM     39  C   UNL     1      -8.090  -9.951  16.354  0.00  0.00    +0.277 C 
ENDBRANCH  35   5
BRANCH  37   6
ATOM      6  O   UNL     1      -7.619 -10.877  19.825  0.00  0.00    -0.491 OA
ATOM     40  C   UNL     1      -8.559 -11.931  19.619  0.00  0.00    +0.277 C 
ENDBRANCH  37   6
ENDBRANCH  26  29
ENDBRANCH   8  26
ENDBRANCH  20  23
ENDBRANCH  15  20
TORSDOF 10
ENDMDL
MODEL 3
REMARK VINA RESULT:      -7.0      4.867      9.228
REMARK  Name = 45361391
REMARK  16 active torsions:
REMARK  status: ('A' for Active; 'I' for Inactive)
REMARK    1  A    between atoms: O_1  and  C_12
REMARK    2  A    between atoms: O_4  and  C_32
REMARK    3  A    between atoms: O_4  and  C_38
REMARK    4  A    between atoms: O_5  and  C_35
REMARK    5  A    between atoms: O_5  and  C_39
REMARK    6  A    between atoms: O_6  and  C_37
REMARK    7  A    between atoms: O_6  and  C_40
REMARK    8  A    between atoms: N_7  and  C_16
REMARK    9  A    between atoms: N_8  and  C_26
REMARK   10  A    between atoms: C_9  and  C_19
REMARK   11  A    between atoms: C_11  and  C_21
REMARK   12  A    between atoms: C_15  and  C_20
REMARK   13  A    between atoms: C_20  and  C_22
REMARK   14  A    between atoms: C_20  and  C_23
REMARK   15  A    between atoms: C_24  and  C_25
REMARK   16  A    between atoms: C_26  and  C_29
REMARK                            x       y       z     vdW  Elec       q    Type
REMARK                         _______ _______ _______ _____ _____    ______ ____
ROOT
ATOM      9  C   UNL     1     -10.133  -8.858   9.546  0.00  0.00    -0.027 C 
ATOM     10  C   UNL     1      -9.369  -7.528   9.244  0.00  0.00    +0.028 C 
ATOM     11  C   UNL     1     -10.371  -6.379   8.864  0.00  0.00    +0.012 C 
ATOM     12  C   UNL     1      -8.207  -7.761   8.236  0.00  0.00    +0.122 C 
ATOM     13  C   UNL     1      -9.130  -9.933  10.025  0.00  0.00    +0.007 C 
ATOM     14  C   UNL     1     -11.143  -8.612  10.691  0.00  0.00    +0.009 C 
ATOM     15  C   UNL     1      -7.265  -8.909   8.670  0.00  0.00    +0.029 C 
ATOM     16  C   UNL     1     -11.426  -6.190   9.990  0.00  0.00    +0.076 C 
ATOM     17  C   UNL     1      -8.014 -10.193   9.023  0.00  0.00    +0.007 C 
ATOM     18  C   UNL     1     -12.126  -7.489  10.391  0.00  0.00    +0.023 C 
ATOM     19  C   UNL     1     -10.892  -9.401   8.307  0.00  0.00    +0.011 C 
ATOM     21  C   UNL     1      -9.686  -5.031   8.583  0.00  0.00    +0.010 C 
ENDROOT
BRANCH  16   7
ATOM      3  O   UNL     1     -12.172  -3.847  11.473  0.00  0.00    -0.270 OA
ATOM      7  N   UNL     1     -12.436  -5.220   9.623  0.00  0.00    -0.308 N 
ATOM     24  C   UNL     1     -12.723  -4.117  10.409  0.00  0.00    +0.244 C 
ATOM     41  H   UNL     1     -12.895  -5.357   8.729  0.00  0.00    +0.149 HD
BRANCH  24  25
ATOM     25  C   UNL     1     -13.804  -3.230   9.906  0.00  0.00    +0.037 A 
ATOM     27  C   UNL     1     -14.797  -2.780  10.775  0.00  0.00    +0.016 A 
ATOM     28  C   UNL     1     -13.825  -2.850   8.564  0.00  0.00    +0.016 A 
ATOM     30  C   UNL     1     -15.813  -1.949  10.302  0.00  0.00    +0.046 A 
ATOM     31  C   UNL     1     -14.841  -2.020   8.091  0.00  0.00    +0.046 A 
ATOM     32  C   UNL     1     -15.835  -1.569   8.960  0.00  0.00    +0.120 A 
BRANCH  32   4
ATOM      4  O   UNL     1     -16.825  -0.758   8.498  0.00  0.00    -0.495 OA
ATOM     38  C   UNL     1     -16.471   0.192   7.495  0.00  0.00    +0.277 C 
ENDBRANCH  32   4
ENDBRANCH  24  25
ENDBRANCH  16   7
BRANCH  12   1
ATOM      1  O   UNL     1      -7.403  -6.583   8.152  0.00  0.00    -0.391 OA
ATOM     42  H   UNL     1      -7.958  -5.861   7.815  0.00  0.00    +0.210 HD
ENDBRANCH  12   1
BRANCH  15  20
ATOM     20  C   UNL     1      -6.206  -9.210   7.602  0.00  0.00    +0.077 C 
ATOM     22  C   UNL     1      -6.800 -10.087   6.505  0.00  0.00    +0.017 C 
BRANCH  20  23
ATOM      2  O   UNL     1      -4.537 -10.946   7.859  0.00  0.00    -0.276 OA
ATOM      8  N   UNL     1      -4.477  -9.127   9.298  0.00  0.00    -0.311 N 
ATOM     23  C   UNL     1      -4.991  -9.871   8.246  0.00  0.00    +0.216 C 
ATOM     43  H   UNL     1      -4.877  -8.222   9.522  0.00  0.00    +0.149 HD
BRANCH   8  26
ATOM     26  C   UNL     1      -3.327  -9.549  10.065  0.00  0.00    +0.139 C 
BRANCH  26  29
ATOM     29  C   UNL     1      -3.701  -9.945  11.464  0.00  0.00    -0.027 A 
ATOM     33  C   UNL     1      -2.719 -10.396  12.347  0.00  0.00    +0.054 A 
ATOM     34  C   UNL     1      -5.030  -9.862  11.882  0.00  0.00    +0.009 A 
ATOM     35  C   UNL     1      -3.067 -10.764  13.647  0.00  0.00    +0.162 A 
ATOM     36  C   UNL     1      -5.376 -10.229  13.182  0.00  0.00    +0.050 A 
ATOM     37  C   UNL     1      -4.395 -10.680  14.065  0.00  0.00    +0.162 A 
BRANCH  35   5
ATOM      5  O   UNL     1      -2.099 -11.202  14.500  0.00  0.00    -0.491 OA
ATOM     39  C   UNL     1      -1.375 -10.209  15.224  0.00  0.00    +0.277 C 
ENDBRANCH  35   5
BRANCH  37   6
ATOM      6  O   UNL     1      -4.746 -11.038  15.331  0.00  0.00    -0.491 OA
ATOM     40  C   UNL     1      -5.173  -9.994  16.204  0.00  0.00    +0.277 C 
ENDBRANCH  37   6
ENDBRANCH  26  29
ENDBRANCH   8  26
ENDBRANCH  20  23
ENDBRANCH  15  20
TORSDOF 10
ENDMDL
MODEL 4
REMARK VINA RESULT:      -7.0      1.650      2.355
REMARK  Name = 45361391
REMARK  16 active torsions:
REMARK  status: ('A' for Active; 'I' for Inactive)
REMARK    1  A    between atoms: O_1  and  C_12
REMARK    2  A    between atoms: O_4  and  C_32
REMARK    3  A    between atoms: O_4  and  C_38
REMARK    4  A    between atoms: O_5  and  C_35
REMARK    5  A    between atoms: O_5  and  C_39
REMARK    6  A    between atoms: O_6  and  C_37
REMARK    7  A    between atoms: O_6  and  C_40
REMARK    8  A    between atoms: N_7  and  C_16
REMARK    9  A    between atoms: N_8  and  C_26
REMARK   10  A    between atoms: C_9  and  C_19
REMARK   11  A    between atoms: C_11  and  C_21
REMARK   12  A    between atoms: C_15  and  C_20
REMARK   13  A    between atoms: C_20  and  C_22
REMARK   14  A    between atoms: C_20  and  C_23
REMARK   15  A    between atoms: C_24  and  C_25
REMARK   16  A    between atoms: C_26  and  C_29
REMARK                            x       y       z     vdW  Elec       q    Type
REMARK                         _______ _______ _______ _____ _____    ______ ____
ROOT
ATOM      9  C   UNL     1      -5.034 -11.269  17.353  0.00  0.00    -0.027 C 
ATOM     10  C   UNL     1      -6.022 -10.503  16.412  0.00  0.00    +0.028 C 
ATOM     11  C   UNL     1      -7.488 -10.558  16.975  0.00  0.00    +0.012 C 
ATOM     12  C   UNL     1      -5.857 -10.957  14.932  0.00  0.00    +0.122 C 
ATOM     13  C   UNL     1      -3.588 -11.099  16.831  0.00  0.00    +0.007 C 
ATOM     14  C   UNL     1      -5.100 -10.647  18.767  0.00  0.00    +0.009 C 
ATOM     15  C   UNL     1      -4.389 -10.884  14.448  0.00  0.00    +0.029 C 
ATOM     16  C   UNL     1      -7.528  -9.998  18.424  0.00  0.00    +0.076 C 
ATOM     17  C   UNL     1      -3.414 -11.580  15.397  0.00  0.00    +0.007 C 
ATOM     18  C   UNL     1      -6.504 -10.647  19.356  0.00  0.00    +0.023 C 
ATOM     19  C   UNL     1      -5.356 -12.782  17.447  0.00  0.00    +0.011 C 
ATOM     21  C   UNL     1      -8.508  -9.798  16.111  0.00  0.00    +0.010 C 
ENDROOT
BRANCH  16   7
ATOM      3  O   UNL     1      -8.681 -12.409  19.475  0.00  0.00    -0.270 OA
ATOM      7  N   UNL     1      -8.842 -10.141  19.018  0.00  0.00    -0.308 N 
ATOM     24  C   UNL     1      -9.308 -11.353  19.499  0.00  0.00    +0.244 C 
ATOM     41  H   UNL     1      -9.393  -9.295  19.115  0.00  0.00    +0.149 HD
BRANCH  24  25
ATOM     25  C   UNL     1     -10.685 -11.339  20.056  0.00  0.00    +0.037 A 
ATOM     27  C   UNL     1     -11.407 -10.146  20.102  0.00  0.00    +0.016 A 
ATOM     28  C   UNL     1     -11.256 -12.518  20.534  0.00  0.00    +0.016 A 
ATOM     30  C   UNL     1     -12.698 -10.133  20.627  0.00  0.00    +0.046 A 
ATOM     31  C   UNL     1     -12.548 -12.505  21.059  0.00  0.00    +0.046 A 
ATOM     32  C   UNL     1     -13.270 -11.312  21.106  0.00  0.00    +0.120 A 
BRANCH  32   4
ATOM      4  O   UNL     1     -14.530 -11.300  21.618  0.00  0.00    -0.495 OA
ATOM     38  C   UNL     1     -15.372 -10.211  21.244  0.00  0.00    +0.277 C 
ENDBRANCH  32   4
ENDBRANCH  24  25
ENDBRANCH  16   7
BRANCH  12   1
ATOM      1  O   UNL     1      -6.611 -10.093  14.081  0.00  0.00    -0.391 OA
ATOM     42  H   UNL     1      -6.051  -9.334  13.847  0.00  0.00    +0.210 HD
ENDBRANCH  12   1
BRANCH  15  20
ATOM     20  C   UNL     1      -4.228 -11.458  13.036  0.00  0.00    +0.077 C 
ATOM     22  C   UNL     1      -3.197 -12.581  13.038  0.00  0.00    +0.017 C 
BRANCH  20  23
ATOM      2  O   UNL     1      -2.673 -10.128  11.740  0.00  0.00    -0.276 OA
ATOM      8  N   UNL     1      -4.935  -9.631  11.609  0.00  0.00    -0.311 N 
ATOM     23  C   UNL     1      -3.839 -10.346  12.065  0.00  0.00    +0.216 C 
ATOM     43  H   UNL     1      -5.872  -9.907  11.884  0.00  0.00    +0.149 HD
BRANCH   8  26
ATOM     26  C   UNL     1      -4.818  -8.528  10.682  0.00  0.00    +0.139 C 
BRANCH  26  29
ATOM     29  C   UNL     1      -5.508  -8.814   9.380  0.00  0.00    -0.027 A 
ATOM     33  C   UNL     1      -4.918  -9.672   8.452  0.00  0.00    +0.054 A 
ATOM     34  C   UNL     1      -6.740  -8.223   9.098  0.00  0.00    +0.009 A 
ATOM     35  C   UNL     1      -5.560  -9.938   7.242  0.00  0.00    +0.162 A 
ATOM     36  C   UNL     1      -7.381  -8.489   7.888  0.00  0.00    +0.050 A 
ATOM     37  C   UNL     1      -6.791  -9.347   6.960  0.00  0.00    +0.162 A 
BRANCH  35   5
ATOM      5  O   UNL     1      -4.973 -10.778   6.343  0.00  0.00    -0.491 OA
ATOM     39  C   UNL     1      -4.468 -12.014   6.846  0.00  0.00    +0.277 C 
ENDBRANCH  35   5
BRANCH  37   6
ATOM      6  O   UNL     1      -7.426  -9.598   5.781  0.00  0.00    -0.491 OA
ATOM     40  C   UNL     1      -7.432  -8.550   4.813  0.00  0.00    +0.277 C 
ENDBRANCH  37   6
ENDBRANCH  26  29
ENDBRANCH   8  26
ENDBRANCH  20  23
ENDBRANCH  15  20
TORSDOF 10
ENDMDL
MODEL 5
REMARK VINA RESULT:      -6.9      4.082     11.936
REMARK  Name = 45361391
REMARK  16 active torsions:
REMARK  status: ('A' for Active; 'I' for Inactive)
REMARK    1  A    between atoms: O_1  and  C_12
REMARK    2  A    between atoms: O_4  and  C_32
REMARK    3  A    between atoms: O_4  and  C_38
REMARK    4  A    between atoms: O_5  and  C_35
REMARK    5  A    between atoms: O_5  and  C_39
REMARK    6  A    between atoms: O_6  and  C_37
REMARK    7  A    between atoms: O_6  and  C_40
REMARK    8  A    between atoms: N_7  and  C_16
REMARK    9  A    between atoms: N_8  and  C_26
REMARK   10  A    between atoms: C_9  and  C_19
REMARK   11  A    between atoms: C_11  and  C_21
REMARK   12  A    between atoms: C_15  and  C_20
REMARK   13  A    between atoms: C_20  and  C_22
REMARK   14  A    between atoms: C_20  and  C_23
REMARK   15  A    between atoms: C_24  and  C_25
REMARK   16  A    between atoms: C_26  and  C_29
REMARK                            x       y       z     vdW  Elec       q    Type
REMARK                         _______ _______ _______ _____ _____    ______ ____
ROOT
ATOM      9  C   UNL     1     -12.274  -4.257  10.467  0.00  0.00    -0.027 C 
ATOM     10  C   UNL     1     -11.764  -5.688  10.838  0.00  0.00    +0.028 C 
ATOM     11  C   UNL     1     -11.341  -6.484   9.551  0.00  0.00    +0.012 C 
ATOM     12  C   UNL     1     -12.768  -6.420  11.776  0.00  0.00    +0.122 C 
ATOM     13  C   UNL     1     -12.574  -3.464  11.760  0.00  0.00    +0.007 C 
ATOM     14  C   UNL     1     -11.159  -3.506   9.702  0.00  0.00    +0.009 C 
ATOM     15  C   UNL     1     -13.144  -5.576  13.017  0.00  0.00    +0.029 C 
ATOM     16  C   UNL     1     -10.273  -5.685   8.752  0.00  0.00    +0.076 C 
ATOM     17  C   UNL     1     -13.587  -4.157  12.661  0.00  0.00    +0.007 C 
ATOM     18  C   UNL     1     -10.688  -4.243   8.456  0.00  0.00    +0.023 C 
ATOM     19  C   UNL     1     -13.556  -4.291   9.595  0.00  0.00    +0.011 C 
ATOM     21  C   UNL     1     -10.800  -7.892   9.847  0.00  0.00    +0.010 C 
ENDROOT
BRANCH  16   7
ATOM      3  O   UNL     1      -7.692  -6.648   7.944  0.00  0.00    -0.270 OA
ATOM      7  N   UNL     1      -9.945  -6.333   7.498  0.00  0.00    -0.308 N 
ATOM     24  C   UNL     1      -8.663  -6.764   7.202  0.00  0.00    +0.244 C 
ATOM     41  H   UNL     1     -10.714  -6.505   6.860  0.00  0.00    +0.149 HD
BRANCH  24  25
ATOM     25  C   UNL     1      -8.485  -7.387   5.865  0.00  0.00    +0.037 A 
ATOM     27  C   UNL     1      -9.407  -7.134   4.850  0.00  0.00    +0.016 A 
ATOM     28  C   UNL     1      -7.397  -8.226   5.626  0.00  0.00    +0.016 A 
ATOM     30  C   UNL     1      -9.242  -7.721   3.596  0.00  0.00    +0.046 A 
ATOM     31  C   UNL     1      -7.232  -8.813   4.373  0.00  0.00    +0.046 A 
ATOM     32  C   UNL     1      -8.154  -8.561   3.356  0.00  0.00    +0.120 A 
BRANCH  32   4
ATOM      4  O   UNL     1      -7.991  -9.133   2.133  0.00  0.00    -0.495 OA
ATOM     38  C   UNL     1      -8.606  -8.480   1.023  0.00  0.00    +0.277 C 
ENDBRANCH  32   4
ENDBRANCH  24  25
ENDBRANCH  16   7
BRANCH  12   1
ATOM      1  O   UNL     1     -12.174  -7.623  12.265  0.00  0.00    -0.391 OA
ATOM     42  H   UNL     1     -12.549  -7.811  13.142  0.00  0.00    +0.210 HD
ENDBRANCH  12   1
BRANCH  15  20
ATOM     20  C   UNL     1     -14.231  -6.257  13.857  0.00  0.00    +0.077 C 
ATOM     22  C   UNL     1     -15.485  -5.390  13.896  0.00  0.00    +0.017 C 
BRANCH  20  23
ATOM      2  O   UNL     1     -14.445  -6.744  16.220  0.00  0.00    -0.276 OA
ATOM      8  N   UNL     1     -12.318  -6.524  15.320  0.00  0.00    -0.311 N 
ATOM     23  C   UNL     1     -13.703  -6.536  15.262  0.00  0.00    +0.216 C 
ATOM     43  H   UNL     1     -11.775  -6.397  14.473  0.00  0.00    +0.149 HD
BRANCH   8  26
ATOM     26  C   UNL     1     -11.586  -6.761  16.544  0.00  0.00    +0.139 C 
BRANCH  26  29
ATOM     29  C   UNL     1     -10.451  -7.723  16.341  0.00  0.00    -0.027 A 
ATOM     33  C   UNL     1     -10.200  -8.247  15.073  0.00  0.00    +0.054 A 
ATOM     34  C   UNL     1      -9.647  -8.092  17.420  0.00  0.00    +0.009 A 
ATOM     35  C   UNL     1      -9.145  -9.141  14.884  0.00  0.00    +0.162 A 
ATOM     36  C   UNL     1      -8.593  -8.985  17.231  0.00  0.00    +0.050 A 
ATOM     37  C   UNL     1      -8.341  -9.510  15.962  0.00  0.00    +0.162 A 
BRANCH  35   5
ATOM      5  O   UNL     1      -8.910  -9.647  13.641  0.00  0.00    -0.491 OA
ATOM     39  C   UNL     1      -9.979 -10.356  13.016  0.00  0.00    +0.277 C 
ENDBRANCH  35   5
BRANCH  37   6
ATOM      6  O   UNL     1      -7.310 -10.383  15.791  0.00  0.00    -0.491 OA
ATOM     40  C   UNL     1      -7.530 -11.733  16.196  0.00  0.00    +0.277 C 
ENDBRANCH  37   6
ENDBRANCH  26  29
ENDBRANCH   8  26
ENDBRANCH  20  23
ENDBRANCH  15  20
TORSDOF 10
ENDMDL
MODEL 6
REMARK VINA RESULT:      -6.8      4.860     10.471
REMARK  Name = 45361391
REMARK  16 active torsions:
REMARK  status: ('A' for Active; 'I' for Inactive)
REMARK    1  A    between atoms: O_1  and  C_12
REMARK    2  A    between atoms: O_4  and  C_32
REMARK    3  A    between atoms: O_4  and  C_38
REMARK    4  A    between atoms: O_5  and  C_35
REMARK    5  A    between atoms: O_5  and  C_39
REMARK    6  A    between atoms: O_6  and  C_37
REMARK    7  A    between atoms: O_6  and  C_40
REMARK    8  A    between atoms: N_7  and  C_16
REMARK    9  A    between atoms: N_8  and  C_26
REMARK   10  A    between atoms: C_9  and  C_19
REMARK   11  A    between atoms: C_11  and  C_21
REMARK   12  A    between atoms: C_15  and  C_20
REMARK   13  A    between atoms: C_20  and  C_22
REMARK   14  A    between atoms: C_20  and  C_23
REMARK   15  A    between atoms: C_24  and  C_25
REMARK   16  A    between atoms: C_26  and  C_29
REMARK                            x       y       z     vdW  Elec       q    Type
REMARK                         _______ _______ _______ _____ _____    ______ ____
ROOT
ATOM      9  C   UNL     1      -5.853 -11.365   6.267  0.00  0.00    -0.027 C 
ATOM     10  C   UNL     1      -5.950  -9.906   6.821  0.00  0.00    +0.028 C 
ATOM     11  C   UNL     1      -5.803  -9.890   8.385  0.00  0.00    +0.012 C 
ATOM     12  C   UNL     1      -7.202  -9.172   6.260  0.00  0.00    +0.122 C 
ATOM     13  C   UNL     1      -5.887 -11.334   4.721  0.00  0.00    +0.007 C 
ATOM     14  C   UNL     1      -4.499 -11.978   6.695  0.00  0.00    +0.009 C 
ATOM     15  C   UNL     1      -7.285  -9.234   4.716  0.00  0.00    +0.029 C 
ATOM     16  C   UNL     1      -4.473 -10.575   8.808  0.00  0.00    +0.076 C 
ATOM     17  C   UNL     1      -7.131 -10.652   4.168  0.00  0.00    +0.007 C 
ATOM     18  C   UNL     1      -4.287 -11.966   8.202  0.00  0.00    +0.023 C 
ATOM     19  C   UNL     1      -7.005 -12.271   6.772  0.00  0.00    +0.011 C 
ATOM     21  C   UNL     1      -5.861  -8.479   8.995  0.00  0.00    +0.010 C 
ENDROOT
BRANCH  16   7
ATOM      3  O   UNL     1      -2.399  -9.461  10.451  0.00  0.00    -0.270 OA
ATOM      7  N   UNL     1      -4.359 -10.683  10.248  0.00  0.00    -0.308 N 
ATOM     24  C   UNL     1      -3.316 -10.107  10.953  0.00  0.00    +0.244 C 
ATOM     41  H   UNL     1      -5.113 -11.162  10.730  0.00  0.00    +0.149 HD
BRANCH  24  25
ATOM     25  C   UNL     1      -3.329 -10.330  12.421  0.00  0.00    +0.037 A 
ATOM     27  C   UNL     1      -2.127 -10.418  13.124  0.00  0.00    +0.016 A 
ATOM     28  C   UNL     1      -4.542 -10.455  13.097  0.00  0.00    +0.016 A 
ATOM     30  C   UNL     1      -2.139 -10.630  14.502  0.00  0.00    +0.046 A 
ATOM     31  C   UNL     1      -4.555 -10.667  14.475  0.00  0.00    +0.046 A 
ATOM     32  C   UNL     1      -3.353 -10.755  15.178  0.00  0.00    +0.120 A 
BRANCH  32   4
ATOM      4  O   UNL     1      -3.366 -10.961  16.523  0.00  0.00    -0.495 OA
ATOM     38  C   UNL     1      -4.584 -10.683  17.212  0.00  0.00    +0.277 C 
ENDBRANCH  32   4
ENDBRANCH  24  25
ENDBRANCH  16   7
BRANCH  12   1
ATOM      1  O   UNL     1      -7.142  -7.788   6.610  0.00  0.00    -0.391 OA
ATOM     42  H   UNL     1      -6.856  -7.290   5.827  0.00  0.00    +0.210 HD
ENDBRANCH  12   1
BRANCH  15  20
ATOM     20  C   UNL     1      -8.590  -8.621   4.193  0.00  0.00    +0.077 C 
ATOM     22  C   UNL     1      -9.772  -9.516   4.550  0.00  0.00    +0.017 C 
BRANCH  20  23
ATOM      2  O   UNL     1      -7.459  -8.030   2.135  0.00  0.00    -0.276 OA
ATOM      8  N   UNL     1      -9.687  -8.667   2.033  0.00  0.00    -0.311 N 
ATOM     23  C   UNL     1      -8.493  -8.402   2.686  0.00  0.00    +0.216 C 
ATOM     43  H   UNL     1     -10.483  -9.021   2.553  0.00  0.00    +0.149 HD
BRANCH   8  26
ATOM     26  C   UNL     1      -9.843  -8.529   0.603  0.00  0.00    +0.139 C 
BRANCH  26  29
ATOM     29  C   UNL     1     -10.569  -7.267   0.236  0.00  0.00    -0.027 A 
ATOM     33  C   UNL     1     -11.110  -7.120  -1.041  0.00  0.00    +0.054 A 
ATOM     34  C   UNL     1     -10.704  -6.242   1.173  0.00  0.00    +0.009 A 
ATOM     35  C   UNL     1     -11.785  -5.947  -1.382  0.00  0.00    +0.162 A 
ATOM     36  C   UNL     1     -11.379  -5.070   0.832  0.00  0.00    +0.050 A 
ATOM     37  C   UNL     1     -11.920  -4.923  -0.445  0.00  0.00    +0.162 A 
BRANCH  35   5
ATOM      5  O   UNL     1     -12.310  -5.816  -2.632  0.00  0.00    -0.491 OA
ATOM     39  C   UNL     1     -11.652  -6.515  -3.688  0.00  0.00    +0.277 C 
ENDBRANCH  35   5
BRANCH  37   6
ATOM      6  O   UNL     1     -12.575  -3.773  -0.767  0.00  0.00    -0.491 OA
ATOM     40  C   UNL     1     -12.084  -2.565  -0.190  0.00  0.00    +0.277 C 
ENDBRANCH  37   6
ENDBRANCH  26  29
ENDBRANCH   8  26
ENDBRANCH  20  23
ENDBRANCH  15  20
TORSDOF 10
ENDMDL
MODEL 7
REMARK VINA RESULT:      -6.6     19.355     25.084
REMARK  Name = 45361391
REMARK  16 active torsions:
REMARK  status: ('A' for Active; 'I' for Inactive)
REMARK    1  A    between atoms: O_1  and  C_12
REMARK    2  A    between atoms: O_4  and  C_32
REMARK    3  A    between atoms: O_4  and  C_38
REMARK    4  A    between atoms: O_5  and  C_35
REMARK    5  A    between atoms: O_5  and  C_39
REMARK    6  A    between atoms: O_6  and  C_37
REMARK    7  A    between atoms: O_6  and  C_40
REMARK    8  A    between atoms: N_7  and  C_16
REMARK    9  A    between atoms: N_8  and  C_26
REMARK   10  A    between atoms: C_9  and  C_19
REMARK   11  A    between atoms: C_11  and  C_21
REMARK   12  A    between atoms: C_15  and  C_20
REMARK   13  A    between atoms: C_20  and  C_22
REMARK   14  A    between atoms: C_20  and  C_23
REMARK   15  A    between atoms: C_24  and  C_25
REMARK   16  A    between atoms: C_26  and  C_29
REMARK                            x       y       z     vdW  Elec       q    Type
REMARK                         _______ _______ _______ _____ _____    ______ ____
ROOT
ATOM      9  C   UNL     1     -14.872   2.017  31.277  0.00  0.00    -0.027 C 
ATOM     10  C   UNL     1     -16.250   2.744  31.138  0.00  0.00    +0.028 C 
ATOM     11  C   UNL     1     -16.627   2.945  29.626  0.00  0.00    +0.012 C 
ATOM     12  C   UNL     1     -16.302   4.028  32.015  0.00  0.00    +0.122 C 
ATOM     13  C   UNL     1     -14.585   1.735  32.770  0.00  0.00    +0.007 C 
ATOM     14  C   UNL     1     -14.942   0.657  30.545  0.00  0.00    +0.009 C 
ATOM     15  C   UNL     1     -15.913   3.757  33.488  0.00  0.00    +0.029 C 
ATOM     16  C   UNL     1     -16.622   1.579  28.884  0.00  0.00    +0.076 C 
ATOM     17  C   UNL     1     -14.596   2.994  33.626  0.00  0.00    +0.007 C 
ATOM     18  C   UNL     1     -15.330   0.785  29.080  0.00  0.00    +0.023 C 
ATOM     19  C   UNL     1     -13.700   2.849  30.694  0.00  0.00    +0.011 C 
ATOM     21  C   UNL     1     -17.988   3.629  29.416  0.00  0.00    +0.010 C 
ENDROOT
BRANCH  16   7
ATOM      3  O   UNL     1     -18.237  -0.103  27.208  0.00  0.00    -0.270 OA
ATOM      7  N   UNL     1     -16.851   1.739  27.463  0.00  0.00    -0.308 N 
ATOM     24  C   UNL     1     -17.651   0.870  26.740  0.00  0.00    +0.244 C 
ATOM     41  H   UNL     1     -16.436   2.553  27.023  0.00  0.00    +0.149 HD
BRANCH  24  25
ATOM     25  C   UNL     1     -17.764   1.156  25.286  0.00  0.00    +0.037 A 
ATOM     27  C   UNL     1     -18.270   0.186  24.422  0.00  0.00    +0.016 A 
ATOM     28  C   UNL     1     -17.362   2.395  24.786  0.00  0.00    +0.016 A 
ATOM     30  C   UNL     1     -18.374   0.454  23.058  0.00  0.00    +0.046 A 
ATOM     31  C   UNL     1     -17.466   2.663  23.422  0.00  0.00    +0.046 A 
ATOM     32  C   UNL     1     -17.972   1.692  22.556  0.00  0.00    +0.120 A 
BRANCH  32   4
ATOM      4  O   UNL     1     -18.074   1.954  21.225  0.00  0.00    -0.495 OA
ATOM     38  C   UNL     1     -18.695   3.182  20.851  0.00  0.00    +0.277 C 
ENDBRANCH  32   4
ENDBRANCH  24  25
ENDBRANCH  16   7
BRANCH  12   1
ATOM      1  O   UNL     1     -17.635   4.540  32.033  0.00  0.00    -0.391 OA
ATOM     42  H   UNL     1     -17.611   5.433  32.417  0.00  0.00    +0.210 HD
ENDBRANCH  12   1
BRANCH  15  20
ATOM     20  C   UNL     1     -15.843   5.053  34.304  0.00  0.00    +0.077 C 
ATOM     22  C   UNL     1     -17.148   5.269  35.062  0.00  0.00    +0.017 C 
BRANCH  20  23
ATOM      2  O   UNL     1     -16.392   7.024  33.008  0.00  0.00    -0.276 OA
ATOM      8  N   UNL     1     -14.192   6.290  33.033  0.00  0.00    -0.311 N 
ATOM     23  C   UNL     1     -15.532   6.230  33.384  0.00  0.00    +0.216 C 
ATOM     43  H   UNL     1     -13.533   5.627  33.428  0.00  0.00    +0.149 HD
BRANCH   8  26
ATOM     26  C   UNL     1     -13.655   7.316  32.168  0.00  0.00    +0.139 C 
BRANCH  26  29
ATOM     29  C   UNL     1     -12.637   8.166  32.870  0.00  0.00    -0.027 A 
ATOM     33  C   UNL     1     -12.695   8.322  34.255  0.00  0.00    +0.054 A 
ATOM     34  C   UNL     1     -11.632   8.800  32.139  0.00  0.00    +0.009 A 
ATOM     35  C   UNL     1     -11.749   9.113  34.908  0.00  0.00    +0.162 A 
ATOM     36  C   UNL     1     -10.686   9.589  32.792  0.00  0.00    +0.050 A 
ATOM     37  C   UNL     1     -10.744   9.746  34.177  0.00  0.00    +0.162 A 
BRANCH  35   5
ATOM      5  O   UNL     1     -11.816   9.257  36.262  0.00  0.00    -0.491 OA
ATOM     39  C   UNL     1     -11.503   8.111  37.052  0.00  0.00    +0.277 C 
ENDBRANCH  35   5
BRANCH  37   6
ATOM      6  O   UNL     1      -9.816  10.521  34.803  0.00  0.00    -0.491 OA
ATOM     40  C   UNL     1      -8.555   9.918  35.090  0.00  0.00    +0.277 C 
ENDBRANCH  37   6
ENDBRANCH  26  29
ENDBRANCH   8  26
ENDBRANCH  20  23
ENDBRANCH  15  20
TORSDOF 10
ENDMDL
MODEL 8
REMARK VINA RESULT:      -6.5     25.083     30.151
REMARK  Name = 45361391
REMARK  16 active torsions:
REMARK  status: ('A' for Active; 'I' for Inactive)
REMARK    1  A    between atoms: O_1  and  C_12
REMARK    2  A    between atoms: O_4  and  C_32
REMARK    3  A    between atoms: O_4  and  C_38
REMARK    4  A    between atoms: O_5  and  C_35
REMARK    5  A    between atoms: O_5  and  C_39
REMARK    6  A    between atoms: O_6  and  C_37
REMARK    7  A    between atoms: O_6  and  C_40
REMARK    8  A    between atoms: N_7  and  C_16
REMARK    9  A    between atoms: N_8  and  C_26
REMARK   10  A    between atoms: C_9  and  C_19
REMARK   11  A    between atoms: C_11  and  C_21
REMARK   12  A    between atoms: C_15  and  C_20
REMARK   13  A    between atoms: C_20  and  C_22
REMARK   14  A    between atoms: C_20  and  C_23
REMARK   15  A    between atoms: C_24  and  C_25
REMARK   16  A    between atoms: C_26  and  C_29
REMARK                            x       y       z     vdW  Elec       q    Type
REMARK                         _______ _______ _______ _____ _____    ______ ____
ROOT
ATOM      9  C   UNL     1      12.296   8.970   3.823  0.00  0.00    -0.027 C 
ATOM     10  C   UNL     1      12.623   8.343   5.219  0.00  0.00    +0.028 C 
ATOM     11  C   UNL     1      14.111   7.842   5.273  0.00  0.00    +0.012 C 
ATOM     12  C   UNL     1      11.550   7.294   5.631  0.00  0.00    +0.122 C 
ATOM     13  C   UNL     1      10.864   9.553   3.842  0.00  0.00    +0.007 C 
ATOM     14  C   UNL     1      13.276  10.135   3.552  0.00  0.00    +0.009 C 
ATOM     15  C   UNL     1      10.110   7.854   5.548  0.00  0.00    +0.029 C 
ATOM     16  C   UNL     1      15.083   9.004   4.926  0.00  0.00    +0.076 C 
ATOM     17  C   UNL     1       9.807   8.520   4.206  0.00  0.00    +0.007 C 
ATOM     18  C   UNL     1      14.738   9.715   3.618  0.00  0.00    +0.023 C 
ATOM     19  C   UNL     1      12.400   7.939   2.670  0.00  0.00    +0.011 C 
ATOM     21  C   UNL     1      14.510   7.238   6.630  0.00  0.00    +0.010 C 
ENDROOT
BRANCH  16   7
ATOM      3  O   UNL     1      17.327  10.093   6.349  0.00  0.00    -0.270 OA
ATOM      7  N   UNL     1      16.457   8.551   4.851  0.00  0.00    -0.308 N 
ATOM     24  C   UNL     1      17.473   9.145   5.582  0.00  0.00    +0.244 C 
ATOM     41  H   UNL     1      16.638   7.737   4.273  0.00  0.00    +0.149 HD
BRANCH  24  25
ATOM     25  C   UNL     1      18.831   8.580   5.375  0.00  0.00    +0.037 A 
ATOM     27  C   UNL     1      19.725   8.505   6.443  0.00  0.00    +0.016 A 
ATOM     28  C   UNL     1      19.213   8.127   4.112  0.00  0.00    +0.016 A 
ATOM     30  C   UNL     1      21.000   7.977   6.249  0.00  0.00    +0.046 A 
ATOM     31  C   UNL     1      20.489   7.599   3.918  0.00  0.00    +0.046 A 
ATOM     32  C   UNL     1      21.384   7.524   4.986  0.00  0.00    +0.120 A 
BRANCH  32   4
ATOM      4  O   UNL     1      22.628   7.008   4.796  0.00  0.00    -0.495 OA
ATOM     38  C   UNL     1      23.720   7.926   4.806  0.00  0.00    +0.277 C 
ENDBRANCH  32   4
ENDBRANCH  24  25
ENDBRANCH  16   7
BRANCH  12   1
ATOM      1  O   UNL     1      11.759   6.906   6.990  0.00  0.00    -0.391 OA
ATOM     42  H   UNL     1      11.467   7.636   7.561  0.00  0.00    +0.210 HD
ENDBRANCH  12   1
BRANCH  15  20
ATOM     20  C   UNL     1       9.063   6.770   5.830  0.00  0.00    +0.077 C 
ATOM     22  C   UNL     1       8.553   6.890   7.262  0.00  0.00    +0.017 C 
BRANCH  20  23
ATOM      2  O   UNL     1       9.829   4.559   6.455  0.00  0.00    -0.276 OA
ATOM      8  N   UNL     1       9.979   5.197   4.230  0.00  0.00    -0.311 N 
ATOM     23  C   UNL     1       9.659   5.390   5.566  0.00  0.00    +0.216 C 
ATOM     43  H   UNL     1       9.759   5.913   3.547  0.00  0.00    +0.149 HD
BRANCH   8  26
ATOM     26  C   UNL     1      10.559   3.969   3.735  0.00  0.00    +0.139 C 
BRANCH  26  29
ATOM     29  C   UNL     1      11.046   4.108   2.322  0.00  0.00    -0.027 A 
ATOM     33  C   UNL     1      12.360   3.766   2.001  0.00  0.00    +0.054 A 
ATOM     34  C   UNL     1      10.185   4.579   1.330  0.00  0.00    +0.009 A 
ATOM     35  C   UNL     1      12.813   3.896   0.688  0.00  0.00    +0.162 A 
ATOM     36  C   UNL     1      10.639   4.708   0.017  0.00  0.00    +0.050 A 
ATOM     37  C   UNL     1      11.952   4.366  -0.304  0.00  0.00    +0.162 A 
BRANCH  35   5
ATOM      5  O   UNL     1      14.098   3.558   0.386  0.00  0.00    -0.491 OA
ATOM     39  C   UNL     1      15.031   3.530   1.465  0.00  0.00    +0.277 C 
ENDBRANCH  35   5
BRANCH  37   6
ATOM      6  O   UNL     1      12.384   4.498  -1.589  0.00  0.00    -0.491 OA
ATOM     40  C   UNL     1      11.498   4.061  -2.618  0.00  0.00    +0.277 C 
ENDBRANCH  37   6
ENDBRANCH  26  29
ENDBRANCH   8  26
ENDBRANCH  20  23
ENDBRANCH  15  20
TORSDOF 10
ENDMDL
MODEL 9
REMARK VINA RESULT:      -6.5      4.894      9.517
REMARK  Name = 45361391
REMARK  16 active torsions:
REMARK  status: ('A' for Active; 'I' for Inactive)
REMARK    1  A    between atoms: O_1  and  C_12
REMARK    2  A    between atoms: O_4  and  C_32
REMARK    3  A    between atoms: O_4  and  C_38
REMARK    4  A    between atoms: O_5  and  C_35
REMARK    5  A    between atoms: O_5  and  C_39
REMARK    6  A    between atoms: O_6  and  C_37
REMARK    7  A    between atoms: O_6  and  C_40
REMARK    8  A    between atoms: N_7  and  C_16
REMARK    9  A    between atoms: N_8  and  C_26
REMARK   10  A    between atoms: C_9  and  C_19
REMARK   11  A    between atoms: C_11  and  C_21
REMARK   12  A    between atoms: C_15  and  C_20
REMARK   13  A    between atoms: C_20  and  C_22
REMARK   14  A    between atoms: C_20  and  C_23
REMARK   15  A    between atoms: C_24  and  C_25
REMARK   16  A    between atoms: C_26  and  C_29
REMARK                            x       y       z     vdW  Elec       q    Type
REMARK                         _______ _______ _______ _____ _____    ______ ____
ROOT
ATOM      9  C   UNL     1     -10.657  -8.943   7.705  0.00  0.00    -0.027 C 
ATOM     10  C   UNL     1      -9.731  -7.762   8.148  0.00  0.00    +0.028 C 
ATOM     11  C   UNL     1     -10.479  -6.386   8.024  0.00  0.00    +0.012 C 
ATOM     12  C   UNL     1      -8.346  -7.836   7.442  0.00  0.00    +0.122 C 
ATOM     13  C   UNL     1      -9.931 -10.287   7.947  0.00  0.00    +0.007 C 
ATOM     14  C   UNL     1     -11.936  -8.935   8.575  0.00  0.00    +0.009 C 
ATOM     15  C   UNL     1      -7.672  -9.219   7.600  0.00  0.00    +0.029 C 
ATOM     16  C   UNL     1     -11.800  -6.416   8.844  0.00  0.00    +0.076 C 
ATOM     17  C   UNL     1      -8.594 -10.378   7.224  0.00  0.00    +0.007 C 
ATOM     18  C   UNL     1     -12.691  -7.615   8.517  0.00  0.00    +0.023 C 
ATOM     19  C   UNL     1     -11.058  -8.854   6.210  0.00  0.00    +0.011 C 
ATOM     21  C   UNL     1      -9.634  -5.182   8.473  0.00  0.00    +0.010 C 
ENDROOT
BRANCH  16   7
ATOM      3  O   UNL     1     -13.166  -4.926  10.883  0.00  0.00    -0.270 OA
ATOM      7  N   UNL     1     -12.574  -5.206   8.658  0.00  0.00    -0.308 N 
ATOM     24  C   UNL     1     -13.198  -4.559   9.711  0.00  0.00    +0.244 C 
ATOM     41  H   UNL     1     -12.599  -4.820   7.721  0.00  0.00    +0.149 HD
BRANCH  24  25
ATOM     25  C   UNL     1     -13.975  -3.344   9.352  0.00  0.00    +0.037 A 
ATOM     27  C   UNL     1     -14.902  -2.819  10.252  0.00  0.00    +0.016 A 
ATOM     28  C   UNL     1     -13.778  -2.731   8.115  0.00  0.00    +0.016 A 
ATOM     30  C   UNL     1     -15.633  -1.680   9.913  0.00  0.00    +0.046 A 
ATOM     31  C   UNL     1     -14.509  -1.593   7.777  0.00  0.00    +0.046 A 
ATOM     32  C   UNL     1     -15.437  -1.067   8.676  0.00  0.00    +0.120 A 
BRANCH  32   4
ATOM      4  O   UNL     1     -16.149   0.044   8.345  0.00  0.00    -0.495 OA
ATOM     38  C   UNL     1     -15.459   1.292   8.378  0.00  0.00    +0.277 C 
ENDBRANCH  32   4
ENDBRANCH  24  25
ENDBRANCH  16   7
BRANCH  12   1
ATOM      1  O   UNL     1      -7.460  -6.881   8.027  0.00  0.00    -0.391 OA
ATOM     42  H   UNL     1      -7.552  -6.935   8.993  0.00  0.00    +0.210 HD
ENDBRANCH  12   1
BRANCH  15  20
ATOM     20  C   UNL     1      -6.374  -9.313   6.789  0.00  0.00    +0.077 C 
ATOM     22  C   UNL     1      -6.563 -10.249   5.600  0.00  0.00    +0.017 C 
BRANCH  20  23
ATOM      2  O   UNL     1      -4.752 -10.910   7.617  0.00  0.00    -0.276 OA
ATOM      8  N   UNL     1      -4.817  -8.797   8.572  0.00  0.00    -0.311 N 
ATOM     23  C   UNL     1      -5.232  -9.781   7.688  0.00  0.00    +0.216 C 
ATOM     43  H   UNL     1      -5.229  -7.871   8.532  0.00  0.00    +0.149 HD
BRANCH   8  26
ATOM     26  C   UNL     1      -3.750  -9.004   9.526  0.00  0.00    +0.139 C 
BRANCH  26  29
ATOM     29  C   UNL     1      -4.268  -9.475  10.854  0.00  0.00    -0.027 A 
ATOM     33  C   UNL     1      -5.602  -9.257  11.199  0.00  0.00    +0.054 A 
ATOM     34  C   UNL     1      -3.417 -10.132  11.743  0.00  0.00    +0.009 A 
ATOM     35  C   UNL     1      -6.084  -9.695  12.433  0.00  0.00    +0.162 A 
ATOM     36  C   UNL     1      -3.899 -10.570  12.976  0.00  0.00    +0.050 A 
ATOM     37  C   UNL     1      -5.233 -10.351  13.321  0.00  0.00    +0.162 A 
BRANCH  35   5
ATOM      5  O   UNL     1      -7.389  -9.476  12.758  0.00  0.00    -0.491 OA
ATOM     39  C   UNL     1      -8.351  -9.634  11.717  0.00  0.00    +0.277 C 
ENDBRANCH  35   5
BRANCH  37   6
ATOM      6  O   UNL     1      -5.691 -10.782  14.529  0.00  0.00    -0.491 OA
ATOM     40  C   UNL     1      -5.314 -12.097  14.934  0.00  0.00    +0.277 C 
ENDBRANCH  37   6
ENDBRANCH  26  29
ENDBRANCH   8  26
ENDBRANCH  20  23
ENDBRANCH  15  20
TORSDOF 10
ENDMDL
MODEL 10
REMARK VINA RESULT:      -6.4     30.686     33.706
REMARK  Name = 45361391
REMARK  16 active torsions:
REMARK  status: ('A' for Active; 'I' for Inactive)
REMARK    1  A    between atoms: O_1  and  C_12
REMARK    2  A    between atoms: O_4  and  C_32
REMARK    3  A    between atoms: O_4  and  C_38
REMARK    4  A    between atoms: O_5  and  C_35
REMARK    5  A    between atoms: O_5  and  C_39
REMARK    6  A    between atoms: O_6  and  C_37
REMARK    7  A    between atoms: O_6  and  C_40
REMARK    8  A    between atoms: N_7  and  C_16
REMARK    9  A    between atoms: N_8  and  C_26
REMARK   10  A    between atoms: C_9  and  C_19
REMARK   11  A    between atoms: C_11  and  C_21
REMARK   12  A    between atoms: C_15  and  C_20
REMARK   13  A    between atoms: C_20  and  C_22
REMARK   14  A    between atoms: C_20  and  C_23
REMARK   15  A    between atoms: C_24  and  C_25
REMARK   16  A    between atoms: C_26  and  C_29
REMARK                            x       y       z     vdW  Elec       q    Type
REMARK                         _______ _______ _______ _____ _____    ______ ____
ROOT
ATOM      9  C   UNL     1      21.109   7.476  22.369  0.00  0.00    -0.027 C 
ATOM     10  C   UNL     1      20.757   6.606  21.119  0.00  0.00    +0.028 C 
ATOM     11  C   UNL     1      19.203   6.420  20.984  0.00  0.00    +0.012 C 
ATOM     12  C   UNL     1      21.591   5.292  21.093  0.00  0.00    +0.122 C 
ATOM     13  C   UNL     1      22.633   7.733  22.408  0.00  0.00    +0.007 C 
ATOM     14  C   UNL     1      20.403   8.847  22.244  0.00  0.00    +0.009 C 
ATOM     15  C   UNL     1      23.110   5.550  21.237  0.00  0.00    +0.029 C 
ATOM     16  C   UNL     1      18.498   7.805  20.934  0.00  0.00    +0.076 C 
ATOM     17  C   UNL     1      23.452   6.450  22.424  0.00  0.00    +0.007 C 
ATOM     18  C   UNL     1      18.894   8.730  22.084  0.00  0.00    +0.023 C 
ATOM     19  C   UNL     1      20.683   6.804  23.700  0.00  0.00    +0.011 C 
ATOM     21  C   UNL     1      18.784   5.595  19.756  0.00  0.00    +0.010 C 
ENDROOT
BRANCH  16   7
ATOM      3  O   UNL     1      16.600   9.779  20.070  0.00  0.00    -0.270 OA
ATOM      7  N   UNL     1      17.056   7.673  20.928  0.00  0.00    -0.308 N 
ATOM     24  C   UNL     1      16.222   8.688  20.489  0.00  0.00    +0.244 C 
ATOM     41  H   UNL     1      16.678   6.776  21.215  0.00  0.00    +0.149 HD
BRANCH  24  25
ATOM     25  C   UNL     1      14.766   8.407  20.570  0.00  0.00    +0.037 A 
ATOM     27  C   UNL     1      14.163   8.199  21.811  0.00  0.00    +0.016 A 
ATOM     28  C   UNL     1      14.001   8.348  19.405  0.00  0.00    +0.016 A 
ATOM     30  C   UNL     1      12.797   7.932  21.886  0.00  0.00    +0.046 A 
ATOM     31  C   UNL     1      12.634   8.082  19.481  0.00  0.00    +0.046 A 
ATOM     32  C   UNL     1      12.031   7.873  20.722  0.00  0.00    +0.120 A 
BRANCH  32   4
ATOM      4  O   UNL     1      10.698   7.614  20.795  0.00  0.00    -0.495 OA
ATOM     38  C   UNL     1      10.160   7.338  22.087  0.00  0.00    +0.277 C 
ENDBRANCH  32   4
ENDBRANCH  24  25
ENDBRANCH  16   7
BRANCH  12   1
ATOM      1  O   UNL     1      21.406   4.632  19.840  0.00  0.00    -0.391 OA
ATOM     42  H   UNL     1      21.164   5.302  19.178  0.00  0.00    +0.210 HD
ENDBRANCH  12   1
BRANCH  15  20
ATOM     20  C   UNL     1      23.900   4.240  21.342  0.00  0.00    +0.077 C 
ATOM     22  C   UNL     1      24.642   4.178  22.673  0.00  0.00    +0.017 C 
BRANCH  20  23
ATOM      2  O   UNL     1      24.709   3.291  19.265  0.00  0.00    -0.276 OA
ATOM      8  N   UNL     1      25.903   5.031  20.229  0.00  0.00    -0.311 N 
ATOM     23  C   UNL     1      24.861   4.118  20.163  0.00  0.00    +0.216 C 
ATOM     43  H   UNL     1      25.929   5.717  20.976  0.00  0.00    +0.149 HD
BRANCH   8  26
ATOM     26  C   UNL     1      26.941   5.107  19.227  0.00  0.00    +0.139 C 
BRANCH  26  29
ATOM     29  C   UNL     1      26.754   6.285  18.315  0.00  0.00    -0.027 A 
ATOM     33  C   UNL     1      26.155   7.450  18.794  0.00  0.00    +0.054 A 
ATOM     34  C   UNL     1      27.180   6.216  16.988  0.00  0.00    +0.009 A 
ATOM     35  C   UNL     1      25.982   8.545  17.947  0.00  0.00    +0.162 A 
ATOM     36  C   UNL     1      27.008   7.310  16.141  0.00  0.00    +0.050 A 
ATOM     37  C   UNL     1      26.409   8.475  16.621  0.00  0.00    +0.162 A 
BRANCH  35   5
ATOM      5  O   UNL     1      25.396   9.678  18.427  0.00  0.00    -0.491 OA
ATOM     39  C   UNL     1      25.004   9.672  19.799  0.00  0.00    +0.277 C 
ENDBRANCH  35   5
BRANCH  37   6
ATOM      6  O   UNL     1      26.243   9.537  15.784  0.00  0.00    -0.491 OA
ATOM     40  C   UNL     1      26.938   9.494  14.538  0.00  0.00    +0.277 C 
ENDBRANCH  37   6
ENDBRANCH  26  29
ENDBRANCH   8  26
ENDBRANCH  20  23
ENDBRANCH  15  20
TORSDOF 10
ENDMDL
