MODEL 1
REMARK VINA RESULT:      -7.8      0.000      0.000
REMARK  Name = 11941845
REMARK  5 active torsions:
REMARK  status: ('A' for Active; 'I' for Inactive)
REMARK    1  A    between atoms: N_8  and  C_15
REMARK    2  A    between atoms: N_9  and  C_16
REMARK    3  A    between atoms: N_10  and  C_21
REMARK    4  A    between atoms: C_22  and  C_26
REMARK    5  A    between atoms: C_28  and  C_32
REMARK                            x       y       z     vdW  Elec       q    Type
REMARK                         _______ _______ _______ _____ _____    ______ ____
ROOT
ATOM      5  O   UNL     1      21.839   8.325  21.594  0.00  0.00    -0.370 OA
ATOM      6  O   UNL     1      20.842   6.219  23.670  0.00  0.00    -0.370 OA
ATOM     13  C   UNL     1      21.357   6.114  22.331  0.00  0.00    +0.171 C 
ATOM     14  C   UNL     1      20.830   7.303  21.552  0.00  0.00    +0.171 C 
ATOM     15  C   UNL     1      22.855   6.308  22.330  0.00  0.00    +0.130 C 
ATOM     16  C   UNL     1      19.608   7.739  22.328  0.00  0.00    +0.131 C 
ATOM     17  C   UNL     1      22.996   7.817  22.276  0.00  0.00    +0.185 C 
ATOM     18  C   UNL     1      19.976   7.360  23.752  0.00  0.00    +0.185 C 
ENDROOT
BRANCH  15   8
ATOM      8  N   UNL     1      23.431   5.708  21.147  0.00  0.00    -0.306 N 
ATOM     11  N   UNL     1      23.703   3.627  22.198  0.00  0.00    -0.214 NA
ATOM     12  N   UNL     1      24.370   3.953  19.904  0.00  0.00    -0.223 NA
ATOM     19  C   UNL     1      23.847   4.391  21.081  0.00  0.00    +0.216 A 
ATOM     22  C   UNL     1      24.119   2.348  22.098  0.00  0.00    +0.083 A 
ATOM     23  C   UNL     1      24.765   2.664  19.875  0.00  0.00    +0.116 A 
ATOM     24  C   UNL     1      24.663   1.806  20.951  0.00  0.00    +0.049 A 
ATOM     35  H   UNL     1      23.494   6.253  20.293  0.00  0.00    +0.149 HD
BRANCH  22  26
ATOM      1  S   UNL     1      22.728   2.000  24.411  0.00  0.00    -0.095 S 
ATOM     26  C   UNL     1      23.955   1.566  23.294  0.00  0.00    +0.038 A 
ATOM     31  C   UNL     1      24.663   0.459  23.718  0.00  0.00    +0.017 A 
ATOM     33  C   UNL     1      24.193  -0.034  24.969  0.00  0.00    +0.008 A 
ATOM     34  C   UNL     1      23.143   0.710  25.458  0.00  0.00    +0.046 A 
ENDBRANCH  22  26
ENDBRANCH  15   8
BRANCH  16   9
ATOM      7  O   UNL     1      17.359   8.855  20.950  0.00  0.00    -0.252 OA
ATOM      9  N   UNL     1      18.429   7.032  21.887  0.00  0.00    -0.292 N 
ATOM     10  N   UNL     1      16.371   6.725  20.915  0.00  0.00    -0.269 N 
ATOM     20  C   UNL     1      17.370   7.656  21.216  0.00  0.00    +0.304 C 
ATOM     36  H   UNL     1      18.394   6.026  22.011  0.00  0.00    +0.151 HD
ATOM     37  H   UNL     1      16.537   5.767  21.210  0.00  0.00    +0.156 HD
BRANCH  10  21
ATOM     21  C   UNL     1      15.145   6.954  20.246  0.00  0.00    +0.035 A 
ATOM     25  C   UNL     1      13.966   6.966  20.974  0.00  0.00    +0.035 A 
ATOM     27  C   UNL     1      15.150   7.163  18.877  0.00  0.00    +0.023 A 
ATOM     28  C   UNL     1      12.759   7.194  20.314  0.00  0.00    +0.057 A 
ATOM     29  C   UNL     1      13.942   7.390  18.217  0.00  0.00    +0.002 A 
ATOM     30  C   UNL     1      12.746   7.405  18.936  0.00  0.00    +0.012 A 
BRANCH  28  32
ATOM      2  F   UNL     1      11.605   7.721  22.343  0.00  0.00    -0.166 F 
ATOM      3  F   UNL     1      10.497   7.950  20.492  0.00  0.00    -0.166 F 
ATOM      4  F   UNL     1      10.952   5.961  21.245  0.00  0.00    -0.166 F 
ATOM     32  C   UNL     1      11.481   7.209  21.082  0.00  0.00    +0.417 C 
ENDBRANCH  28  32
ENDBRANCH  10  21
ENDBRANCH  16   9
TORSDOF 5
ENDMDL
MODEL 2
REMARK VINA RESULT:      -7.7     32.544     35.551
REMARK  Name = 11941845
REMARK  5 active torsions:
REMARK  status: ('A' for Active; 'I' for Inactive)
REMARK    1  A    between atoms: N_8  and  C_15
REMARK    2  A    between atoms: N_9  and  C_16
REMARK    3  A    between atoms: N_10  and  C_21
REMARK    4  A    between atoms: C_22  and  C_26
REMARK    5  A    between atoms: C_28  and  C_32
REMARK                            x       y       z     vdW  Elec       q    Type
REMARK                         _______ _______ _______ _____ _____    ______ ____
ROOT
ATOM      5  O   UNL     1     -16.529   3.542  22.726  0.00  0.00    -0.370 OA
ATOM      6  O   UNL     1     -16.568   6.046  24.586  0.00  0.00    -0.370 OA
ATOM     13  C   UNL     1     -15.534   5.408  23.818  0.00  0.00    +0.171 C 
ATOM     14  C   UNL     1     -15.777   3.912  23.893  0.00  0.00    +0.171 C 
ATOM     15  C   UNL     1     -15.694   5.734  22.352  0.00  0.00    +0.130 C 
ATOM     16  C   UNL     1     -16.617   3.738  25.137  0.00  0.00    +0.131 C 
ATOM     17  C   UNL     1     -16.696   4.694  21.887  0.00  0.00    +0.185 C 
ATOM     18  C   UNL     1     -17.396   5.040  25.188  0.00  0.00    +0.185 C 
ENDROOT
BRANCH  15   8
ATOM      8  N   UNL     1     -14.434   5.558  21.665  0.00  0.00    -0.306 N 
ATOM     11  N   UNL     1     -13.923   7.846  21.783  0.00  0.00    -0.214 NA
ATOM     12  N   UNL     1     -12.409   6.291  20.735  0.00  0.00    -0.223 NA
ATOM     19  C   UNL     1     -13.563   6.596  21.386  0.00  0.00    +0.216 A 
ATOM     22  C   UNL     1     -13.050   8.833  21.495  0.00  0.00    +0.083 A 
ATOM     23  C   UNL     1     -11.582   7.326  20.479  0.00  0.00    +0.116 A 
ATOM     24  C   UNL     1     -11.853   8.630  20.839  0.00  0.00    +0.049 A 
ATOM     35  H   UNL     1     -14.131   4.624  21.412  0.00  0.00    +0.149 HD
BRANCH  22  26
ATOM      1  S   UNL     1     -15.081  10.637  21.664  0.00  0.00    -0.095 S 
ATOM     26  C   UNL     1     -13.459  10.143  21.926  0.00  0.00    +0.038 A 
ATOM     31  C   UNL     1     -12.720  11.127  22.551  0.00  0.00    +0.017 A 
ATOM     33  C   UNL     1     -13.493  12.295  22.817  0.00  0.00    +0.008 A 
ATOM     34  C   UNL     1     -14.794  12.163  22.387  0.00  0.00    +0.046 A 
ENDBRANCH  22  26
ENDBRANCH  15   8
BRANCH  16   9
ATOM      7  O   UNL     1     -17.068   1.937  27.318  0.00  0.00    -0.252 OA
ATOM      9  N   UNL     1     -15.790   3.578  26.309  0.00  0.00    -0.292 N 
ATOM     10  N   UNL     1     -15.107   2.736  28.334  0.00  0.00    -0.269 N 
ATOM     20  C   UNL     1     -16.082   2.670  27.334  0.00  0.00    +0.304 C 
ATOM     36  H   UNL     1     -14.921   4.101  26.362  0.00  0.00    +0.151 HD
ATOM     37  H   UNL     1     -14.353   3.403  28.192  0.00  0.00    +0.156 HD
BRANCH  10  21
ATOM     21  C   UNL     1     -15.040   1.985  29.531  0.00  0.00    +0.035 A 
ATOM     25  C   UNL     1     -14.974   2.648  30.746  0.00  0.00    +0.035 A 
ATOM     27  C   UNL     1     -15.043   0.601  29.463  0.00  0.00    +0.023 A 
ATOM     28  C   UNL     1     -14.910   1.906  31.925  0.00  0.00    +0.057 A 
ATOM     29  C   UNL     1     -14.978  -0.140  30.643  0.00  0.00    +0.002 A 
ATOM     30  C   UNL     1     -14.911   0.512  31.874  0.00  0.00    +0.012 A 
BRANCH  28  32
ATOM      2  F   UNL     1     -15.989   3.257  33.579  0.00  0.00    -0.166 F 
ATOM      3  F   UNL     1     -14.582   1.767  34.290  0.00  0.00    -0.166 F 
ATOM      4  F   UNL     1     -13.855   3.551  33.280  0.00  0.00    -0.166 F 
ATOM     32  C   UNL     1     -14.838   2.603  33.241  0.00  0.00    +0.417 C 
ENDBRANCH  28  32
ENDBRANCH  10  21
ENDBRANCH  16   9
TORSDOF 5
ENDMDL
MODEL 3
REMARK VINA RESULT:      -7.7     31.835     35.000
REMARK  Name = 11941845
REMARK  5 active torsions:
REMARK  status: ('A' for Active; 'I' for Inactive)
REMARK    1  A    between atoms: N_8  and  C_15
REMARK    2  A    between atoms: N_9  and  C_16
REMARK    3  A    between atoms: N_10  and  C_21
REMARK    4  A    between atoms: C_22  and  C_26
REMARK    5  A    between atoms: C_28  and  C_32
REMARK                            x       y       z     vdW  Elec       q    Type
REMARK                         _______ _______ _______ _____ _____    ______ ____
ROOT
ATOM      5  O   UNL     1     -18.308   5.349  24.141  0.00  0.00    -0.370 OA
ATOM      6  O   UNL     1     -16.151   3.112  24.423  0.00  0.00    -0.370 OA
ATOM     13  C   UNL     1     -16.388   4.344  25.125  0.00  0.00    +0.171 C 
ATOM     14  C   UNL     1     -16.872   5.357  24.105  0.00  0.00    +0.171 C 
ATOM     15  C   UNL     1     -17.554   4.191  26.073  0.00  0.00    +0.130 C 
ATOM     16  C   UNL     1     -16.376   4.814  22.783  0.00  0.00    +0.131 C 
ATOM     17  C   UNL     1     -18.749   4.459  25.178  0.00  0.00    +0.185 C 
ATOM     18  C   UNL     1     -16.392   3.314  23.022  0.00  0.00    +0.185 C 
ENDROOT
BRANCH  15   8
ATOM      8  N   UNL     1     -17.476   5.187  27.118  0.00  0.00    -0.306 N 
ATOM     11  N   UNL     1     -16.243   3.773  28.528  0.00  0.00    -0.214 NA
ATOM     12  N   UNL     1     -16.832   6.006  29.220  0.00  0.00    -0.223 NA
ATOM     19  C   UNL     1     -16.832   4.982  28.324  0.00  0.00    +0.216 A 
ATOM     22  C   UNL     1     -15.624   3.609  29.715  0.00  0.00    +0.083 A 
ATOM     23  C   UNL     1     -16.195   5.773  30.386  0.00  0.00    +0.116 A 
ATOM     24  C   UNL     1     -15.567   4.583  30.692  0.00  0.00    +0.049 A 
ATOM     35  H   UNL     1     -17.865   6.109  26.956  0.00  0.00    +0.149 HD
BRANCH  22  26
ATOM      1  S   UNL     1     -15.867   0.915  29.415  0.00  0.00    -0.095 S 
ATOM     26  C   UNL     1     -15.013   2.320  29.902  0.00  0.00    +0.038 A 
ATOM     31  C   UNL     1     -13.780   2.008  30.440  0.00  0.00    +0.017 A 
ATOM     33  C   UNL     1     -13.538   0.603  30.452  0.00  0.00    +0.008 A 
ATOM     34  C   UNL     1     -14.591  -0.108  29.922  0.00  0.00    +0.046 A 
ENDBRANCH  22  26
ENDBRANCH  15   8
BRANCH  16   9
ATOM      7  O   UNL     1     -15.671   7.117  21.233  0.00  0.00    -0.252 OA
ATOM      9  N   UNL     1     -15.043   5.282  22.493  0.00  0.00    -0.292 N 
ATOM     10  N   UNL     1     -13.405   6.630  21.611  0.00  0.00    -0.269 N 
ATOM     20  C   UNL     1     -14.783   6.423  21.723  0.00  0.00    +0.304 C 
ATOM     36  H   UNL     1     -14.257   4.801  22.920  0.00  0.00    +0.151 HD
ATOM     37  H   UNL     1     -12.803   5.958  22.079  0.00  0.00    +0.156 HD
BRANCH  10  21
ATOM     21  C   UNL     1     -12.737   7.669  20.921  0.00  0.00    +0.035 A 
ATOM     25  C   UNL     1     -12.113   7.391  19.715  0.00  0.00    +0.035 A 
ATOM     27  C   UNL     1     -12.723   8.944  21.463  0.00  0.00    +0.023 A 
ATOM     28  C   UNL     1     -11.457   8.415  19.034  0.00  0.00    +0.057 A 
ATOM     29  C   UNL     1     -12.066   9.968  20.782  0.00  0.00    +0.002 A 
ATOM     30  C   UNL     1     -11.433   9.704  19.566  0.00  0.00    +0.012 A 
BRANCH  28  32
ATOM      2  F   UNL     1     -11.576   8.342  16.645  0.00  0.00    -0.166 F 
ATOM      3  F   UNL     1      -9.670   8.899  17.519  0.00  0.00    -0.166 F 
ATOM      4  F   UNL     1     -10.357   6.839  17.635  0.00  0.00    -0.166 F 
ATOM     32  C   UNL     1     -10.780   8.133  17.735  0.00  0.00    +0.417 C 
ENDBRANCH  28  32
ENDBRANCH  10  21
ENDBRANCH  16   9
TORSDOF 5
ENDMDL
MODEL 4
REMARK VINA RESULT:      -7.5     19.859     23.756
REMARK  Name = 11941845
REMARK  5 active torsions:
REMARK  status: ('A' for Active; 'I' for Inactive)
REMARK    1  A    between atoms: N_8  and  C_15
REMARK    2  A    between atoms: N_9  and  C_16
REMARK    3  A    between atoms: N_10  and  C_21
REMARK    4  A    between atoms: C_22  and  C_26
REMARK    5  A    between atoms: C_28  and  C_32
REMARK                            x       y       z     vdW  Elec       q    Type
REMARK                         _______ _______ _______ _____ _____    ______ ____
ROOT
ATOM      5  O   UNL     1      12.482   6.179  -0.203  0.00  0.00    -0.370 OA
ATOM      6  O   UNL     1      12.501   3.141   0.510  0.00  0.00    -0.370 OA
ATOM     13  C   UNL     1      11.477   4.036   0.043  0.00  0.00    +0.171 C 
ATOM     14  C   UNL     1      11.714   5.377   0.709  0.00  0.00    +0.171 C 
ATOM     15  C   UNL     1      11.661   4.318  -1.430  0.00  0.00    +0.130 C 
ATOM     16  C   UNL     1      12.534   5.041   1.933  0.00  0.00    +0.131 C 
ATOM     17  C   UNL     1      12.666   5.454  -1.428  0.00  0.00    +0.185 C 
ATOM     18  C   UNL     1      13.317   3.824   1.474  0.00  0.00    +0.185 C 
ENDROOT
BRANCH  15   8
ATOM      8  N   UNL     1      10.410   4.755  -2.010  0.00  0.00    -0.306 N 
ATOM     11  N   UNL     1      10.942   3.857  -4.111  0.00  0.00    -0.214 NA
ATOM     12  N   UNL     1       8.848   4.992  -3.744  0.00  0.00    -0.223 NA
ATOM     19  C   UNL     1      10.057   4.528  -3.327  0.00  0.00    +0.216 A 
ATOM     22  C   UNL     1      10.565   3.653  -5.390  0.00  0.00    +0.083 A 
ATOM     23  C   UNL     1       8.535   4.753  -5.034  0.00  0.00    +0.116 A 
ATOM     24  C   UNL     1       9.361   4.083  -5.912  0.00  0.00    +0.049 A 
ATOM     35  H   UNL     1       9.721   5.209  -1.421  0.00  0.00    +0.149 HD
BRANCH  22  26
ATOM      1  S   UNL     1      10.991   2.169  -7.631  0.00  0.00    -0.095 S 
ATOM     26  C   UNL     1      11.522   2.942  -6.195  0.00  0.00    +0.038 A 
ATOM     31  C   UNL     1      12.877   2.769  -5.992  0.00  0.00    +0.017 A 
ATOM     33  C   UNL     1      13.481   1.995  -7.025  0.00  0.00    +0.008 A 
ATOM     34  C   UNL     1      12.570   1.605  -7.980  0.00  0.00    +0.046 A 
ENDBRANCH  22  26
ENDBRANCH  15   8
BRANCH  16   9
ATOM      7  O   UNL     1      11.718   6.829   4.016  0.00  0.00    -0.252 OA
ATOM      9  N   UNL     1      11.689   4.725   3.059  0.00  0.00    -0.292 N 
ATOM     10  N   UNL     1      10.511   5.072   5.000  0.00  0.00    -0.269 N 
ATOM     20  C   UNL     1      11.335   5.662   4.038  0.00  0.00    +0.304 C 
ATOM     36  H   UNL     1      11.278   3.798   3.109  0.00  0.00    +0.151 HD
ATOM     37  H   UNL     1      10.290   4.088   4.870  0.00  0.00    +0.156 HD
BRANCH  10  21
ATOM     21  C   UNL     1       9.943   5.678   6.145  0.00  0.00    +0.035 A 
ATOM     25  C   UNL     1       9.879   4.963   7.331  0.00  0.00    +0.035 A 
ATOM     27  C   UNL     1       9.464   6.975   6.058  0.00  0.00    +0.023 A 
ATOM     28  C   UNL     1       9.321   5.562   8.459  0.00  0.00    +0.057 A 
ATOM     29  C   UNL     1       8.904   7.573   7.187  0.00  0.00    +0.002 A 
ATOM     30  C   UNL     1       8.833   6.867   8.388  0.00  0.00    +0.012 A 
BRANCH  28  32
ATOM      2  F   UNL     1      10.290   5.052  10.586  0.00  0.00    -0.166 F 
ATOM      3  F   UNL     1       8.124   5.085  10.475  0.00  0.00    -0.166 F 
ATOM      4  F   UNL     1       9.233   3.455   9.557  0.00  0.00    -0.166 F 
ATOM     32  C   UNL     1       9.243   4.808   9.743  0.00  0.00    +0.417 C 
ENDBRANCH  28  32
ENDBRANCH  10  21
ENDBRANCH  16   9
TORSDOF 5
ENDMDL
MODEL 5
REMARK VINA RESULT:      -7.4     29.366     34.163
REMARK  Name = 11941845
REMARK  5 active torsions:
REMARK  status: ('A' for Active; 'I' for Inactive)
REMARK    1  A    between atoms: N_8  and  C_15
REMARK    2  A    between atoms: N_9  and  C_16
REMARK    3  A    between atoms: N_10  and  C_21
REMARK    4  A    between atoms: C_22  and  C_26
REMARK    5  A    between atoms: C_28  and  C_32
REMARK                            x       y       z     vdW  Elec       q    Type
REMARK                         _______ _______ _______ _____ _____    ______ ____
ROOT
ATOM      5  O   UNL     1      -9.301 -10.702  20.047  0.00  0.00    -0.370 OA
ATOM      6  O   UNL     1      -9.736 -12.219  17.355  0.00  0.00    -0.370 OA
ATOM     13  C   UNL     1      -9.301 -12.636  18.661  0.00  0.00    +0.171 C 
ATOM     14  C   UNL     1      -8.448 -11.518  19.229  0.00  0.00    +0.171 C 
ATOM     15  C   UNL     1     -10.478 -12.716  19.604  0.00  0.00    +0.130 C 
ATOM     16  C   UNL     1      -7.992 -10.748  18.011  0.00  0.00    +0.131 C 
ATOM     17  C   UNL     1     -10.611 -11.287  20.094  0.00  0.00    +0.185 C 
ATOM     18  C   UNL     1      -9.152 -10.943  17.051  0.00  0.00    +0.185 C 
ENDROOT
BRANCH  15   8
ATOM      8  N   UNL     1     -10.170 -13.598  20.708  0.00  0.00    -0.306 N 
ATOM     11  N   UNL     1     -12.163 -13.073  21.830  0.00  0.00    -0.214 NA
ATOM     12  N   UNL     1     -10.587 -14.636  22.769  0.00  0.00    -0.223 NA
ATOM     19  C   UNL     1     -10.998 -13.774  21.801  0.00  0.00    +0.216 A 
ATOM     22  C   UNL     1     -12.946 -13.269  22.911  0.00  0.00    +0.083 A 
ATOM     23  C   UNL     1     -11.419 -14.785  23.821  0.00  0.00    +0.116 A 
ATOM     24  C   UNL     1     -12.622 -14.121  23.948  0.00  0.00    +0.049 A 
ATOM     35  H   UNL     1      -9.330 -14.166  20.671  0.00  0.00    +0.149 HD
BRANCH  22  26
ATOM      1  S   UNL     1     -14.691 -11.768  21.460  0.00  0.00    -0.095 S 
ATOM     26  C   UNL     1     -14.169 -12.513  22.914  0.00  0.00    +0.038 A 
ATOM     31  C   UNL     1     -15.046 -12.274  23.954  0.00  0.00    +0.017 A 
ATOM     33  C   UNL     1     -16.153 -11.471  23.551  0.00  0.00    +0.008 A 
ATOM     34  C   UNL     1     -16.085 -11.127  22.220  0.00  0.00    +0.046 A 
ENDBRANCH  22  26
ENDBRANCH  15   8
BRANCH  16   9
ATOM      7  O   UNL     1      -6.015  -9.345  16.485  0.00  0.00    -0.252 OA
ATOM      9  N   UNL     1      -6.770 -11.295  17.473  0.00  0.00    -0.292 N 
ATOM     10  N   UNL     1      -4.769 -11.331  16.346  0.00  0.00    -0.269 N 
ATOM     20  C   UNL     1      -5.852 -10.538  16.734  0.00  0.00    +0.304 C 
ATOM     36  H   UNL     1      -6.532 -12.256  17.695  0.00  0.00    +0.151 HD
ATOM     37  H   UNL     1      -4.790 -12.305  16.636  0.00  0.00    +0.156 HD
BRANCH  10  21
ATOM     21  C   UNL     1      -3.636 -10.943  15.592  0.00  0.00    +0.035 A 
ATOM     25  C   UNL     1      -3.734 -10.865  14.212  0.00  0.00    +0.035 A 
ATOM     27  C   UNL     1      -2.453 -10.648  16.249  0.00  0.00    +0.023 A 
ATOM     28  C   UNL     1      -2.618 -10.481  13.469  0.00  0.00    +0.057 A 
ATOM     29  C   UNL     1      -1.337 -10.264  15.506  0.00  0.00    +0.002 A 
ATOM     30  C   UNL     1      -1.419 -10.181  14.115  0.00  0.00    +0.012 A 
BRANCH  28  32
ATOM      2  F   UNL     1      -1.726  -9.624  11.421  0.00  0.00    -0.166 F 
ATOM      3  F   UNL     1      -2.614 -11.602  11.356  0.00  0.00    -0.166 F 
ATOM      4  F   UNL     1      -3.884  -9.847  11.559  0.00  0.00    -0.166 F 
ATOM     32  C   UNL     1      -2.706 -10.392  11.983  0.00  0.00    +0.417 C 
ENDBRANCH  28  32
ENDBRANCH  10  21
ENDBRANCH  16   9
TORSDOF 5
ENDMDL
MODEL 6
REMARK VINA RESULT:      -7.3     18.885     22.278
REMARK  Name = 11941845
REMARK  5 active torsions:
REMARK  status: ('A' for Active; 'I' for Inactive)
REMARK    1  A    between atoms: N_8  and  C_15
REMARK    2  A    between atoms: N_9  and  C_16
REMARK    3  A    between atoms: N_10  and  C_21
REMARK    4  A    between atoms: C_22  and  C_26
REMARK    5  A    between atoms: C_28  and  C_32
REMARK                            x       y       z     vdW  Elec       q    Type
REMARK                         _______ _______ _______ _____ _____    ______ ____
ROOT
ATOM      5  O   UNL     1      12.824   2.781   0.572  0.00  0.00    -0.370 OA
ATOM      6  O   UNL     1      11.979   5.774   0.320  0.00  0.00    -0.370 OA
ATOM     13  C   UNL     1      13.235   5.125   0.583  0.00  0.00    +0.171 C 
ATOM     14  C   UNL     1      12.943   3.914   1.448  0.00  0.00    +0.171 C 
ATOM     15  C   UNL     1      13.799   4.540  -0.691  0.00  0.00    +0.130 C 
ATOM     16  C   UNL     1      11.608   4.229   2.084  0.00  0.00    +0.131 C 
ATOM     17  C   UNL     1      13.107   3.192  -0.773  0.00  0.00    +0.185 C 
ATOM     18  C   UNL     1      10.936   5.081   1.022  0.00  0.00    +0.185 C 
ENDROOT
BRANCH  15   8
ATOM      8  N   UNL     1      15.228   4.364  -0.565  0.00  0.00    -0.306 N 
ATOM     11  N   UNL     1      15.601   4.856  -2.829  0.00  0.00    -0.214 NA
ATOM     12  N   UNL     1      17.436   4.326  -1.358  0.00  0.00    -0.223 NA
ATOM     19  C   UNL     1      16.115   4.520  -1.615  0.00  0.00    +0.216 A 
ATOM     22  C   UNL     1      16.494   5.000  -3.830  0.00  0.00    +0.083 A 
ATOM     23  C   UNL     1      18.272   4.486  -2.404  0.00  0.00    +0.116 A 
ATOM     24  C   UNL     1      17.855   4.826  -3.675  0.00  0.00    +0.049 A 
ATOM     35  H   UNL     1      15.627   4.166   0.347  0.00  0.00    +0.149 HD
BRANCH  22  26
ATOM      1  S   UNL     1      16.577   6.681  -5.969  0.00  0.00    -0.095 S 
ATOM     26  C   UNL     1      15.922   5.354  -5.101  0.00  0.00    +0.038 A 
ATOM     31  C   UNL     1      14.871   4.769  -5.779  0.00  0.00    +0.017 A 
ATOM     33  C   UNL     1      14.604   5.417  -7.020  0.00  0.00    +0.008 A 
ATOM     34  C   UNL     1      15.458   6.472  -7.248  0.00  0.00    +0.046 A 
ENDBRANCH  22  26
ENDBRANCH  15   8
BRANCH  16   9
ATOM      7  O   UNL     1       9.624   4.663   4.104  0.00  0.00    -0.252 OA
ATOM      9  N   UNL     1      11.777   4.964   3.315  0.00  0.00    -0.292 N 
ATOM     10  N   UNL     1      11.203   5.883   5.340  0.00  0.00    -0.269 N 
ATOM     20  C   UNL     1      10.750   5.130   4.253  0.00  0.00    +0.304 C 
ATOM     36  H   UNL     1      12.699   5.322   3.542  0.00  0.00    +0.151 HD
ATOM     37  H   UNL     1      12.170   6.196   5.307  0.00  0.00    +0.156 HD
BRANCH  10  21
ATOM     21  C   UNL     1      10.477   6.267   6.492  0.00  0.00    +0.035 A 
ATOM     25  C   UNL     1      10.244   5.335   7.490  0.00  0.00    +0.035 A 
ATOM     27  C   UNL     1      10.017   7.569   6.600  0.00  0.00    +0.023 A 
ATOM     28  C   UNL     1       9.530   5.715   8.626  0.00  0.00    +0.057 A 
ATOM     29  C   UNL     1       9.302   7.949   7.736  0.00  0.00    +0.002 A 
ATOM     30  C   UNL     1       9.059   7.022   8.749  0.00  0.00    +0.012 A 
BRANCH  28  32
ATOM      2  F   UNL     1       8.127   4.972  10.416  0.00  0.00    -0.166 F 
ATOM      3  F   UNL     1       9.138   3.442   9.258  0.00  0.00    -0.166 F 
ATOM      4  F   UNL     1      10.271   4.685  10.637  0.00  0.00    -0.166 F 
ATOM     32  C   UNL     1       9.269   4.724   9.710  0.00  0.00    +0.417 C 
ENDBRANCH  28  32
ENDBRANCH  10  21
ENDBRANCH  16   9
TORSDOF 5
ENDMDL
MODEL 7
REMARK VINA RESULT:      -7.3      6.323     10.668
REMARK  Name = 11941845
REMARK  5 active torsions:
REMARK  status: ('A' for Active; 'I' for Inactive)
REMARK    1  A    between atoms: N_8  and  C_15
REMARK    2  A    between atoms: N_9  and  C_16
REMARK    3  A    between atoms: N_10  and  C_21
REMARK    4  A    between atoms: C_22  and  C_26
REMARK    5  A    between atoms: C_28  and  C_32
REMARK                            x       y       z     vdW  Elec       q    Type
REMARK                         _______ _______ _______ _____ _____    ______ ____
ROOT
ATOM      5  O   UNL     1      12.370  12.196  25.022  0.00  0.00    -0.370 OA
ATOM      6  O   UNL     1      12.527  13.245  22.087  0.00  0.00    -0.370 OA
ATOM     13  C   UNL     1      12.316  11.941  22.656  0.00  0.00    +0.171 C 
ATOM     14  C   UNL     1      13.188  11.845  23.894  0.00  0.00    +0.171 C 
ATOM     15  C   UNL     1      10.908  11.823  23.188  0.00  0.00    +0.130 C 
ATOM     16  C   UNL     1      14.257  12.891  23.673  0.00  0.00    +0.131 C 
ATOM     17  C   UNL     1      11.024  12.422  24.577  0.00  0.00    +0.185 C 
ATOM     18  C   UNL     1      13.523  13.938  22.854  0.00  0.00    +0.185 C 
ENDROOT
BRANCH  15   8
ATOM      8  N   UNL     1      10.525  10.431  23.272  0.00  0.00    -0.306 N 
ATOM     11  N   UNL     1      11.529   9.915  21.214  0.00  0.00    -0.214 NA
ATOM     12  N   UNL     1      10.412   8.216  22.509  0.00  0.00    -0.223 NA
ATOM     19  C   UNL     1      10.831   9.493  22.303  0.00  0.00    +0.216 A 
ATOM     22  C   UNL     1      11.810   8.974  20.290  0.00  0.00    +0.083 A 
ATOM     23  C   UNL     1      10.727   7.327  21.544  0.00  0.00    +0.116 A 
ATOM     24  C   UNL     1      11.431   7.651  20.403  0.00  0.00    +0.049 A 
ATOM     35  H   UNL     1      10.051  10.095  24.104  0.00  0.00    +0.149 HD
BRANCH  22  26
ATOM      1  S   UNL     1      12.221   8.775  17.607  0.00  0.00    -0.095 S 
ATOM     26  C   UNL     1      12.547   9.450  19.150  0.00  0.00    +0.038 A 
ATOM     31  C   UNL     1      13.530  10.417  19.088  0.00  0.00    +0.017 A 
ATOM     33  C   UNL     1      14.019  10.603  17.762  0.00  0.00    +0.008 A 
ATOM     34  C   UNL     1      13.393   9.775  16.858  0.00  0.00    +0.046 A 
ENDBRANCH  22  26
ENDBRANCH  15   8
BRANCH  16   9
ATOM      7  O   UNL     1      14.741  10.129  23.089  0.00  0.00    -0.252 OA
ATOM      9  N   UNL     1      15.377  12.348  22.944  0.00  0.00    -0.292 N 
ATOM     10  N   UNL     1      16.712  10.750  21.973  0.00  0.00    -0.269 N 
ATOM     20  C   UNL     1      15.540  10.978  22.700  0.00  0.00    +0.304 C 
ATOM     36  H   UNL     1      16.044  12.992  22.532  0.00  0.00    +0.151 HD
ATOM     37  H   UNL     1      17.264  11.568  21.730  0.00  0.00    +0.156 HD
BRANCH  10  21
ATOM     21  C   UNL     1      17.230   9.510  21.529  0.00  0.00    +0.035 A 
ATOM     25  C   UNL     1      16.438   8.685  20.747  0.00  0.00    +0.035 A 
ATOM     27  C   UNL     1      18.519   9.149  21.882  0.00  0.00    +0.023 A 
ATOM     28  C   UNL     1      16.949   7.464  20.307  0.00  0.00    +0.057 A 
ATOM     29  C   UNL     1      19.031   7.928  21.444  0.00  0.00    +0.002 A 
ATOM     30  C   UNL     1      18.246   7.085  20.656  0.00  0.00    +0.012 A 
BRANCH  28  32
ATOM      2  F   UNL     1      15.367   7.223  18.529  0.00  0.00    -0.166 F 
ATOM      3  F   UNL     1      16.834   5.642  18.763  0.00  0.00    -0.166 F 
ATOM      4  F   UNL     1      15.215   5.842  20.202  0.00  0.00    -0.166 F 
ATOM     32  C   UNL     1      16.111   6.563  19.466  0.00  0.00    +0.417 C 
ENDBRANCH  28  32
ENDBRANCH  10  21
ENDBRANCH  16   9
TORSDOF 5
ENDMDL
MODEL 8
REMARK VINA RESULT:      -7.3     18.805     24.061
REMARK  Name = 11941845
REMARK  5 active torsions:
REMARK  status: ('A' for Active; 'I' for Inactive)
REMARK    1  A    between atoms: N_8  and  C_15
REMARK    2  A    between atoms: N_9  and  C_16
REMARK    3  A    between atoms: N_10  and  C_21
REMARK    4  A    between atoms: C_22  and  C_26
REMARK    5  A    between atoms: C_28  and  C_32
REMARK                            x       y       z     vdW  Elec       q    Type
REMARK                         _______ _______ _______ _____ _____    ______ ____
ROOT
ATOM      5  O   UNL     1       5.704  13.534   4.716  0.00  0.00    -0.370 OA
ATOM      6  O   UNL     1       3.808  11.513   3.281  0.00  0.00    -0.370 OA
ATOM     13  C   UNL     1       3.942  11.936   4.649  0.00  0.00    +0.171 C 
ATOM     14  C   UNL     1       5.421  12.139   4.914  0.00  0.00    +0.171 C 
ATOM     15  C   UNL     1       3.342  13.310   4.834  0.00  0.00    +0.130 C 
ATOM     16  C   UNL     1       6.103  11.308   3.851  0.00  0.00    +0.131 C 
ATOM     17  C   UNL     1       4.481  14.227   4.429  0.00  0.00    +0.185 C 
ATOM     18  C   UNL     1       5.113  11.377   2.701  0.00  0.00    +0.185 C 
ENDROOT
BRANCH  15   8
ATOM      8  N   UNL     1       3.001  13.518   6.224  0.00  0.00    -0.306 N 
ATOM     11  N   UNL     1       1.151  12.079   6.101  0.00  0.00    -0.214 NA
ATOM     12  N   UNL     1       1.718  13.195   8.161  0.00  0.00    -0.223 NA
ATOM     19  C   UNL     1       1.925  12.913   6.847  0.00  0.00    +0.216 A 
ATOM     22  C   UNL     1       0.111  11.506   6.740  0.00  0.00    +0.083 A 
ATOM     23  C   UNL     1       0.660  12.587   8.737  0.00  0.00    +0.116 A 
ATOM     24  C   UNL     1      -0.186  11.725   8.071  0.00  0.00    +0.049 A 
ATOM     35  H   UNL     1       3.601  14.096   6.802  0.00  0.00    +0.149 HD
BRANCH  22  26
ATOM      1  S   UNL     1      -0.866  10.979   4.256  0.00  0.00    -0.095 S 
ATOM     26  C   UNL     1      -0.689  10.631   5.926  0.00  0.00    +0.038 A 
ATOM     31  C   UNL     1      -1.378   9.490   6.286  0.00  0.00    +0.017 A 
ATOM     33  C   UNL     1      -2.057   8.899   5.180  0.00  0.00    +0.008 A 
ATOM     34  C   UNL     1      -1.862   9.607   4.016  0.00  0.00    +0.046 A 
ENDBRANCH  22  26
ENDBRANCH  15   8
BRANCH  16   9
ATOM      7  O   UNL     1       8.600  10.040   4.452  0.00  0.00    -0.252 OA
ATOM      9  N   UNL     1       6.295   9.948   4.294  0.00  0.00    -0.292 N 
ATOM     10  N   UNL     1       7.432   8.072   4.976  0.00  0.00    -0.269 N 
ATOM     20  C   UNL     1       7.556   9.403   4.568  0.00  0.00    +0.304 C 
ATOM     36  H   UNL     1       5.475   9.379   4.478  0.00  0.00    +0.151 HD
ATOM     37  H   UNL     1       6.489   7.694   5.016  0.00  0.00    +0.156 HD
BRANCH  10  21
ATOM     21  C   UNL     1       8.465   7.177   5.342  0.00  0.00    +0.035 A 
ATOM     25  C   UNL     1       8.533   6.718   6.648  0.00  0.00    +0.035 A 
ATOM     27  C   UNL     1       9.385   6.777   4.388  0.00  0.00    +0.023 A 
ATOM     28  C   UNL     1       9.550   5.834   7.008  0.00  0.00    +0.057 A 
ATOM     29  C   UNL     1      10.402   5.893   4.748  0.00  0.00    +0.002 A 
ATOM     30  C   UNL     1      10.485   5.422   6.059  0.00  0.00    +0.012 A 
BRANCH  28  32
ATOM      2  F   UNL     1       9.450   3.981   8.519  0.00  0.00    -0.166 F 
ATOM      3  F   UNL     1      10.845   5.571   9.002  0.00  0.00    -0.166 F 
ATOM      4  F   UNL     1       8.707   5.897   9.230  0.00  0.00    -0.166 F 
ATOM     32  C   UNL     1       9.639   5.330   8.409  0.00  0.00    +0.417 C 
ENDBRANCH  28  32
ENDBRANCH  10  21
ENDBRANCH  16   9
TORSDOF 5
ENDMDL
MODEL 9
REMARK VINA RESULT:      -7.2     28.590     32.123
REMARK  Name = 11941845
REMARK  5 active torsions:
REMARK  status: ('A' for Active; 'I' for Inactive)
REMARK    1  A    between atoms: N_8  and  C_15
REMARK    2  A    between atoms: N_9  and  C_16
REMARK    3  A    between atoms: N_10  and  C_21
REMARK    4  A    between atoms: C_22  and  C_26
REMARK    5  A    between atoms: C_28  and  C_32
REMARK                            x       y       z     vdW  Elec       q    Type
REMARK                         _______ _______ _______ _____ _____    ______ ____
ROOT
ATOM      5  O   UNL     1      -5.672  -9.180  10.598  0.00  0.00    -0.370 OA
ATOM      6  O   UNL     1      -6.785 -12.021  11.249  0.00  0.00    -0.370 OA
ATOM     13  C   UNL     1      -5.459 -11.465  11.226  0.00  0.00    +0.171 C 
ATOM     14  C   UNL     1      -5.402 -10.488  10.068  0.00  0.00    +0.171 C 
ATOM     15  C   UNL     1      -5.231 -10.605  12.446  0.00  0.00    +0.130 C 
ATOM     16  C   UNL     1      -6.525 -10.929   9.158  0.00  0.00    +0.131 C 
ATOM     17  C   UNL     1      -5.810  -9.268  12.024  0.00  0.00    +0.185 C 
ATOM     18  C   UNL     1      -7.533 -11.501  10.140  0.00  0.00    +0.185 C 
ENDROOT
BRANCH  15   8
ATOM      8  N   UNL     1      -3.814 -10.479  12.705  0.00  0.00    -0.306 N 
ATOM     11  N   UNL     1      -4.100 -10.744  15.019  0.00  0.00    -0.214 NA
ATOM     12  N   UNL     1      -1.908 -10.415  14.072  0.00  0.00    -0.223 NA
ATOM     19  C   UNL     1      -3.258 -10.548  13.969  0.00  0.00    +0.216 A 
ATOM     22  C   UNL     1      -3.523 -10.807  16.237  0.00  0.00    +0.083 A 
ATOM     23  C   UNL     1      -1.399 -10.488  15.319  0.00  0.00    +0.116 A 
ATOM     24  C   UNL     1      -2.165 -10.684  16.449  0.00  0.00    +0.049 A 
ATOM     35  H   UNL     1      -3.172 -10.386  11.925  0.00  0.00    +0.149 HD
BRANCH  22  26
ATOM      1  S   UNL     1      -6.070 -10.513  17.150  0.00  0.00    -0.095 S 
ATOM     26  C   UNL     1      -4.439 -11.013  17.327  0.00  0.00    +0.038 A 
ATOM     31  C   UNL     1      -4.209 -11.580  18.565  0.00  0.00    +0.017 A 
ATOM     33  C   UNL     1      -5.383 -11.603  19.373  0.00  0.00    +0.008 A 
ATOM     34  C   UNL     1      -6.467 -11.054  18.726  0.00  0.00    +0.046 A 
ENDBRANCH  22  26
ENDBRANCH  15   8
BRANCH  16   9
ATOM      7  O   UNL     1      -4.622 -10.577   7.046  0.00  0.00    -0.252 OA
ATOM      9  N   UNL     1      -6.078 -11.934   8.224  0.00  0.00    -0.292 N 
ATOM     10  N   UNL     1      -4.901 -12.836   6.469  0.00  0.00    -0.269 N 
ATOM     20  C   UNL     1      -5.139 -11.678   7.216  0.00  0.00    +0.304 C 
ATOM     36  H   UNL     1      -6.408 -12.887   8.343  0.00  0.00    +0.151 HD
ATOM     37  H   UNL     1      -5.416 -13.668   6.742  0.00  0.00    +0.156 HD
BRANCH  10  21
ATOM     21  C   UNL     1      -4.024 -12.993   5.370  0.00  0.00    +0.035 A 
ATOM     25  C   UNL     1      -2.804 -13.622   5.560  0.00  0.00    +0.035 A 
ATOM     27  C   UNL     1      -4.405 -12.519   4.126  0.00  0.00    +0.023 A 
ATOM     28  C   UNL     1      -1.941 -13.779   4.475  0.00  0.00    +0.057 A 
ATOM     29  C   UNL     1      -3.542 -12.675   3.041  0.00  0.00    +0.002 A 
ATOM     30  C   UNL     1      -2.309 -13.306   3.216  0.00  0.00    +0.012 A 
BRANCH  28  32
ATOM      2  F   UNL     1       0.178 -14.404   3.556  0.00  0.00    -0.166 F 
ATOM      3  F   UNL     1       0.126 -13.918   5.670  0.00  0.00    -0.166 F 
ATOM      4  F   UNL     1      -0.751 -15.779   4.962  0.00  0.00    -0.166 F 
ATOM     32  C   UNL     1      -0.624 -14.453   4.661  0.00  0.00    +0.417 C 
ENDBRANCH  28  32
ENDBRANCH  10  21
ENDBRANCH  16   9
TORSDOF 5
ENDMDL
MODEL 10
REMARK VINA RESULT:      -7.1     29.918     34.373
REMARK  Name = 11941845
REMARK  5 active torsions:
REMARK  status: ('A' for Active; 'I' for Inactive)
REMARK    1  A    between atoms: N_8  and  C_15
REMARK    2  A    between atoms: N_9  and  C_16
REMARK    3  A    between atoms: N_10  and  C_21
REMARK    4  A    between atoms: C_22  and  C_26
REMARK    5  A    between atoms: C_28  and  C_32
REMARK                            x       y       z     vdW  Elec       q    Type
REMARK                         _______ _______ _______ _____ _____    ______ ____
ROOT
ATOM      5  O   UNL     1     -13.181  -8.204  16.217  0.00  0.00    -0.370 OA
ATOM      6  O   UNL     1     -11.554  -5.854  14.965  0.00  0.00    -0.370 OA
ATOM     13  C   UNL     1     -11.977  -7.134  14.465  0.00  0.00    +0.171 C 
ATOM     14  C   UNL     1     -11.880  -8.120  15.613  0.00  0.00    +0.171 C 
ATOM     15  C   UNL     1     -13.449  -7.104  14.129  0.00  0.00    +0.130 C 
ATOM     16  C   UNL     1     -10.898  -7.478  16.567  0.00  0.00    +0.131 C 
ATOM     17  C   UNL     1     -14.102  -7.399  15.466  0.00  0.00    +0.185 C 
ATOM     18  C   UNL     1     -11.137  -5.997  16.331  0.00  0.00    +0.185 C 
ENDROOT
BRANCH  15   8
ATOM      8  N   UNL     1     -13.761  -8.147  13.177  0.00  0.00    -0.306 N 
ATOM     11  N   UNL     1     -12.668  -7.030  11.426  0.00  0.00    -0.214 NA
ATOM     12  N   UNL     1     -13.735  -9.161  11.062  0.00  0.00    -0.223 NA
ATOM     19  C   UNL     1     -13.377  -8.111  11.849  0.00  0.00    +0.216 A 
ATOM     22  C   UNL     1     -12.309  -7.029  10.126  0.00  0.00    +0.083 A 
ATOM     23  C   UNL     1     -13.343  -9.094   9.773  0.00  0.00    +0.116 A 
ATOM     24  C   UNL     1     -12.622  -8.044   9.243  0.00  0.00    +0.049 A 
ATOM     35  H   UNL     1     -14.242  -8.982  13.494  0.00  0.00    +0.149 HD
BRANCH  22  26
ATOM      1  S   UNL     1     -10.138  -6.094   8.779  0.00  0.00    -0.095 S 
ATOM     26  C   UNL     1     -11.563  -5.873   9.708  0.00  0.00    +0.038 A 
ATOM     31  C   UNL     1     -11.818  -4.537   9.943  0.00  0.00    +0.017 A 
ATOM     33  C   UNL     1     -10.834  -3.689   9.356  0.00  0.00    +0.008 A 
ATOM     34  C   UNL     1      -9.863  -4.405   8.692  0.00  0.00    +0.046 A 
ENDBRANCH  22  26
ENDBRANCH  15   8
BRANCH  16   9
ATOM      7  O   UNL     1      -9.236  -9.315  18.005  0.00  0.00    -0.252 OA
ATOM      9  N   UNL     1      -9.540  -7.846  16.246  0.00  0.00    -0.292 N 
ATOM     10  N   UNL     1      -7.518  -8.915  16.455  0.00  0.00    -0.269 N 
ATOM     20  C   UNL     1      -8.794  -8.756  17.004  0.00  0.00    +0.304 C 
ATOM     36  H   UNL     1      -9.128  -7.478  15.394  0.00  0.00    +0.151 HD
ATOM     37  H   UNL     1      -7.311  -8.374  15.620  0.00  0.00    +0.156 HD
BRANCH  10  21
ATOM     21  C   UNL     1      -6.470  -9.742  16.922  0.00  0.00    +0.035 A 
ATOM     25  C   UNL     1      -5.347  -9.927  16.130  0.00  0.00    +0.035 A 
ATOM     27  C   UNL     1      -6.585 -10.348  18.162  0.00  0.00    +0.023 A 
ATOM     28  C   UNL     1      -4.313 -10.741  16.592  0.00  0.00    +0.057 A 
ATOM     29  C   UNL     1      -5.551 -11.162  18.624  0.00  0.00    +0.002 A 
ATOM     30  C   UNL     1      -4.414 -11.359  17.839  0.00  0.00    +0.012 A 
BRANCH  28  32
ATOM      2  F   UNL     1      -2.912 -12.250  15.374  0.00  0.00    -0.166 F 
ATOM      3  F   UNL     1      -3.107 -10.238  14.589  0.00  0.00    -0.166 F 
ATOM      4  F   UNL     1      -1.948 -10.591  16.396  0.00  0.00    -0.166 F 
ATOM     32  C   UNL     1      -3.098 -10.951  15.753  0.00  0.00    +0.417 C 
ENDBRANCH  28  32
ENDBRANCH  10  21
ENDBRANCH  16   9
TORSDOF 5
ENDMDL
