MODEL 1
REMARK VINA RESULT:      -6.7      0.000      0.000
REMARK  Name = 25338545
REMARK  9 active torsions:
REMARK  status: ('A' for Active; 'I' for Inactive)
REMARK    1  A    between atoms: O_3  and  C_25
REMARK    2  A    between atoms: O_3  and  C_29
REMARK    3  A    between atoms: O_4  and  C_28
REMARK    4  A    between atoms: O_4  and  C_30
REMARK    5  A    between atoms: N_5  and  C_14
REMARK    6  A    between atoms: N_6  and  C_9
REMARK    7  A    between atoms: C_10  and  C_13
REMARK    8  A    between atoms: C_15  and  C_17
REMARK    9  A    between atoms: C_16  and  C_18
REMARK                            x       y       z     vdW  Elec       q    Type
REMARK                         _______ _______ _______ _____ _____    ______ ____
ROOT
ATOM      5  N   UNL     1      -5.924 -12.110  16.832  0.00  0.00    -0.293 NA
ATOM      9  C   UNL     1      -4.045 -10.815  16.355  0.00  0.00    +0.089 C 
ATOM     10  C   UNL     1      -6.095 -10.915  17.680  0.00  0.00    +0.147 C 
ATOM     11  C   UNL     1      -4.942  -9.979  17.267  0.00  0.00    +0.052 C 
ATOM     12  C   UNL     1      -4.479 -12.248  16.620  0.00  0.00    +0.107 C 
ATOM     14  C   UNL     1      -6.507 -13.314  17.411  0.00  0.00    +0.105 C 
ENDROOT
BRANCH  10  13
ATOM      1  O   UNL     1      -8.394 -10.618  18.450  0.00  0.00    -0.336 OA
ATOM      7  N   UNL     1      -7.868  -9.393  16.651  0.00  0.00    -0.190 NA
ATOM      8  N   UNL     1      -9.548  -9.897  18.119  0.00  0.00    -0.056 NA
ATOM     13  C   UNL     1      -7.453 -10.263  17.537  0.00  0.00    +0.245 A 
ATOM     16  C   UNL     1      -9.159  -9.199  17.048  0.00  0.00    +0.202 A 
BRANCH  16  18
ATOM     18  C   UNL     1     -10.033  -8.299  16.354  0.00  0.00    +0.023 A 
ATOM     21  C   UNL     1     -10.468  -8.604  15.063  0.00  0.00    +0.015 A 
ATOM     22  C   UNL     1     -10.446  -7.117  16.968  0.00  0.00    +0.015 A 
ATOM     26  C   UNL     1     -11.316  -7.727  14.388  0.00  0.00    +0.046 A 
ATOM     27  C   UNL     1     -11.294  -6.239  16.291  0.00  0.00    +0.046 A 
ATOM     28  C   UNL     1     -11.729  -6.544  15.003  0.00  0.00    +0.120 A 
BRANCH  28   4
ATOM      4  O   UNL     1     -12.557  -5.688  14.343  0.00  0.00    -0.495 OA
ATOM     30  C   UNL     1     -12.542  -5.739  12.917  0.00  0.00    +0.277 C 
ENDBRANCH  28   4
ENDBRANCH  16  18
ENDBRANCH  10  13
BRANCH   9   6
ATOM      2  O   UNL     1      -2.187 -11.284  14.216  0.00  0.00    -0.270 OA
ATOM      6  N   UNL     1      -4.220 -10.460  14.966  0.00  0.00    -0.307 N 
ATOM     15  C   UNL     1      -3.262 -10.730  14.002  0.00  0.00    +0.244 C 
ATOM     31  H   UNL     1      -5.036  -9.902  14.736  0.00  0.00    +0.149 HD
BRANCH  15  17
ATOM     17  C   UNL     1      -3.582 -10.278  12.624  0.00  0.00    +0.037 A 
ATOM     19  C   UNL     1      -2.558 -10.077  11.699  0.00  0.00    +0.016 A 
ATOM     20  C   UNL     1      -4.909 -10.053  12.255  0.00  0.00    +0.016 A 
ATOM     23  C   UNL     1      -2.859  -9.652  10.406  0.00  0.00    +0.046 A 
ATOM     24  C   UNL     1      -5.210  -9.628  10.961  0.00  0.00    +0.046 A 
ATOM     25  C   UNL     1      -4.184  -9.427  10.036  0.00  0.00    +0.120 A 
BRANCH  25   3
ATOM      3  O   UNL     1      -4.479  -9.013   8.774  0.00  0.00    -0.495 OA
ATOM     29  C   UNL     1      -5.716  -9.456   8.219  0.00  0.00    +0.277 C 
ENDBRANCH  25   3
ENDBRANCH  15  17
ENDBRANCH   9   6
TORSDOF 6
ENDMDL
MODEL 2
REMARK VINA RESULT:      -6.7      1.899      2.574
REMARK  Name = 25338545
REMARK  9 active torsions:
REMARK  status: ('A' for Active; 'I' for Inactive)
REMARK    1  A    between atoms: O_3  and  C_25
REMARK    2  A    between atoms: O_3  and  C_29
REMARK    3  A    between atoms: O_4  and  C_28
REMARK    4  A    between atoms: O_4  and  C_30
REMARK    5  A    between atoms: N_5  and  C_14
REMARK    6  A    between atoms: N_6  and  C_9
REMARK    7  A    between atoms: C_10  and  C_13
REMARK    8  A    between atoms: C_15  and  C_17
REMARK    9  A    between atoms: C_16  and  C_18
REMARK                            x       y       z     vdW  Elec       q    Type
REMARK                         _______ _______ _______ _____ _____    ______ ____
ROOT
ATOM      5  N   UNL     1      -4.384 -12.776  15.797  0.00  0.00    -0.293 NA
ATOM      9  C   UNL     1      -2.786 -11.370  14.846  0.00  0.00    +0.089 C 
ATOM     10  C   UNL     1      -4.069 -11.819  16.876  0.00  0.00    +0.147 C 
ATOM     11  C   UNL     1      -3.129 -10.791  16.218  0.00  0.00    +0.052 C 
ATOM     12  C   UNL     1      -3.188 -12.833  14.950  0.00  0.00    +0.107 C 
ATOM     14  C   UNL     1      -4.765 -14.094  16.291  0.00  0.00    +0.105 C 
ENDROOT
BRANCH  10  13
ATOM      1  O   UNL     1      -5.217 -10.865  18.809  0.00  0.00    -0.336 OA
ATOM      7  N   UNL     1      -6.440 -10.873  16.933  0.00  0.00    -0.190 NA
ATOM      8  N   UNL     1      -6.451 -10.293  19.146  0.00  0.00    -0.056 NA
ATOM     13  C   UNL     1      -5.295 -11.178  17.490  0.00  0.00    +0.245 A 
ATOM     16  C   UNL     1      -7.117 -10.334  17.988  0.00  0.00    +0.202 A 
BRANCH  16  18
ATOM     18  C   UNL     1      -8.457  -9.842  17.850  0.00  0.00    +0.023 A 
ATOM     21  C   UNL     1      -9.508 -10.490  18.499  0.00  0.00    +0.015 A 
ATOM     22  C   UNL     1      -8.709  -8.718  17.064  0.00  0.00    +0.015 A 
ATOM     26  C   UNL     1     -10.811 -10.012  18.363  0.00  0.00    +0.046 A 
ATOM     27  C   UNL     1     -10.013  -8.241  16.927  0.00  0.00    +0.046 A 
ATOM     28  C   UNL     1     -11.064  -8.887  17.577  0.00  0.00    +0.120 A 
BRANCH  28   4
ATOM      4  O   UNL     1     -12.336  -8.422  17.444  0.00  0.00    -0.495 OA
ATOM     30  C   UNL     1     -12.706  -7.897  16.170  0.00  0.00    +0.277 C 
ENDBRANCH  28   4
ENDBRANCH  16  18
ENDBRANCH  10  13
BRANCH   9   6
ATOM      2  O   UNL     1      -1.991 -11.147  12.096  0.00  0.00    -0.270 OA
ATOM      6  N   UNL     1      -3.509 -10.700  13.791  0.00  0.00    -0.307 N 
ATOM     15  C   UNL     1      -3.042 -10.646  12.487  0.00  0.00    +0.244 C 
ATOM     31  H   UNL     1      -4.331 -10.170  14.064  0.00  0.00    +0.149 HD
BRANCH  15  17
ATOM     17  C   UNL     1      -3.890  -9.896  11.525  0.00  0.00    +0.037 A 
ATOM     19  C   UNL     1      -3.367  -9.501  10.294  0.00  0.00    +0.016 A 
ATOM     20  C   UNL     1      -5.209  -9.584  11.854  0.00  0.00    +0.016 A 
ATOM     23  C   UNL     1      -4.163  -8.797   9.391  0.00  0.00    +0.046 A 
ATOM     24  C   UNL     1      -6.005  -8.879  10.951  0.00  0.00    +0.046 A 
ATOM     25  C   UNL     1      -5.482  -8.485   9.719  0.00  0.00    +0.120 A 
BRANCH  25   3
ATOM      3  O   UNL     1      -6.259  -7.798   8.839  0.00  0.00    -0.495 OA
ATOM     29  C   UNL     1      -7.663  -8.048   8.881  0.00  0.00    +0.277 C 
ENDBRANCH  25   3
ENDBRANCH  15  17
ENDBRANCH   9   6
TORSDOF 6
ENDMDL
MODEL 3
REMARK VINA RESULT:      -6.7      2.786      3.615
REMARK  Name = 25338545
REMARK  9 active torsions:
REMARK  status: ('A' for Active; 'I' for Inactive)
REMARK    1  A    between atoms: O_3  and  C_25
REMARK    2  A    between atoms: O_3  and  C_29
REMARK    3  A    between atoms: O_4  and  C_28
REMARK    4  A    between atoms: O_4  and  C_30
REMARK    5  A    between atoms: N_5  and  C_14
REMARK    6  A    between atoms: N_6  and  C_9
REMARK    7  A    between atoms: C_10  and  C_13
REMARK    8  A    between atoms: C_15  and  C_17
REMARK    9  A    between atoms: C_16  and  C_18
REMARK                            x       y       z     vdW  Elec       q    Type
REMARK                         _______ _______ _______ _____ _____    ______ ____
ROOT
ATOM      5  N   UNL     1      -4.194 -13.099  15.247  0.00  0.00    -0.293 NA
ATOM      9  C   UNL     1      -2.511 -11.973  14.093  0.00  0.00    +0.089 C 
ATOM     10  C   UNL     1      -3.951 -11.895  16.065  0.00  0.00    +0.147 C 
ATOM     11  C   UNL     1      -2.950 -11.064  15.241  0.00  0.00    +0.052 C 
ATOM     12  C   UNL     1      -2.938 -13.363  14.538  0.00  0.00    +0.107 C 
ATOM     14  C   UNL     1      -4.628 -14.249  16.031  0.00  0.00    +0.105 C 
ENDROOT
BRANCH  10  13
ATOM      1  O   UNL     1      -5.395  -9.953  15.740  0.00  0.00    -0.336 OA
ATOM      7  N   UNL     1      -6.170 -11.427  17.238  0.00  0.00    -0.190 NA
ATOM      8  N   UNL     1      -6.609  -9.433  16.206  0.00  0.00    -0.056 NA
ATOM     13  C   UNL     1      -5.211 -11.127  16.397  0.00  0.00    +0.245 A 
ATOM     16  C   UNL     1      -7.004 -10.358  17.086  0.00  0.00    +0.202 A 
BRANCH  16  18
ATOM     18  C   UNL     1      -8.227 -10.246  17.828  0.00  0.00    +0.023 A 
ATOM     21  C   UNL     1      -8.407 -10.991  18.994  0.00  0.00    +0.015 A 
ATOM     22  C   UNL     1      -9.237  -9.394  17.382  0.00  0.00    +0.015 A 
ATOM     26  C   UNL     1      -9.596 -10.884  19.713  0.00  0.00    +0.046 A 
ATOM     27  C   UNL     1     -10.428  -9.288  18.101  0.00  0.00    +0.046 A 
ATOM     28  C   UNL     1     -10.607 -10.031  19.266  0.00  0.00    +0.120 A 
BRANCH  28   4
ATOM      4  O   UNL     1     -11.769  -9.927  19.969  0.00  0.00    -0.495 OA
ATOM     30  C   UNL     1     -12.975  -9.812  19.216  0.00  0.00    +0.277 C 
ENDBRANCH  28   4
ENDBRANCH  16  18
ENDBRANCH  10  13
BRANCH   9   6
ATOM      2  O   UNL     1      -1.404 -10.296  12.042  0.00  0.00    -0.270 OA
ATOM      6  N   UNL     1      -3.142 -11.601  12.849  0.00  0.00    -0.307 N 
ATOM     15  C   UNL     1      -2.524 -10.783  11.916  0.00  0.00    +0.244 C 
ATOM     31  H   UNL     1      -4.111 -11.877  12.727  0.00  0.00    +0.149 HD
BRANCH  15  17
ATOM     17  C   UNL     1      -3.317 -10.473  10.699  0.00  0.00    +0.037 A 
ATOM     19  C   UNL     1      -3.957 -11.498  10.003  0.00  0.00    +0.016 A 
ATOM     20  C   UNL     1      -3.420  -9.156  10.250  0.00  0.00    +0.016 A 
ATOM     23  C   UNL     1      -4.701 -11.207   8.860  0.00  0.00    +0.046 A 
ATOM     24  C   UNL     1      -4.164  -8.865   9.107  0.00  0.00    +0.046 A 
ATOM     25  C   UNL     1      -4.805  -9.891   8.412  0.00  0.00    +0.120 A 
BRANCH  25   3
ATOM      3  O   UNL     1      -5.531  -9.606   7.297  0.00  0.00    -0.495 OA
ATOM     29  C   UNL     1      -5.640 -10.635   6.314  0.00  0.00    +0.277 C 
ENDBRANCH  25   3
ENDBRANCH  15  17
ENDBRANCH   9   6
TORSDOF 6
ENDMDL
MODEL 4
REMARK VINA RESULT:      -6.7      2.154      3.390
REMARK  Name = 25338545
REMARK  9 active torsions:
REMARK  status: ('A' for Active; 'I' for Inactive)
REMARK    1  A    between atoms: O_3  and  C_25
REMARK    2  A    between atoms: O_3  and  C_29
REMARK    3  A    between atoms: O_4  and  C_28
REMARK    4  A    between atoms: O_4  and  C_30
REMARK    5  A    between atoms: N_5  and  C_14
REMARK    6  A    between atoms: N_6  and  C_9
REMARK    7  A    between atoms: C_10  and  C_13
REMARK    8  A    between atoms: C_15  and  C_17
REMARK    9  A    between atoms: C_16  and  C_18
REMARK                            x       y       z     vdW  Elec       q    Type
REMARK                         _______ _______ _______ _____ _____    ______ ____
ROOT
ATOM      5  N   UNL     1      -8.327 -12.243  17.905  0.00  0.00    -0.293 NA
ATOM      9  C   UNL     1      -6.210 -11.781  18.762  0.00  0.00    +0.089 C 
ATOM     10  C   UNL     1      -8.534 -11.029  18.717  0.00  0.00    +0.147 C 
ATOM     11  C   UNL     1      -7.118 -10.621  19.169  0.00  0.00    +0.052 C 
ATOM     12  C   UNL     1      -7.171 -12.928  18.493  0.00  0.00    +0.107 C 
ATOM     14  C   UNL     1      -9.501 -13.106  17.852  0.00  0.00    +0.105 C 
ENDROOT
BRANCH  10  13
ATOM      1  O   UNL     1      -8.469  -8.947  17.441  0.00  0.00    -0.336 OA
ATOM      7  N   UNL     1     -10.532  -9.756  17.765  0.00  0.00    -0.190 NA
ATOM      8  N   UNL     1      -9.342  -8.049  16.815  0.00  0.00    -0.056 NA
ATOM     13  C   UNL     1      -9.250  -9.922  17.975  0.00  0.00    +0.245 A 
ATOM     16  C   UNL     1     -10.539  -8.594  17.050  0.00  0.00    +0.202 A 
BRANCH  16  18
ATOM     18  C   UNL     1     -11.761  -8.005  16.583  0.00  0.00    +0.023 A 
ATOM     21  C   UNL     1     -12.971  -8.680  16.753  0.00  0.00    +0.015 A 
ATOM     22  C   UNL     1     -11.739  -6.760  15.955  0.00  0.00    +0.015 A 
ATOM     26  C   UNL     1     -14.157  -8.108  16.296  0.00  0.00    +0.046 A 
ATOM     27  C   UNL     1     -12.926  -6.188  15.498  0.00  0.00    +0.046 A 
ATOM     28  C   UNL     1     -14.135  -6.861  15.669  0.00  0.00    +0.120 A 
BRANCH  28   4
ATOM      4  O   UNL     1     -15.294  -6.303  15.223  0.00  0.00    -0.495 OA
ATOM     30  C   UNL     1     -15.301  -5.799  13.888  0.00  0.00    +0.277 C 
ENDBRANCH  28   4
ENDBRANCH  16  18
ENDBRANCH  10  13
BRANCH   9   6
ATOM      2  O   UNL     1      -3.347 -11.644  18.588  0.00  0.00    -0.270 OA
ATOM      6  N   UNL     1      -5.431 -11.460  17.589  0.00  0.00    -0.307 N 
ATOM     15  C   UNL     1      -4.045 -11.419  17.604  0.00  0.00    +0.244 C 
ATOM     31  H   UNL     1      -5.944 -11.156  16.768  0.00  0.00    +0.149 HD
BRANCH  15  17
ATOM     17  C   UNL     1      -3.394 -11.048  16.322  0.00  0.00    +0.037 A 
ATOM     19  C   UNL     1      -4.130 -11.055  15.137  0.00  0.00    +0.016 A 
ATOM     20  C   UNL     1      -2.045 -10.692  16.302  0.00  0.00    +0.016 A 
ATOM     23  C   UNL     1      -3.518 -10.707  13.933  0.00  0.00    +0.046 A 
ATOM     24  C   UNL     1      -1.433 -10.344  15.098  0.00  0.00    +0.046 A 
ATOM     25  C   UNL     1      -2.170 -10.352  13.913  0.00  0.00    +0.120 A 
BRANCH  25   3
ATOM      3  O   UNL     1      -1.573 -10.011  12.739  0.00  0.00    -0.495 OA
ATOM     29  C   UNL     1      -2.271 -10.335  11.538  0.00  0.00    +0.277 C 
ENDBRANCH  25   3
ENDBRANCH  15  17
ENDBRANCH   9   6
TORSDOF 6
ENDMDL
MODEL 5
REMARK VINA RESULT:      -6.5      2.406      4.110
REMARK  Name = 25338545
REMARK  9 active torsions:
REMARK  status: ('A' for Active; 'I' for Inactive)
REMARK    1  A    between atoms: O_3  and  C_25
REMARK    2  A    between atoms: O_3  and  C_29
REMARK    3  A    between atoms: O_4  and  C_28
REMARK    4  A    between atoms: O_4  and  C_30
REMARK    5  A    between atoms: N_5  and  C_14
REMARK    6  A    between atoms: N_6  and  C_9
REMARK    7  A    between atoms: C_10  and  C_13
REMARK    8  A    between atoms: C_15  and  C_17
REMARK    9  A    between atoms: C_16  and  C_18
REMARK                            x       y       z     vdW  Elec       q    Type
REMARK                         _______ _______ _______ _____ _____    ______ ____
ROOT
ATOM      5  N   UNL     1      -2.970 -12.917  13.973  0.00  0.00    -0.293 NA
ATOM      9  C   UNL     1      -1.990 -11.318  12.589  0.00  0.00    +0.089 C 
ATOM     10  C   UNL     1      -2.547 -11.855  14.906  0.00  0.00    +0.147 C 
ATOM     11  C   UNL     1      -2.034 -10.722  13.996  0.00  0.00    +0.052 C 
ATOM     12  C   UNL     1      -2.070 -12.819  12.819  0.00  0.00    +0.107 C 
ATOM     14  C   UNL     1      -2.948 -14.247  14.569  0.00  0.00    +0.105 C 
ENDROOT
BRANCH  10  13
ATOM      1  O   UNL     1      -3.312 -11.262  17.149  0.00  0.00    -0.336 OA
ATOM      7  N   UNL     1      -4.896 -11.110  15.572  0.00  0.00    -0.190 NA
ATOM      8  N   UNL     1      -4.475 -10.837  17.804  0.00  0.00    -0.056 NA
ATOM     13  C   UNL     1      -3.647 -11.398  15.839  0.00  0.00    +0.245 A 
ATOM     16  C   UNL     1      -5.364 -10.772  16.809  0.00  0.00    +0.202 A 
BRANCH  16  18
ATOM     18  C   UNL     1      -6.725 -10.370  17.014  0.00  0.00    +0.023 A 
ATOM     21  C   UNL     1      -7.358  -9.545  16.084  0.00  0.00    +0.015 A 
ATOM     22  C   UNL     1      -7.416 -10.802  18.147  0.00  0.00    +0.015 A 
ATOM     26  C   UNL     1      -8.681  -9.153  16.286  0.00  0.00    +0.046 A 
ATOM     27  C   UNL     1      -8.739 -10.409  18.350  0.00  0.00    +0.046 A 
ATOM     28  C   UNL     1      -9.372  -9.585  17.419  0.00  0.00    +0.120 A 
BRANCH  28   4
ATOM      4  O   UNL     1     -10.663  -9.202  17.616  0.00  0.00    -0.495 OA
ATOM     30  C   UNL     1     -11.059  -7.947  17.066  0.00  0.00    +0.277 C 
ENDBRANCH  28   4
ENDBRANCH  16  18
ENDBRANCH  10  13
BRANCH   9   6
ATOM      2  O   UNL     1      -1.908  -9.216  10.634  0.00  0.00    -0.270 OA
ATOM      6  N   UNL     1      -3.090 -10.850  11.779  0.00  0.00    -0.307 N 
ATOM     15  C   UNL     1      -2.951  -9.824  10.857  0.00  0.00    +0.244 C 
ATOM     31  H   UNL     1      -4.007 -11.232  11.987  0.00  0.00    +0.149 HD
BRANCH  15  17
ATOM     17  C   UNL     1      -4.184  -9.443  10.121  0.00  0.00    +0.037 A 
ATOM     19  C   UNL     1      -5.154  -8.658  10.744  0.00  0.00    +0.016 A 
ATOM     20  C   UNL     1      -4.373  -9.871   8.807  0.00  0.00    +0.016 A 
ATOM     23  C   UNL     1      -6.312  -8.300  10.053  0.00  0.00    +0.046 A 
ATOM     24  C   UNL     1      -5.531  -9.513   8.116  0.00  0.00    +0.046 A 
ATOM     25  C   UNL     1      -6.501  -8.728   8.740  0.00  0.00    +0.120 A 
BRANCH  25   3
ATOM      3  O   UNL     1      -7.629  -8.379   8.066  0.00  0.00    -0.495 OA
ATOM     29  C   UNL     1      -7.998  -7.000   8.088  0.00  0.00    +0.277 C 
ENDBRANCH  25   3
ENDBRANCH  15  17
ENDBRANCH   9   6
TORSDOF 6
ENDMDL
MODEL 6
REMARK VINA RESULT:      -6.5      2.349      3.022
REMARK  Name = 25338545
REMARK  9 active torsions:
REMARK  status: ('A' for Active; 'I' for Inactive)
REMARK    1  A    between atoms: O_3  and  C_25
REMARK    2  A    between atoms: O_3  and  C_29
REMARK    3  A    between atoms: O_4  and  C_28
REMARK    4  A    between atoms: O_4  and  C_30
REMARK    5  A    between atoms: N_5  and  C_14
REMARK    6  A    between atoms: N_6  and  C_9
REMARK    7  A    between atoms: C_10  and  C_13
REMARK    8  A    between atoms: C_15  and  C_17
REMARK    9  A    between atoms: C_16  and  C_18
REMARK                            x       y       z     vdW  Elec       q    Type
REMARK                         _______ _______ _______ _____ _____    ______ ____
ROOT
ATOM      5  N   UNL     1      -5.563 -12.159  16.644  0.00  0.00    -0.293 NA
ATOM      9  C   UNL     1      -3.810 -10.800  15.928  0.00  0.00    +0.089 C 
ATOM     10  C   UNL     1      -5.672 -10.963  17.501  0.00  0.00    +0.147 C 
ATOM     11  C   UNL     1      -4.618  -9.989  16.942  0.00  0.00    +0.052 C 
ATOM     12  C   UNL     1      -4.152 -12.245  16.253  0.00  0.00    +0.107 C 
ATOM     14  C   UNL     1      -6.021 -13.379  17.298  0.00  0.00    +0.105 C 
ENDROOT
BRANCH  10  13
ATOM      1  O   UNL     1      -7.290  -9.327  16.681  0.00  0.00    -0.336 OA
ATOM      7  N   UNL     1      -8.098 -10.701  18.254  0.00  0.00    -0.190 NA
ATOM      8  N   UNL     1      -8.623  -8.947  16.882  0.00  0.00    -0.056 NA
ATOM     13  C   UNL     1      -7.062 -10.365  17.527  0.00  0.00    +0.245 A 
ATOM     16  C   UNL     1      -9.031  -9.804  17.824  0.00  0.00    +0.202 A 
BRANCH  16  18
ATOM     18  C   UNL     1     -10.363  -9.790  18.354  0.00  0.00    +0.023 A 
ATOM     21  C   UNL     1     -11.435  -9.419  17.541  0.00  0.00    +0.015 A 
ATOM     22  C   UNL     1     -10.588 -10.145  19.684  0.00  0.00    +0.015 A 
ATOM     26  C   UNL     1     -12.730  -9.404  18.058  0.00  0.00    +0.046 A 
ATOM     27  C   UNL     1     -11.883 -10.129  20.201  0.00  0.00    +0.046 A 
ATOM     28  C   UNL     1     -12.954  -9.759  19.388  0.00  0.00    +0.120 A 
BRANCH  28   4
ATOM      4  O   UNL     1     -14.219  -9.744  19.893  0.00  0.00    -0.495 OA
ATOM     30  C   UNL     1     -14.530 -10.713  20.893  0.00  0.00    +0.277 C 
ENDBRANCH  28   4
ENDBRANCH  16  18
ENDBRANCH  10  13
BRANCH   9   6
ATOM      2  O   UNL     1      -2.172 -11.108  13.590  0.00  0.00    -0.270 OA
ATOM      6  N   UNL     1      -4.172 -10.465  14.571  0.00  0.00    -0.307 N 
ATOM     15  C   UNL     1      -3.309 -10.652  13.502  0.00  0.00    +0.244 C 
ATOM     31  H   UNL     1      -5.055  -9.982  14.438  0.00  0.00    +0.149 HD
BRANCH  15  17
ATOM     17  C   UNL     1      -3.822 -10.234  12.173  0.00  0.00    +0.037 A 
ATOM     19  C   UNL     1      -2.932  -9.865  11.165  0.00  0.00    +0.016 A 
ATOM     20  C   UNL     1      -5.197 -10.208  11.932  0.00  0.00    +0.016 A 
ATOM     23  C   UNL     1      -3.414  -9.472   9.917  0.00  0.00    +0.046 A 
ATOM     24  C   UNL     1      -5.678  -9.815  10.684  0.00  0.00    +0.046 A 
ATOM     25  C   UNL     1      -4.787  -9.446   9.676  0.00  0.00    +0.120 A 
BRANCH  25   3
ATOM      3  O   UNL     1      -5.258  -9.063   8.458  0.00  0.00    -0.495 OA
ATOM     29  C   UNL     1      -6.657  -9.218   8.226  0.00  0.00    +0.277 C 
ENDBRANCH  25   3
ENDBRANCH  15  17
ENDBRANCH   9   6
TORSDOF 6
ENDMDL
MODEL 7
REMARK VINA RESULT:      -6.5      3.419      6.106
REMARK  Name = 25338545
REMARK  9 active torsions:
REMARK  status: ('A' for Active; 'I' for Inactive)
REMARK    1  A    between atoms: O_3  and  C_25
REMARK    2  A    between atoms: O_3  and  C_29
REMARK    3  A    between atoms: O_4  and  C_28
REMARK    4  A    between atoms: O_4  and  C_30
REMARK    5  A    between atoms: N_5  and  C_14
REMARK    6  A    between atoms: N_6  and  C_9
REMARK    7  A    between atoms: C_10  and  C_13
REMARK    8  A    between atoms: C_15  and  C_17
REMARK    9  A    between atoms: C_16  and  C_18
REMARK                            x       y       z     vdW  Elec       q    Type
REMARK                         _______ _______ _______ _____ _____    ______ ____
ROOT
ATOM      5  N   UNL     1     -11.915 -10.369  16.555  0.00  0.00    -0.293 NA
ATOM      9  C   UNL     1     -10.627 -10.466  18.495  0.00  0.00    +0.089 C 
ATOM     10  C   UNL     1     -12.230  -9.106  17.250  0.00  0.00    +0.147 C 
ATOM     11  C   UNL     1     -11.274  -9.082  18.459  0.00  0.00    +0.052 C 
ATOM     12  C   UNL     1     -11.518 -11.316  17.603  0.00  0.00    +0.107 C 
ATOM     14  C   UNL     1     -13.024 -10.876  15.756  0.00  0.00    +0.105 C 
ENDROOT
BRANCH  10  13
ATOM      1  O   UNL     1     -10.905  -7.219  16.445  0.00  0.00    -0.336 OA
ATOM      7  N   UNL     1     -12.947  -7.356  15.536  0.00  0.00    -0.190 NA
ATOM      8  N   UNL     1     -11.009  -6.141  15.557  0.00  0.00    -0.056 NA
ATOM     13  C   UNL     1     -12.088  -7.883  16.372  0.00  0.00    +0.245 A 
ATOM     16  C   UNL     1     -12.241  -6.290  15.061  0.00  0.00    +0.202 A 
BRANCH  16  18
ATOM     18  C   UNL     1     -12.795  -5.392  14.088  0.00  0.00    +0.023 A 
ATOM     21  C   UNL     1     -14.177  -5.317  13.916  0.00  0.00    +0.015 A 
ATOM     22  C   UNL     1     -11.951  -4.599  13.312  0.00  0.00    +0.015 A 
ATOM     26  C   UNL     1     -14.715  -4.446  12.968  0.00  0.00    +0.046 A 
ATOM     27  C   UNL     1     -12.488  -3.729  12.363  0.00  0.00    +0.046 A 
ATOM     28  C   UNL     1     -13.870  -3.652  12.192  0.00  0.00    +0.120 A 
BRANCH  28   4
ATOM      4  O   UNL     1     -14.395  -2.802  11.267  0.00  0.00    -0.495 OA
ATOM     30  C   UNL     1     -14.501  -3.284   9.928  0.00  0.00    +0.277 C 
ENDBRANCH  28   4
ENDBRANCH  16  18
ENDBRANCH  10  13
BRANCH   9   6
ATOM      2  O   UNL     1      -8.245 -11.045  19.990  0.00  0.00    -0.270 OA
ATOM      6  N   UNL     1      -9.270 -10.431  18.003  0.00  0.00    -0.307 N 
ATOM     15  C   UNL     1      -8.179 -10.729  18.806  0.00  0.00    +0.244 C 
ATOM     31  H   UNL     1      -9.132 -10.072  17.064  0.00  0.00    +0.149 HD
BRANCH  15  17
ATOM     17  C   UNL     1      -6.847 -10.621  18.157  0.00  0.00    +0.037 A 
ATOM     19  C   UNL     1      -5.720 -11.148  18.786  0.00  0.00    +0.016 A 
ATOM     20  C   UNL     1      -6.724  -9.992  16.917  0.00  0.00    +0.016 A 
ATOM     23  C   UNL     1      -4.469 -11.047  18.176  0.00  0.00    +0.046 A 
ATOM     24  C   UNL     1      -5.474  -9.891  16.308  0.00  0.00    +0.046 A 
ATOM     25  C   UNL     1      -4.346 -10.418  16.938  0.00  0.00    +0.120 A 
BRANCH  25   3
ATOM      3  O   UNL     1      -3.126 -10.319  16.343  0.00  0.00    -0.495 OA
ATOM     29  C   UNL     1      -2.910 -11.109  15.174  0.00  0.00    +0.277 C 
ENDBRANCH  25   3
ENDBRANCH  15  17
ENDBRANCH   9   6
TORSDOF 6
ENDMDL
MODEL 8
REMARK VINA RESULT:      -6.4      1.637      7.654
REMARK  Name = 25338545
REMARK  9 active torsions:
REMARK  status: ('A' for Active; 'I' for Inactive)
REMARK    1  A    between atoms: O_3  and  C_25
REMARK    2  A    between atoms: O_3  and  C_29
REMARK    3  A    between atoms: O_4  and  C_28
REMARK    4  A    between atoms: O_4  and  C_30
REMARK    5  A    between atoms: N_5  and  C_14
REMARK    6  A    between atoms: N_6  and  C_9
REMARK    7  A    between atoms: C_10  and  C_13
REMARK    8  A    between atoms: C_15  and  C_17
REMARK    9  A    between atoms: C_16  and  C_18
REMARK                            x       y       z     vdW  Elec       q    Type
REMARK                         _______ _______ _______ _____ _____    ______ ____
ROOT
ATOM      5  N   UNL     1      -6.899 -10.871  18.948  0.00  0.00    -0.293 NA
ATOM      9  C   UNL     1      -8.992 -11.527  18.159  0.00  0.00    +0.089 C 
ATOM     10  C   UNL     1      -6.592 -11.953  17.993  0.00  0.00    +0.147 C 
ATOM     11  C   UNL     1      -7.950 -12.296  17.348  0.00  0.00    +0.052 C 
ATOM     12  C   UNL     1      -8.259 -11.136  19.432  0.00  0.00    +0.107 C 
ATOM     14  C   UNL     1      -5.940 -10.781  20.042  0.00  0.00    +0.105 C 
ENDROOT
BRANCH  10  13
ATOM      1  O   UNL     1      -4.260 -11.508  17.419  0.00  0.00    -0.336 OA
ATOM      7  N   UNL     1      -5.681 -11.299  15.700  0.00  0.00    -0.190 NA
ATOM      8  N   UNL     1      -3.482 -11.147  16.311  0.00  0.00    -0.056 NA
ATOM     13  C   UNL     1      -5.542 -11.576  16.972  0.00  0.00    +0.245 A 
ATOM     16  C   UNL     1      -4.391 -11.041  15.338  0.00  0.00    +0.202 A 
BRANCH  16  18
ATOM     18  C   UNL     1      -4.043 -10.684  13.993  0.00  0.00    +0.023 A 
ATOM     21  C   UNL     1      -2.716 -10.765  13.570  0.00  0.00    +0.015 A 
ATOM     22  C   UNL     1      -5.032 -10.251  13.109  0.00  0.00    +0.015 A 
ATOM     26  C   UNL     1      -2.379 -10.415  12.263  0.00  0.00    +0.046 A 
ATOM     27  C   UNL     1      -4.694  -9.899  11.802  0.00  0.00    +0.046 A 
ATOM     28  C   UNL     1      -3.368  -9.982  11.379  0.00  0.00    +0.120 A 
BRANCH  28   4
ATOM      4  O   UNL     1      -3.038  -9.640  10.103  0.00  0.00    -0.495 OA
ATOM     30  C   UNL     1      -4.040  -8.988   9.325  0.00  0.00    +0.277 C 
ENDBRANCH  28   4
ENDBRANCH  16  18
ENDBRANCH  10  13
BRANCH   9   6
ATOM      2  O   UNL     1     -11.309  -9.953  18.792  0.00  0.00    -0.270 OA
ATOM      6  N   UNL     1      -9.466 -10.363  17.446  0.00  0.00    -0.307 N 
ATOM     15  C   UNL     1     -10.601  -9.666  17.831  0.00  0.00    +0.244 C 
ATOM     31  H   UNL     1      -8.993 -10.134  16.578  0.00  0.00    +0.149 HD
BRANCH  15  17
ATOM     17  C   UNL     1     -10.970  -8.507  16.979  0.00  0.00    +0.037 A 
ATOM     19  C   UNL     1      -9.986  -7.623  16.537  0.00  0.00    +0.016 A 
ATOM     20  C   UNL     1     -12.303  -8.301  16.620  0.00  0.00    +0.016 A 
ATOM     23  C   UNL     1     -10.333  -6.535  15.737  0.00  0.00    +0.046 A 
ATOM     24  C   UNL     1     -12.650  -7.213  15.820  0.00  0.00    +0.046 A 
ATOM     25  C   UNL     1     -11.664  -6.329  15.379  0.00  0.00    +0.120 A 
BRANCH  25   3
ATOM      3  O   UNL     1     -12.003  -5.268  14.598  0.00  0.00    -0.495 OA
ATOM     29  C   UNL     1     -12.575  -5.557  13.323  0.00  0.00    +0.277 C 
ENDBRANCH  25   3
ENDBRANCH  15  17
ENDBRANCH   9   6
TORSDOF 6
ENDMDL
MODEL 9
REMARK VINA RESULT:      -6.3      6.033     11.617
REMARK  Name = 25338545
REMARK  9 active torsions:
REMARK  status: ('A' for Active; 'I' for Inactive)
REMARK    1  A    between atoms: O_3  and  C_25
REMARK    2  A    between atoms: O_3  and  C_29
REMARK    3  A    between atoms: O_4  and  C_28
REMARK    4  A    between atoms: O_4  and  C_30
REMARK    5  A    between atoms: N_5  and  C_14
REMARK    6  A    between atoms: N_6  and  C_9
REMARK    7  A    between atoms: C_10  and  C_13
REMARK    8  A    between atoms: C_15  and  C_17
REMARK    9  A    between atoms: C_16  and  C_18
REMARK                            x       y       z     vdW  Elec       q    Type
REMARK                         _______ _______ _______ _____ _____    ______ ____
ROOT
ATOM      5  N   UNL     1     -12.043 -11.436  18.673  0.00  0.00    -0.293 NA
ATOM      9  C   UNL     1     -13.002 -10.457  20.559  0.00  0.00    +0.089 C 
ATOM     10  C   UNL     1     -11.161 -10.288  18.961  0.00  0.00    +0.147 C 
ATOM     11  C   UNL     1     -11.690  -9.719  20.291  0.00  0.00    +0.052 C 
ATOM     12  C   UNL     1     -13.358 -11.079  19.218  0.00  0.00    +0.107 C 
ATOM     14  C   UNL     1     -12.113 -11.765  17.255  0.00  0.00    +0.105 C 
ENDROOT
BRANCH  10  13
ATOM      1  O   UNL     1      -9.294 -11.349  20.124  0.00  0.00    -0.336 OA
ATOM      7  N   UNL     1      -8.736 -10.404  18.172  0.00  0.00    -0.190 NA
ATOM      8  N   UNL     1      -7.921 -11.571  19.963  0.00  0.00    -0.056 NA
ATOM     13  C   UNL     1      -9.696 -10.656  19.027  0.00  0.00    +0.245 A 
ATOM     16  C   UNL     1      -7.666 -10.983  18.790  0.00  0.00    +0.202 A 
BRANCH  16  18
ATOM     18  C   UNL     1      -6.356 -10.960  18.206  0.00  0.00    +0.023 A 
ATOM     21  C   UNL     1      -6.147 -10.315  16.987  0.00  0.00    +0.015 A 
ATOM     22  C   UNL     1      -5.293 -11.586  18.856  0.00  0.00    +0.015 A 
ATOM     26  C   UNL     1      -4.874 -10.295  16.419  0.00  0.00    +0.046 A 
ATOM     27  C   UNL     1      -4.019 -11.567  18.287  0.00  0.00    +0.046 A 
ATOM     28  C   UNL     1      -3.809 -10.921  17.069  0.00  0.00    +0.120 A 
BRANCH  28   4
ATOM      4  O   UNL     1      -2.566 -10.902  16.514  0.00  0.00    -0.495 OA
ATOM     30  C   UNL     1      -2.485 -10.641  15.113  0.00  0.00    +0.277 C 
ENDBRANCH  28   4
ENDBRANCH  16  18
ENDBRANCH  10  13
BRANCH   9   6
ATOM      2  O   UNL     1     -15.049 -11.468  22.300  0.00  0.00    -0.270 OA
ATOM      6  N   UNL     1     -12.845 -11.465  21.581  0.00  0.00    -0.307 N 
ATOM     15  C   UNL     1     -13.899 -11.890  22.375  0.00  0.00    +0.244 C 
ATOM     31  H   UNL     1     -11.899 -11.779  21.773  0.00  0.00    +0.149 HD
BRANCH  15  17
ATOM     17  C   UNL     1     -13.568 -12.914  23.398  0.00  0.00    +0.037 A 
ATOM     19  C   UNL     1     -12.450 -13.731  23.232  0.00  0.00    +0.016 A 
ATOM     20  C   UNL     1     -14.376 -13.061  24.526  0.00  0.00    +0.016 A 
ATOM     23  C   UNL     1     -12.139 -14.693  24.193  0.00  0.00    +0.046 A 
ATOM     24  C   UNL     1     -14.066 -14.023  25.487  0.00  0.00    +0.046 A 
ATOM     25  C   UNL     1     -12.947 -14.840  25.320  0.00  0.00    +0.120 A 
BRANCH  25   3
ATOM      3  O   UNL     1     -12.644 -15.778  26.258  0.00  0.00    -0.495 OA
ATOM     29  C   UNL     1     -13.372 -15.727  27.484  0.00  0.00    +0.277 C 
ENDBRANCH  25   3
ENDBRANCH  15  17
ENDBRANCH   9   6
TORSDOF 6
ENDMDL
MODEL 10
REMARK VINA RESULT:      -6.3      2.071      2.580
REMARK  Name = 25338545
REMARK  9 active torsions:
REMARK  status: ('A' for Active; 'I' for Inactive)
REMARK    1  A    between atoms: O_3  and  C_25
REMARK    2  A    between atoms: O_3  and  C_29
REMARK    3  A    between atoms: O_4  and  C_28
REMARK    4  A    between atoms: O_4  and  C_30
REMARK    5  A    between atoms: N_5  and  C_14
REMARK    6  A    between atoms: N_6  and  C_9
REMARK    7  A    between atoms: C_10  and  C_13
REMARK    8  A    between atoms: C_15  and  C_17
REMARK    9  A    between atoms: C_16  and  C_18
REMARK                            x       y       z     vdW  Elec       q    Type
REMARK                         _______ _______ _______ _____ _____    ______ ____
ROOT
ATOM      5  N   UNL     1      -6.867 -12.505  17.763  0.00  0.00    -0.293 NA
ATOM      9  C   UNL     1      -4.691 -11.677  17.646  0.00  0.00    +0.089 C 
ATOM     10  C   UNL     1      -6.933 -11.235  18.511  0.00  0.00    +0.147 C 
ATOM     11  C   UNL     1      -5.543 -10.599  18.316  0.00  0.00    +0.052 C 
ATOM     12  C   UNL     1      -5.476 -12.961  17.867  0.00  0.00    +0.107 C 
ATOM     14  C   UNL     1      -7.805 -13.509  18.251  0.00  0.00    +0.105 C 
ENDROOT
BRANCH  10  13
ATOM      1  O   UNL     1      -7.692  -9.146  17.497  0.00  0.00    -0.336 OA
ATOM      7  N   UNL     1      -9.351 -10.510  18.131  0.00  0.00    -0.190 NA
ATOM      8  N   UNL     1      -8.884  -8.490  17.166  0.00  0.00    -0.056 NA
ATOM     13  C   UNL     1      -8.056 -10.328  18.060  0.00  0.00    +0.245 A 
ATOM     16  C   UNL     1      -9.816  -9.357  17.572  0.00  0.00    +0.202 A 
BRANCH  16  18
ATOM     18  C   UNL     1     -11.221  -9.102  17.430  0.00  0.00    +0.023 A 
ATOM     21  C   UNL     1     -12.137  -9.762  18.249  0.00  0.00    +0.015 A 
ATOM     22  C   UNL     1     -11.671  -8.196  16.469  0.00  0.00    +0.015 A 
ATOM     26  C   UNL     1     -13.502  -9.516  18.109  0.00  0.00    +0.046 A 
ATOM     27  C   UNL     1     -13.037  -7.950  16.328  0.00  0.00    +0.046 A 
ATOM     28  C   UNL     1     -13.952  -8.609  17.148  0.00  0.00    +0.120 A 
BRANCH  28   4
ATOM      4  O   UNL     1     -15.285  -8.369  17.012  0.00  0.00    -0.495 OA
ATOM     30  C   UNL     1     -15.674  -7.039  16.672  0.00  0.00    +0.277 C 
ENDBRANCH  28   4
ENDBRANCH  16  18
ENDBRANCH  10  13
BRANCH   9   6
ATOM      2  O   UNL     1      -2.315 -10.662  16.393  0.00  0.00    -0.270 OA
ATOM      6  N   UNL     1      -4.505 -11.409  16.240  0.00  0.00    -0.307 N 
ATOM     15  C   UNL     1      -3.314 -10.918  15.727  0.00  0.00    +0.244 C 
ATOM     31  H   UNL     1      -5.323 -11.493  15.645  0.00  0.00    +0.149 HD
BRANCH  15  17
ATOM     17  C   UNL     1      -3.292 -10.671  14.262  0.00  0.00    +0.037 A 
ATOM     19  C   UNL     1      -4.485 -10.457  13.572  0.00  0.00    +0.016 A 
ATOM     20  C   UNL     1      -2.077 -10.654  13.576  0.00  0.00    +0.016 A 
ATOM     23  C   UNL     1      -4.464 -10.225  12.197  0.00  0.00    +0.046 A 
ATOM     24  C   UNL     1      -2.057 -10.422  12.201  0.00  0.00    +0.046 A 
ATOM     25  C   UNL     1      -3.250 -10.208  11.511  0.00  0.00    +0.120 A 
BRANCH  25   3
ATOM      3  O   UNL     1      -3.229  -9.982  10.170  0.00  0.00    -0.495 OA
ATOM     29  C   UNL     1      -4.157 -10.718   9.373  0.00  0.00    +0.277 C 
ENDBRANCH  25   3
ENDBRANCH  15  17
ENDBRANCH   9   6
TORSDOF 6
ENDMDL
