MODEL 1
REMARK VINA RESULT:      -7.2      0.000      0.000
REMARK  Name = 28962427
REMARK  10 active torsions:
REMARK  status: ('A' for Active; 'I' for Inactive)
REMARK    1  A    between atoms: O_2  and  C_10
REMARK    2  A    between atoms: N_5  and  C_14
REMARK    3  A    between atoms: N_6  and  C_24
REMARK    4  A    between atoms: C_7  and  C_17
REMARK    5  A    between atoms: C_9  and  C_19
REMARK    6  A    between atoms: C_13  and  C_18
REMARK    7  A    between atoms: C_18  and  C_20
REMARK    8  A    between atoms: C_18  and  C_21
REMARK    9  A    between atoms: C_22  and  C_23
REMARK   10  A    between atoms: C_24  and  C_25
REMARK                            x       y       z     vdW  Elec       q    Type
REMARK                         _______ _______ _______ _____ _____    ______ ____
ROOT
ATOM      7  C   UNL     1     -15.747   7.234  22.184  0.00  0.00    -0.027 C 
ATOM      8  C   UNL     1     -14.397   6.486  22.444  0.00  0.00    +0.028 C 
ATOM      9  C   UNL     1     -13.415   6.669  21.231  0.00  0.00    +0.012 C 
ATOM     10  C   UNL     1     -14.642   5.015  22.889  0.00  0.00    +0.122 C 
ATOM     11  C   UNL     1     -16.643   7.129  23.440  0.00  0.00    +0.007 C 
ATOM     12  C   UNL     1     -15.455   8.732  21.938  0.00  0.00    +0.009 C 
ATOM     13  C   UNL     1     -15.622   4.911  24.081  0.00  0.00    +0.029 C 
ATOM     14  C   UNL     1     -13.188   8.180  20.944  0.00  0.00    +0.076 C 
ATOM     15  C   UNL     1     -16.918   5.690  23.857  0.00  0.00    +0.007 C 
ATOM     16  C   UNL     1     -14.487   8.970  20.789  0.00  0.00    +0.023 C 
ATOM     17  C   UNL     1     -16.520   6.658  20.971  0.00  0.00    +0.011 C 
ATOM     19  C   UNL     1     -12.054   5.981  21.431  0.00  0.00    +0.010 C 
ENDROOT
BRANCH  14   5
ATOM      4  O   UNL     1     -11.312  10.338  20.441  0.00  0.00    -0.276 OA
ATOM      5  N   UNL     1     -12.380   8.385  19.760  0.00  0.00    -0.312 N 
ATOM     22  C   UNL     1     -11.511   9.451  19.616  0.00  0.00    +0.210 C 
ATOM     23  C   UNL     1     -10.779   9.412  18.301  0.00  0.00    +0.109 C 
ATOM     31  H   UNL     1     -12.507   7.745  18.982  0.00  0.00    +0.149 HD
ENDBRANCH  14   5
BRANCH  10   2
ATOM      2  O   UNL     1     -13.411   4.437  23.322  0.00  0.00    -0.391 OA
ATOM     32  H   UNL     1     -13.589   3.898  24.111  0.00  0.00    +0.210 HD
ENDBRANCH  10   2
BRANCH  13  18
ATOM     18  C   UNL     1     -15.952   3.453  24.420  0.00  0.00    +0.077 C 
ATOM     20  C   UNL     1     -16.785   2.830  23.305  0.00  0.00    +0.017 C 
BRANCH  18  21
ATOM      3  O   UNL     1     -17.870   3.101  25.858  0.00  0.00    -0.276 OA
ATOM      6  N   UNL     1     -15.843   3.670  26.831  0.00  0.00    -0.311 N 
ATOM     21  C   UNL     1     -16.677   3.383  25.761  0.00  0.00    +0.216 C 
ATOM     33  H   UNL     1     -14.855   3.842  26.674  0.00  0.00    +0.149 HD
BRANCH   6  24
ATOM     24  C   UNL     1     -16.302   3.669  28.201  0.00  0.00    +0.141 C 
BRANCH  24  25
ATOM      1 CL   UNL     1     -17.363   0.773  28.328  0.00  0.00    -0.083 Cl
ATOM     25  C   UNL     1     -15.552   2.679  29.044  0.00  0.00    -0.012 A 
ATOM     26  C   UNL     1     -15.964   1.351  29.157  0.00  0.00    +0.046 A 
ATOM     27  C   UNL     1     -14.417   3.117  29.727  0.00  0.00    +0.006 A 
ATOM     28  C   UNL     1     -15.240   0.461  29.950  0.00  0.00    +0.020 A 
ATOM     29  C   UNL     1     -13.693   2.226  30.519  0.00  0.00    +0.000 A 
ATOM     30  C   UNL     1     -14.104   0.898  30.632  0.00  0.00    +0.001 A 
ENDBRANCH  24  25
ENDBRANCH   6  24
ENDBRANCH  18  21
ENDBRANCH  13  18
TORSDOF 6
ENDMDL
MODEL 2
REMARK VINA RESULT:      -7.1     20.623     23.377
REMARK  Name = 28962427
REMARK  10 active torsions:
REMARK  status: ('A' for Active; 'I' for Inactive)
REMARK    1  A    between atoms: O_2  and  C_10
REMARK    2  A    between atoms: N_5  and  C_14
REMARK    3  A    between atoms: N_6  and  C_24
REMARK    4  A    between atoms: C_7  and  C_17
REMARK    5  A    between atoms: C_9  and  C_19
REMARK    6  A    between atoms: C_13  and  C_18
REMARK    7  A    between atoms: C_18  and  C_20
REMARK    8  A    between atoms: C_18  and  C_21
REMARK    9  A    between atoms: C_22  and  C_23
REMARK   10  A    between atoms: C_24  and  C_25
REMARK                            x       y       z     vdW  Elec       q    Type
REMARK                         _______ _______ _______ _____ _____    ______ ____
ROOT
ATOM      7  C   UNL     1      -2.843 -10.629  12.448  0.00  0.00    -0.027 C 
ATOM      8  C   UNL     1      -4.306 -10.383  12.944  0.00  0.00    +0.028 C 
ATOM      9  C   UNL     1      -4.639 -11.294  14.179  0.00  0.00    +0.012 C 
ATOM     10  C   UNL     1      -5.322 -10.457  11.767  0.00  0.00    +0.122 C 
ATOM     11  C   UNL     1      -2.512  -9.639  11.307  0.00  0.00    +0.007 C 
ATOM     12  C   UNL     1      -1.862 -10.352  13.611  0.00  0.00    +0.009 C 
ATOM     13  C   UNL     1      -4.928  -9.541  10.584  0.00  0.00    +0.029 C 
ATOM     14  C   UNL     1      -3.602 -11.062  15.314  0.00  0.00    +0.076 C 
ATOM     15  C   UNL     1      -3.480  -9.736  10.135  0.00  0.00    +0.007 C 
ATOM     16  C   UNL     1      -2.152 -11.189  14.848  0.00  0.00    +0.023 C 
ATOM     17  C   UNL     1      -2.627 -12.074  11.931  0.00  0.00    +0.011 C 
ATOM     19  C   UNL     1      -6.056 -11.084  14.738  0.00  0.00    +0.010 C 
ENDROOT
BRANCH  14   5
ATOM      4  O   UNL     1      -4.765 -10.448  17.903  0.00  0.00    -0.276 OA
ATOM      5  N   UNL     1      -3.809 -11.970  16.423  0.00  0.00    -0.312 N 
ATOM     22  C   UNL     1      -4.375 -11.578  17.623  0.00  0.00    +0.210 C 
ATOM     23  C   UNL     1      -4.496 -12.723  18.594  0.00  0.00    +0.109 C 
ATOM     31  H   UNL     1      -3.468 -12.922  16.328  0.00  0.00    +0.149 HD
ENDBRANCH  14   5
BRANCH  10   2
ATOM      2  O   UNL     1      -6.604 -10.017  12.214  0.00  0.00    -0.391 OA
ATOM     32  H   UNL     1      -7.008  -9.488  11.506  0.00  0.00    +0.210 HD
ENDBRANCH  10   2
BRANCH  13  18
ATOM     18  C   UNL     1      -5.866  -9.726   9.385  0.00  0.00    +0.077 C 
ATOM     20  C   UNL     1      -5.064  -9.745   8.089  0.00  0.00    +0.017 C 
BRANCH  18  21
ATOM      3  O   UNL     1      -7.892  -8.622  10.121  0.00  0.00    -0.276 OA
ATOM      6  N   UNL     1      -6.642  -7.637   8.433  0.00  0.00    -0.311 N 
ATOM     21  C   UNL     1      -6.916  -8.621   9.373  0.00  0.00    +0.216 C 
ATOM     33  H   UNL     1      -5.787  -7.680   7.889  0.00  0.00    +0.149 HD
BRANCH   6  24
ATOM     24  C   UNL     1      -7.495  -6.489   8.234  0.00  0.00    +0.141 C 
BRANCH  24  25
ATOM      1 CL   UNL     1     -10.366  -5.607   8.947  0.00  0.00    -0.083 Cl
ATOM     25  C   UNL     1      -8.585  -6.764   7.239  0.00  0.00    -0.012 A 
ATOM     26  C   UNL     1      -9.909  -6.399   7.482  0.00  0.00    +0.046 A 
ATOM     27  C   UNL     1      -8.246  -7.402   6.046  0.00  0.00    +0.006 A 
ATOM     28  C   UNL     1     -10.894  -6.671   6.533  0.00  0.00    +0.020 A 
ATOM     29  C   UNL     1      -9.231  -7.674   5.096  0.00  0.00    +0.000 A 
ATOM     30  C   UNL     1     -10.555  -7.309   5.339  0.00  0.00    +0.001 A 
ENDBRANCH  24  25
ENDBRANCH   6  24
ENDBRANCH  18  21
ENDBRANCH  13  18
TORSDOF 6
ENDMDL
MODEL 3
REMARK VINA RESULT:      -7.0     21.401     23.111
REMARK  Name = 28962427
REMARK  10 active torsions:
REMARK  status: ('A' for Active; 'I' for Inactive)
REMARK    1  A    between atoms: O_2  and  C_10
REMARK    2  A    between atoms: N_5  and  C_14
REMARK    3  A    between atoms: N_6  and  C_24
REMARK    4  A    between atoms: C_7  and  C_17
REMARK    5  A    between atoms: C_9  and  C_19
REMARK    6  A    between atoms: C_13  and  C_18
REMARK    7  A    between atoms: C_18  and  C_20
REMARK    8  A    between atoms: C_18  and  C_21
REMARK    9  A    between atoms: C_22  and  C_23
REMARK   10  A    between atoms: C_24  and  C_25
REMARK                            x       y       z     vdW  Elec       q    Type
REMARK                         _______ _______ _______ _____ _____    ______ ____
ROOT
ATOM      7  C   UNL     1      -5.099 -12.583   9.985  0.00  0.00    -0.027 C 
ATOM      8  C   UNL     1      -4.622 -11.115  10.243  0.00  0.00    +0.028 C 
ATOM      9  C   UNL     1      -4.639 -10.279   8.914  0.00  0.00    +0.012 C 
ATOM     10  C   UNL     1      -3.280 -11.088  11.031  0.00  0.00    +0.122 C 
ATOM     11  C   UNL     1      -5.178 -13.343  11.329  0.00  0.00    +0.007 C 
ATOM     12  C   UNL     1      -6.521 -12.551   9.378  0.00  0.00    +0.009 C 
ATOM     13  C   UNL     1      -3.333 -11.937  12.323  0.00  0.00    +0.029 C 
ATOM     14  C   UNL     1      -6.055 -10.317   8.272  0.00  0.00    +0.076 C 
ATOM     15  C   UNL     1      -3.856 -13.353  12.086  0.00  0.00    +0.007 C 
ATOM     16  C   UNL     1      -6.606 -11.732   8.099  0.00  0.00    +0.023 C 
ATOM     17  C   UNL     1      -4.154 -13.355   9.030  0.00  0.00    +0.011 C 
ATOM     19  C   UNL     1      -4.206  -8.815   9.099  0.00  0.00    +0.010 C 
ENDROOT
BRANCH  14   5
ATOM      4  O   UNL     1      -8.308  -8.986   7.015  0.00  0.00    -0.276 OA
ATOM      5  N   UNL     1      -6.079  -9.654   6.986  0.00  0.00    -0.312 N 
ATOM     22  C   UNL     1      -7.209  -9.045   6.471  0.00  0.00    +0.210 C 
ATOM     23  C   UNL     1      -6.952  -8.411   5.130  0.00  0.00    +0.109 C 
ATOM     31  H   UNL     1      -5.238  -9.691   6.416  0.00  0.00    +0.149 HD
ENDBRANCH  14   5
BRANCH  10   2
ATOM      2  O   UNL     1      -2.990  -9.750  11.434  0.00  0.00    -0.391 OA
ATOM     32  H   UNL     1      -2.029  -9.671  11.555  0.00  0.00    +0.210 HD
ENDBRANCH  10   2
BRANCH  13  18
ATOM     18  C   UNL     1      -1.966 -12.005  13.015  0.00  0.00    +0.077 C 
ATOM     20  C   UNL     1      -1.645 -13.444  13.405  0.00  0.00    +0.017 C 
BRANCH  18  21
ATOM      3  O   UNL     1      -1.510  -9.937  14.191  0.00  0.00    -0.276 OA
ATOM      6  N   UNL     1      -2.490 -11.685  15.360  0.00  0.00    -0.311 N 
ATOM     21  C   UNL     1      -1.954 -11.083  14.231  0.00  0.00    +0.216 C 
ATOM     33  H   UNL     1      -2.884 -12.618  15.299  0.00  0.00    +0.149 HD
BRANCH   6  24
ATOM     24  C   UNL     1      -2.584 -11.011  16.634  0.00  0.00    +0.141 C 
BRANCH  24  25
ATOM      1 CL   UNL     1      -3.502 -12.114  19.366  0.00  0.00    -0.083 Cl
ATOM     25  C   UNL     1      -4.009 -10.780  17.044  0.00  0.00    -0.012 A 
ATOM     26  C   UNL     1      -4.505 -11.245  18.262  0.00  0.00    +0.046 A 
ATOM     27  C   UNL     1      -4.844 -10.081  16.172  0.00  0.00    +0.006 A 
ATOM     28  C   UNL     1      -5.836 -11.011  18.608  0.00  0.00    +0.020 A 
ATOM     29  C   UNL     1      -6.175  -9.847  16.519  0.00  0.00    +0.000 A 
ATOM     30  C   UNL     1      -6.671 -10.312  17.737  0.00  0.00    +0.001 A 
ENDBRANCH  24  25
ENDBRANCH   6  24
ENDBRANCH  18  21
ENDBRANCH  13  18
TORSDOF 6
ENDMDL
MODEL 4
REMARK VINA RESULT:      -6.8     19.762     22.617
REMARK  Name = 28962427
REMARK  10 active torsions:
REMARK  status: ('A' for Active; 'I' for Inactive)
REMARK    1  A    between atoms: O_2  and  C_10
REMARK    2  A    between atoms: N_5  and  C_14
REMARK    3  A    between atoms: N_6  and  C_24
REMARK    4  A    between atoms: C_7  and  C_17
REMARK    5  A    between atoms: C_9  and  C_19
REMARK    6  A    between atoms: C_13  and  C_18
REMARK    7  A    between atoms: C_18  and  C_20
REMARK    8  A    between atoms: C_18  and  C_21
REMARK    9  A    between atoms: C_22  and  C_23
REMARK   10  A    between atoms: C_24  and  C_25
REMARK                            x       y       z     vdW  Elec       q    Type
REMARK                         _______ _______ _______ _____ _____    ______ ____
ROOT
ATOM      7  C   UNL     1      -4.796 -11.029  16.876  0.00  0.00    -0.027 C 
ATOM      8  C   UNL     1      -5.582 -10.421  15.667  0.00  0.00    +0.028 C 
ATOM      9  C   UNL     1      -7.132 -10.527  15.898  0.00  0.00    +0.012 C 
ATOM     10  C   UNL     1      -5.069 -10.993  14.313  0.00  0.00    +0.122 C 
ATOM     11  C   UNL     1      -3.280 -10.807  16.667  0.00  0.00    +0.007 C 
ATOM     12  C   UNL     1      -5.207 -10.288  18.169  0.00  0.00    +0.009 C 
ATOM     13  C   UNL     1      -3.535 -10.863  14.157  0.00  0.00    +0.029 C 
ATOM     14  C   UNL     1      -7.525  -9.844  17.238  0.00  0.00    +0.076 C 
ATOM     15  C   UNL     1      -2.765 -11.400  15.363  0.00  0.00    +0.007 C 
ATOM     16  C   UNL     1      -6.705 -10.334  18.432  0.00  0.00    +0.023 C 
ATOM     17  C   UNL     1      -5.058 -12.546  17.051  0.00  0.00    +0.011 C 
ATOM     19  C   UNL     1      -7.969  -9.922  14.758  0.00  0.00    +0.010 C 
ENDROOT
BRANCH  14   5
ATOM      4  O   UNL     1      -9.562  -7.786  17.446  0.00  0.00    -0.276 OA
ATOM      5  N   UNL     1      -8.929 -10.023  17.541  0.00  0.00    -0.312 N 
ATOM     22  C   UNL     1      -9.825  -8.973  17.618  0.00  0.00    +0.210 C 
ATOM     23  C   UNL     1     -11.223  -9.440  17.922  0.00  0.00    +0.109 C 
ATOM     31  H   UNL     1      -9.251 -10.962  17.762  0.00  0.00    +0.149 HD
ENDBRANCH  14   5
BRANCH  10   2
ATOM      2  O   UNL     1      -5.652 -10.264  13.234  0.00  0.00    -0.391 OA
ATOM     32  H   UNL     1      -5.149 -10.461  12.427  0.00  0.00    +0.210 HD
ENDBRANCH  10   2
BRANCH  13  18
ATOM     18  C   UNL     1      -3.033 -11.548  12.881  0.00  0.00    +0.077 C 
ATOM     20  C   UNL     1      -1.832 -12.433  13.197  0.00  0.00    +0.017 C 
BRANCH  18  21
ATOM      3  O   UNL     1      -1.603  -9.922  11.796  0.00  0.00    -0.276 OA
ATOM      6  N   UNL     1      -3.728 -10.279  10.936  0.00  0.00    -0.311 N 
ATOM     21  C   UNL     1      -2.689 -10.498  11.829  0.00  0.00    +0.216 C 
ATOM     33  H   UNL     1      -4.575 -10.834  10.998  0.00  0.00    +0.149 HD
BRANCH   6  24
ATOM     24  C   UNL     1      -3.638  -9.328   9.852  0.00  0.00    +0.141 C 
BRANCH  24  25
ATOM      1 CL   UNL     1      -4.457 -11.303   7.626  0.00  0.00    -0.083 Cl
ATOM     25  C   UNL     1      -4.962  -9.120   9.177  0.00  0.00    -0.012 A 
ATOM     26  C   UNL     1      -5.409  -9.965   8.161  0.00  0.00    +0.046 A 
ATOM     27  C   UNL     1      -5.753  -8.047   9.588  0.00  0.00    +0.006 A 
ATOM     28  C   UNL     1      -6.646  -9.739   7.558  0.00  0.00    +0.020 A 
ATOM     29  C   UNL     1      -6.991  -7.821   8.985  0.00  0.00    +0.000 A 
ATOM     30  C   UNL     1      -7.437  -8.666   7.970  0.00  0.00    +0.001 A 
ENDBRANCH  24  25
ENDBRANCH   6  24
ENDBRANCH  18  21
ENDBRANCH  13  18
TORSDOF 6
ENDMDL
MODEL 5
REMARK VINA RESULT:      -6.8     30.070     34.462
REMARK  Name = 28962427
REMARK  10 active torsions:
REMARK  status: ('A' for Active; 'I' for Inactive)
REMARK    1  A    between atoms: O_2  and  C_10
REMARK    2  A    between atoms: N_5  and  C_14
REMARK    3  A    between atoms: N_6  and  C_24
REMARK    4  A    between atoms: C_7  and  C_17
REMARK    5  A    between atoms: C_9  and  C_19
REMARK    6  A    between atoms: C_13  and  C_18
REMARK    7  A    between atoms: C_18  and  C_20
REMARK    8  A    between atoms: C_18  and  C_21
REMARK    9  A    between atoms: C_22  and  C_23
REMARK   10  A    between atoms: C_24  and  C_25
REMARK                            x       y       z     vdW  Elec       q    Type
REMARK                         _______ _______ _______ _____ _____    ______ ____
ROOT
ATOM      7  C   UNL     1      12.832   4.388   0.232  0.00  0.00    -0.027 C 
ATOM      8  C   UNL     1      11.417   5.032   0.060  0.00  0.00    +0.028 C 
ATOM      9  C   UNL     1      10.954   4.971  -1.440  0.00  0.00    +0.012 C 
ATOM     10  C   UNL     1      11.352   6.439   0.722  0.00  0.00    +0.122 C 
ATOM     11  C   UNL     1      13.207   4.362   1.733  0.00  0.00    +0.007 C 
ATOM     12  C   UNL     1      12.785   2.925  -0.266  0.00  0.00    +0.009 C 
ATOM     13  C   UNL     1      11.828   6.424   2.194  0.00  0.00    +0.029 C 
ATOM     14  C   UNL     1      10.983   3.504  -1.954  0.00  0.00    +0.076 C 
ATOM     15  C   UNL     1      13.183   5.742   2.376  0.00  0.00    +0.007 C 
ATOM     16  C   UNL     1      12.317   2.801  -1.709  0.00  0.00    +0.023 C 
ATOM     17  C   UNL     1      13.932   5.156  -0.543  0.00  0.00    +0.011 C 
ATOM     19  C   UNL     1       9.555   5.564  -1.679  0.00  0.00    +0.010 C 
ENDROOT
BRANCH  14   5
ATOM      4  O   UNL     1       9.263   1.576  -3.278  0.00  0.00    -0.276 OA
ATOM      5  N   UNL     1      10.674   3.425  -3.366  0.00  0.00    -0.312 N 
ATOM     22  C   UNL     1       9.838   2.463  -3.902  0.00  0.00    +0.210 C 
ATOM     23  C   UNL     1       9.669   2.623  -5.390  0.00  0.00    +0.109 C 
ATOM     31  H   UNL     1      11.142   4.073  -3.992  0.00  0.00    +0.149 HD
ENDBRANCH  14   5
BRANCH  10   2
ATOM      2  O   UNL     1      10.000   6.898   0.736  0.00  0.00    -0.391 OA
ATOM     32  H   UNL     1       9.415   6.122   0.733  0.00  0.00    +0.210 HD
ENDBRANCH  10   2
BRANCH  13  18
ATOM     18  C   UNL     1      11.881   7.837   2.788  0.00  0.00    +0.077 C 
ATOM     20  C   UNL     1      13.305   8.173   3.218  0.00  0.00    +0.017 C 
BRANCH  18  21
ATOM      3  O   UNL     1      11.067   8.739   4.883  0.00  0.00    -0.276 OA
ATOM      6  N   UNL     1       9.846   7.059   3.850  0.00  0.00    -0.311 N 
ATOM     21  C   UNL     1      10.907   7.946   3.957  0.00  0.00    +0.216 C 
ATOM     33  H   UNL     1       9.757   6.472   3.027  0.00  0.00    +0.149 HD
BRANCH   6  24
ATOM     24  C   UNL     1       8.796   6.975   4.838  0.00  0.00    +0.141 C 
BRANCH  24  25
ATOM      1 CL   UNL     1       8.743   8.191   7.674  0.00  0.00    -0.083 Cl
ATOM     25  C   UNL     1       9.178   6.093   5.991  0.00  0.00    -0.012 A 
ATOM     26  C   UNL     1       9.181   6.563   7.304  0.00  0.00    +0.046 A 
ATOM     27  C   UNL     1       9.537   4.772   5.723  0.00  0.00    +0.006 A 
ATOM     28  C   UNL     1       9.542   5.713   8.349  0.00  0.00    +0.020 A 
ATOM     29  C   UNL     1       9.898   3.922   6.768  0.00  0.00    +0.000 A 
ATOM     30  C   UNL     1       9.901   4.392   8.081  0.00  0.00    +0.001 A 
ENDBRANCH  24  25
ENDBRANCH   6  24
ENDBRANCH  18  21
ENDBRANCH  13  18
TORSDOF 6
ENDMDL
MODEL 6
REMARK VINA RESULT:      -6.8      4.466     10.670
REMARK  Name = 28962427
REMARK  10 active torsions:
REMARK  status: ('A' for Active; 'I' for Inactive)
REMARK    1  A    between atoms: O_2  and  C_10
REMARK    2  A    between atoms: N_5  and  C_14
REMARK    3  A    between atoms: N_6  and  C_24
REMARK    4  A    between atoms: C_7  and  C_17
REMARK    5  A    between atoms: C_9  and  C_19
REMARK    6  A    between atoms: C_13  and  C_18
REMARK    7  A    between atoms: C_18  and  C_20
REMARK    8  A    between atoms: C_18  and  C_21
REMARK    9  A    between atoms: C_22  and  C_23
REMARK   10  A    between atoms: C_24  and  C_25
REMARK                            x       y       z     vdW  Elec       q    Type
REMARK                         _______ _______ _______ _____ _____    ______ ____
ROOT
ATOM      7  C   UNL     1     -15.148   7.623  20.630  0.00  0.00    -0.027 C 
ATOM      8  C   UNL     1     -13.949   6.698  21.026  0.00  0.00    +0.028 C 
ATOM      9  C   UNL     1     -14.249   5.937  22.366  0.00  0.00    +0.012 C 
ATOM     10  C   UNL     1     -12.601   7.474  20.986  0.00  0.00    +0.122 C 
ATOM     11  C   UNL     1     -14.868   8.269  19.253  0.00  0.00    +0.007 C 
ATOM     12  C   UNL     1     -16.426   6.763  20.496  0.00  0.00    +0.009 C 
ATOM     13  C   UNL     1     -12.375   8.204  19.641  0.00  0.00    +0.029 C 
ATOM     14  C   UNL     1     -15.576   5.135  22.245  0.00  0.00    +0.076 C 
ATOM     15  C   UNL     1     -13.569   9.062  19.221  0.00  0.00    +0.007 C 
ATOM     16  C   UNL     1     -16.753   5.979  21.759  0.00  0.00    +0.023 C 
ATOM     17  C   UNL     1     -15.397   8.748  21.667  0.00  0.00    +0.011 C 
ATOM     19  C   UNL     1     -13.121   4.986  22.802  0.00  0.00    +0.010 C 
ENDROOT
BRANCH  14   5
ATOM      4  O   UNL     1     -16.508   2.417  22.663  0.00  0.00    -0.276 OA
ATOM      5  N   UNL     1     -15.944   4.514  23.500  0.00  0.00    -0.312 N 
ATOM     22  C   UNL     1     -16.379   3.205  23.596  0.00  0.00    +0.210 C 
ATOM     23  C   UNL     1     -16.671   2.806  25.018  0.00  0.00    +0.109 C 
ATOM     31  H   UNL     1     -15.934   5.091  24.337  0.00  0.00    +0.149 HD
ENDBRANCH  14   5
BRANCH  10   2
ATOM      2  O   UNL     1     -11.518   6.556  21.138  0.00  0.00    -0.391 OA
ATOM     32  H   UNL     1     -10.689   7.064  21.153  0.00  0.00    +0.210 HD
ENDBRANCH  10   2
BRANCH  13  18
ATOM     18  C   UNL     1     -11.108   9.067  19.668  0.00  0.00    +0.077 C 
ATOM     20  C   UNL     1     -11.328  10.297  20.543  0.00  0.00    +0.017 C 
BRANCH  18  21
ATOM      3  O   UNL     1     -10.340  10.591  17.950  0.00  0.00    -0.276 OA
ATOM      6  N   UNL     1     -10.835   8.405  17.353  0.00  0.00    -0.311 N 
ATOM     21  C   UNL     1     -10.716   9.459  18.247  0.00  0.00    +0.216 C 
ATOM     33  H   UNL     1     -11.102   7.484  17.687  0.00  0.00    +0.149 HD
BRANCH   6  24
ATOM     24  C   UNL     1     -10.522   8.533  15.949  0.00  0.00    +0.141 C 
BRANCH  24  25
ATOM      1 CL   UNL     1     -10.025   7.529  13.073  0.00  0.00    -0.083 Cl
ATOM     25  C   UNL     1     -11.716   8.262  15.080  0.00  0.00    -0.012 A 
ATOM     26  C   UNL     1     -11.580   7.807  13.769  0.00  0.00    +0.046 A 
ATOM     27  C   UNL     1     -12.986   8.478  15.615  0.00  0.00    +0.006 A 
ATOM     28  C   UNL     1     -12.714   7.567  12.992  0.00  0.00    +0.020 A 
ATOM     29  C   UNL     1     -14.120   8.237  14.839  0.00  0.00    +0.000 A 
ATOM     30  C   UNL     1     -13.984   7.781  13.527  0.00  0.00    +0.001 A 
ENDBRANCH  24  25
ENDBRANCH   6  24
ENDBRANCH  18  21
ENDBRANCH  13  18
TORSDOF 6
ENDMDL
MODEL 7
REMARK VINA RESULT:      -6.8     17.222     18.878
REMARK  Name = 28962427
REMARK  10 active torsions:
REMARK  status: ('A' for Active; 'I' for Inactive)
REMARK    1  A    between atoms: O_2  and  C_10
REMARK    2  A    between atoms: N_5  and  C_14
REMARK    3  A    between atoms: N_6  and  C_24
REMARK    4  A    between atoms: C_7  and  C_17
REMARK    5  A    between atoms: C_9  and  C_19
REMARK    6  A    between atoms: C_13  and  C_18
REMARK    7  A    between atoms: C_18  and  C_20
REMARK    8  A    between atoms: C_18  and  C_21
REMARK    9  A    between atoms: C_22  and  C_23
REMARK   10  A    between atoms: C_24  and  C_25
REMARK                            x       y       z     vdW  Elec       q    Type
REMARK                         _______ _______ _______ _____ _____    ______ ____
ROOT
ATOM      7  C   UNL     1      -6.287 -11.560  18.857  0.00  0.00    -0.027 C 
ATOM      8  C   UNL     1      -6.671 -11.238  17.375  0.00  0.00    +0.028 C 
ATOM      9  C   UNL     1      -5.556 -10.375  16.683  0.00  0.00    +0.012 C 
ATOM     10  C   UNL     1      -8.116 -10.668  17.276  0.00  0.00    +0.122 C 
ATOM     11  C   UNL     1      -7.348 -12.503  19.471  0.00  0.00    +0.007 C 
ATOM     12  C   UNL     1      -4.930 -12.301  18.878  0.00  0.00    +0.009 C 
ATOM     13  C   UNL     1      -9.158 -11.565  17.984  0.00  0.00    +0.029 C 
ATOM     14  C   UNL     1      -4.182 -11.094  16.776  0.00  0.00    +0.076 C 
ATOM     15  C   UNL     1      -8.758 -11.931  19.413  0.00  0.00    +0.007 C 
ATOM     16  C   UNL     1      -3.815 -11.521  18.197  0.00  0.00    +0.023 C 
ATOM     17  C   UNL     1      -6.187 -10.286  19.733  0.00  0.00    +0.011 C 
ATOM     19  C   UNL     1      -5.856 -10.044  15.211  0.00  0.00    +0.010 C 
ENDROOT
BRANCH  14   5
ATOM      4  O   UNL     1      -2.023 -11.922  15.019  0.00  0.00    -0.276 OA
ATOM      5  N   UNL     1      -3.110 -10.274  16.252  0.00  0.00    -0.312 N 
ATOM     22  C   UNL     1      -2.123 -10.765  15.417  0.00  0.00    +0.210 C 
ATOM     23  C   UNL     1      -1.149  -9.696  15.000  0.00  0.00    +0.109 C 
ATOM     31  H   UNL     1      -3.055  -9.308  16.563  0.00  0.00    +0.149 HD
ENDBRANCH  14   5
BRANCH  10   2
ATOM      2  O   UNL     1      -8.506 -10.592  15.905  0.00  0.00    -0.391 OA
ATOM     32  H   UNL     1      -7.702 -10.546  15.362  0.00  0.00    +0.210 HD
ENDBRANCH  10   2
BRANCH  13  18
ATOM     18  C   UNL     1     -10.550 -10.922  17.990  0.00  0.00    +0.077 C 
ATOM     20  C   UNL     1     -10.481  -9.523  18.591  0.00  0.00    +0.017 C 
BRANCH  18  21
ATOM      3  O   UNL     1     -11.799 -12.955  18.405  0.00  0.00    -0.276 OA
ATOM      6  N   UNL     1     -12.061 -11.175  19.868  0.00  0.00    -0.311 N 
ATOM     21  C   UNL     1     -11.528 -11.809  18.755  0.00  0.00    +0.216 C 
ATOM     33  H   UNL     1     -11.746 -10.244  20.120  0.00  0.00    +0.149 HD
BRANCH   6  24
ATOM     24  C   UNL     1     -13.012 -11.812  20.748  0.00  0.00    +0.141 C 
BRANCH  24  25
ATOM      1 CL   UNL     1     -15.267 -12.934  22.533  0.00  0.00    -0.083 Cl
ATOM     25  C   UNL     1     -14.173 -10.915  21.067  0.00  0.00    -0.012 A 
ATOM     26  C   UNL     1     -15.233 -11.342  21.865  0.00  0.00    +0.046 A 
ATOM     27  C   UNL     1     -14.174  -9.622  20.541  0.00  0.00    +0.006 A 
ATOM     28  C   UNL     1     -16.294 -10.479  22.139  0.00  0.00    +0.020 A 
ATOM     29  C   UNL     1     -15.234  -8.759  20.815  0.00  0.00    +0.000 A 
ATOM     30  C   UNL     1     -16.294  -9.186  21.614  0.00  0.00    +0.001 A 
ENDBRANCH  24  25
ENDBRANCH   6  24
ENDBRANCH  18  21
ENDBRANCH  13  18
TORSDOF 6
ENDMDL
MODEL 8
REMARK VINA RESULT:      -6.7     19.617     22.119
REMARK  Name = 28962427
REMARK  10 active torsions:
REMARK  status: ('A' for Active; 'I' for Inactive)
REMARK    1  A    between atoms: O_2  and  C_10
REMARK    2  A    between atoms: N_5  and  C_14
REMARK    3  A    between atoms: N_6  and  C_24
REMARK    4  A    between atoms: C_7  and  C_17
REMARK    5  A    between atoms: C_9  and  C_19
REMARK    6  A    between atoms: C_13  and  C_18
REMARK    7  A    between atoms: C_18  and  C_20
REMARK    8  A    between atoms: C_18  and  C_21
REMARK    9  A    between atoms: C_22  and  C_23
REMARK   10  A    between atoms: C_24  and  C_25
REMARK                            x       y       z     vdW  Elec       q    Type
REMARK                         _______ _______ _______ _____ _____    ______ ____
ROOT
ATOM      7  C   UNL     1      -6.379 -10.911  17.499  0.00  0.00    -0.027 C 
ATOM      8  C   UNL     1      -6.056 -10.208  16.139  0.00  0.00    +0.028 C 
ATOM      9  C   UNL     1      -7.295 -10.261  15.174  0.00  0.00    +0.012 C 
ATOM     10  C   UNL     1      -4.719 -10.730  15.537  0.00  0.00    +0.122 C 
ATOM     11  C   UNL     1      -5.181 -10.742  18.463  0.00  0.00    +0.007 C 
ATOM     12  C   UNL     1      -7.603 -10.221  18.145  0.00  0.00    +0.009 C 
ATOM     13  C   UNL     1      -3.546 -10.655  16.543  0.00  0.00    +0.029 C 
ATOM     14  C   UNL     1      -8.540  -9.633  15.862  0.00  0.00    +0.076 C 
ATOM     15  C   UNL     1      -3.878 -11.287  17.894  0.00  0.00    +0.007 C 
ATOM     16  C   UNL     1      -8.830 -10.218  17.244  0.00  0.00    +0.023 C 
ATOM     17  C   UNL     1      -6.674 -12.423  17.331  0.00  0.00    +0.011 C 
ATOM     19  C   UNL     1      -7.057  -9.563  13.825  0.00  0.00    +0.010 C 
ENDROOT
BRANCH  14   5
ATOM      4  O   UNL     1     -10.483  -7.575  15.219  0.00  0.00    -0.276 OA
ATOM      5  N   UNL     1      -9.729  -9.769  15.047  0.00  0.00    -0.312 N 
ATOM     22  C   UNL     1     -10.597  -8.723  14.798  0.00  0.00    +0.210 C 
ATOM     23  C   UNL     1     -11.736  -9.130  13.902  0.00  0.00    +0.109 C 
ATOM     31  H   UNL     1      -9.959 -10.694  14.693  0.00  0.00    +0.149 HD
ENDBRANCH  14   5
BRANCH  10   2
ATOM      2  O   UNL     1      -4.350  -9.921  14.420  0.00  0.00    -0.391 OA
ATOM     32  H   UNL     1      -4.961 -10.116  13.689  0.00  0.00    +0.210 HD
ENDBRANCH  10   2
BRANCH  13  18
ATOM     18  C   UNL     1      -2.272 -11.293  15.978  0.00  0.00    +0.077 C 
ATOM     20  C   UNL     1      -1.185 -10.237  15.809  0.00  0.00    +0.017 C 
BRANCH  18  21
ATOM      3  O   UNL     1      -3.268 -13.005  14.584  0.00  0.00    -0.276 OA
ATOM      6  N   UNL     1      -2.004 -11.346  13.570  0.00  0.00    -0.311 N 
ATOM     21  C   UNL     1      -2.581 -11.988  14.656  0.00  0.00    +0.216 C 
ATOM     33  H   UNL     1      -1.493 -10.480  13.705  0.00  0.00    +0.149 HD
BRANCH   6  24
ATOM     24  C   UNL     1      -2.154 -11.819  12.213  0.00  0.00    +0.141 C 
BRANCH  24  25
ATOM      1 CL   UNL     1      -1.032  -9.173  11.088  0.00  0.00    -0.083 Cl
ATOM     25  C   UNL     1      -3.075 -10.946  11.412  0.00  0.00    -0.012 A 
ATOM     26  C   UNL     1      -2.649  -9.735  10.868  0.00  0.00    +0.046 A 
ATOM     27  C   UNL     1      -4.389 -11.374  11.217  0.00  0.00    +0.006 A 
ATOM     28  C   UNL     1      -3.535  -8.951  10.129  0.00  0.00    +0.020 A 
ATOM     29  C   UNL     1      -5.275 -10.590  10.478  0.00  0.00    +0.000 A 
ATOM     30  C   UNL     1      -4.849  -9.379   9.934  0.00  0.00    +0.001 A 
ENDBRANCH  24  25
ENDBRANCH   6  24
ENDBRANCH  18  21
ENDBRANCH  13  18
TORSDOF 6
ENDMDL
MODEL 9
REMARK VINA RESULT:      -6.7     19.588     21.355
REMARK  Name = 28962427
REMARK  10 active torsions:
REMARK  status: ('A' for Active; 'I' for Inactive)
REMARK    1  A    between atoms: O_2  and  C_10
REMARK    2  A    between atoms: N_5  and  C_14
REMARK    3  A    between atoms: N_6  and  C_24
REMARK    4  A    between atoms: C_7  and  C_17
REMARK    5  A    between atoms: C_9  and  C_19
REMARK    6  A    between atoms: C_13  and  C_18
REMARK    7  A    between atoms: C_18  and  C_20
REMARK    8  A    between atoms: C_18  and  C_21
REMARK    9  A    between atoms: C_22  and  C_23
REMARK   10  A    between atoms: C_24  and  C_25
REMARK                            x       y       z     vdW  Elec       q    Type
REMARK                         _______ _______ _______ _____ _____    ______ ____
ROOT
ATOM      7  C   UNL     1      -3.374 -11.259  11.666  0.00  0.00    -0.027 C 
ATOM      8  C   UNL     1      -4.725 -10.708  12.232  0.00  0.00    +0.028 C 
ATOM      9  C   UNL     1      -5.390  -9.710  11.217  0.00  0.00    +0.012 C 
ATOM     10  C   UNL     1      -4.553 -10.170  13.682  0.00  0.00    +0.122 C 
ATOM     11  C   UNL     1      -2.804 -12.321  12.636  0.00  0.00    +0.007 C 
ATOM     12  C   UNL     1      -3.640 -11.954  10.311  0.00  0.00    +0.009 C 
ATOM     13  C   UNL     1      -3.886 -11.202  14.623  0.00  0.00    +0.029 C 
ATOM     14  C   UNL     1      -5.584 -10.396   9.836  0.00  0.00    +0.076 C 
ATOM     15  C   UNL     1      -2.597 -11.788  14.048  0.00  0.00    +0.007 C 
ATOM     16  C   UNL     1      -4.309 -11.042   9.294  0.00  0.00    +0.023 C 
ATOM     17  C   UNL     1      -2.314 -10.145  11.470  0.00  0.00    +0.011 C 
ATOM     19  C   UNL     1      -6.739  -9.150  11.698  0.00  0.00    +0.010 C 
ENDROOT
BRANCH  14   5
ATOM      4  O   UNL     1      -7.940 -10.706   8.168  0.00  0.00    -0.276 OA
ATOM      5  N   UNL     1      -6.087  -9.470   8.843  0.00  0.00    -0.312 N 
ATOM     22  C   UNL     1      -7.225  -9.710   8.096  0.00  0.00    +0.210 C 
ATOM     23  C   UNL     1      -7.538  -8.576   7.157  0.00  0.00    +0.109 C 
ATOM     31  H   UNL     1      -5.541  -8.634   8.653  0.00  0.00    +0.149 HD
ENDBRANCH  14   5
BRANCH  10   2
ATOM      2  O   UNL     1      -5.835  -9.880  14.239  0.00  0.00    -0.391 OA
ATOM     32  H   UNL     1      -6.406  -9.544  13.527  0.00  0.00    +0.210 HD
ENDBRANCH  10   2
BRANCH  13  18
ATOM     18  C   UNL     1      -3.606 -10.609  16.009  0.00  0.00    +0.077 C 
ATOM     20  C   UNL     1      -2.133 -10.778  16.365  0.00  0.00    +0.017 C 
BRANCH  18  21
ATOM      3  O   UNL     1      -4.261 -12.368  17.539  0.00  0.00    -0.276 OA
ATOM      6  N   UNL     1      -5.615 -10.494  17.359  0.00  0.00    -0.311 N 
ATOM     21  C   UNL     1      -4.508 -11.269  17.047  0.00  0.00    +0.216 C 
ATOM     33  H   UNL     1      -5.721  -9.572  16.949  0.00  0.00    +0.149 HD
BRANCH   6  24
ATOM     24  C   UNL     1      -6.615 -10.909  18.316  0.00  0.00    +0.141 C 
BRANCH  24  25
ATOM      1 CL   UNL     1      -9.080 -11.949  19.854  0.00  0.00    -0.083 Cl
ATOM     25  C   UNL     1      -7.929 -10.219  18.092  0.00  0.00    -0.012 A 
ATOM     26  C   UNL     1      -9.091 -10.625  18.746  0.00  0.00    +0.046 A 
ATOM     27  C   UNL     1      -7.969  -9.145  17.201  0.00  0.00    +0.006 A 
ATOM     28  C   UNL     1     -10.294  -9.958  18.511  0.00  0.00    +0.020 A 
ATOM     29  C   UNL     1      -9.171  -8.478  16.968  0.00  0.00    +0.000 A 
ATOM     30  C   UNL     1     -10.334  -8.884  17.622  0.00  0.00    +0.001 A 
ENDBRANCH  24  25
ENDBRANCH   6  24
ENDBRANCH  18  21
ENDBRANCH  13  18
TORSDOF 6
ENDMDL
MODEL 10
REMARK VINA RESULT:      -6.6     22.014     23.538
REMARK  Name = 28962427
REMARK  10 active torsions:
REMARK  status: ('A' for Active; 'I' for Inactive)
REMARK    1  A    between atoms: O_2  and  C_10
REMARK    2  A    between atoms: N_5  and  C_14
REMARK    3  A    between atoms: N_6  and  C_24
REMARK    4  A    between atoms: C_7  and  C_17
REMARK    5  A    between atoms: C_9  and  C_19
REMARK    6  A    between atoms: C_13  and  C_18
REMARK    7  A    between atoms: C_18  and  C_20
REMARK    8  A    between atoms: C_18  and  C_21
REMARK    9  A    between atoms: C_22  and  C_23
REMARK   10  A    between atoms: C_24  and  C_25
REMARK                            x       y       z     vdW  Elec       q    Type
REMARK                         _______ _______ _______ _____ _____    ______ ____
ROOT
ATOM      7  C   UNL     1      -4.528 -10.466  10.144  0.00  0.00    -0.027 C 
ATOM      8  C   UNL     1      -3.970 -11.884   9.787  0.00  0.00    +0.028 C 
ATOM      9  C   UNL     1      -4.727 -12.488   8.551  0.00  0.00    +0.012 C 
ATOM     10  C   UNL     1      -3.908 -12.799  11.044  0.00  0.00    +0.122 C 
ATOM     11  C   UNL     1      -3.688  -9.855  11.289  0.00  0.00    +0.007 C 
ATOM     12  C   UNL     1      -4.385  -9.543   8.911  0.00  0.00    +0.009 C 
ATOM     13  C   UNL     1      -3.155 -12.138  12.224  0.00  0.00    +0.029 C 
ATOM     14  C   UNL     1      -4.641 -11.517   7.340  0.00  0.00    +0.076 C 
ATOM     15  C   UNL     1      -3.657 -10.729  12.536  0.00  0.00    +0.007 C 
ATOM     16  C   UNL     1      -5.078 -10.091   7.672  0.00  0.00    +0.023 C 
ATOM     17  C   UNL     1      -6.014 -10.506  10.582  0.00  0.00    +0.011 C 
ATOM     19  C   UNL     1      -4.210 -13.873   8.127  0.00  0.00    +0.010 C 
ENDROOT
BRANCH  14   5
ATOM      4  O   UNL     1      -3.746 -11.931   4.609  0.00  0.00    -0.276 OA
ATOM      5  N   UNL     1      -5.426 -11.988   6.218  0.00  0.00    -0.312 N 
ATOM     22  C   UNL     1      -4.905 -12.153   4.948  0.00  0.00    +0.210 C 
ATOM     23  C   UNL     1      -5.929 -12.677   3.977  0.00  0.00    +0.109 C 
ATOM     31  H   UNL     1      -6.419 -12.147   6.366  0.00  0.00    +0.149 HD
ENDBRANCH  14   5
BRANCH  10   2
ATOM      2  O   UNL     1      -3.199 -13.997  10.728  0.00  0.00    -0.391 OA
ATOM     32  H   UNL     1      -2.262 -13.771  10.603  0.00  0.00    +0.210 HD
ENDBRANCH  10   2
BRANCH  13  18
ATOM     18  C   UNL     1      -3.218 -12.998  13.491  0.00  0.00    +0.077 C 
ATOM     20  C   UNL     1      -4.655 -13.432  13.761  0.00  0.00    +0.017 C 
BRANCH  18  21
ATOM      3  O   UNL     1      -1.468 -11.856  14.715  0.00  0.00    -0.276 OA
ATOM      6  N   UNL     1      -3.577 -11.997  15.669  0.00  0.00    -0.311 N 
ATOM     21  C   UNL     1      -2.640 -12.225  14.672  0.00  0.00    +0.216 C 
ATOM     33  H   UNL     1      -4.540 -12.287  15.535  0.00  0.00    +0.149 HD
BRANCH   6  24
ATOM     24  C   UNL     1      -3.264 -11.286  16.887  0.00  0.00    +0.141 C 
BRANCH  24  25
ATOM      1 CL   UNL     1      -5.620  -9.614  15.801  0.00  0.00    -0.083 Cl
ATOM     25  C   UNL     1      -4.471 -11.114  17.763  0.00  0.00    -0.012 A 
ATOM     26  C   UNL     1      -5.578 -10.375  17.350  0.00  0.00    +0.046 A 
ATOM     27  C   UNL     1      -4.466 -11.718  19.021  0.00  0.00    +0.006 A 
ATOM     28  C   UNL     1      -6.681 -10.238  18.193  0.00  0.00    +0.020 A 
ATOM     29  C   UNL     1      -5.569 -11.582  19.864  0.00  0.00    +0.000 A 
ATOM     30  C   UNL     1      -6.676 -10.842  19.451  0.00  0.00    +0.001 A 
ENDBRANCH  24  25
ENDBRANCH   6  24
ENDBRANCH  18  21
ENDBRANCH  13  18
TORSDOF 6
ENDMDL
