MODEL 1
REMARK VINA RESULT:      -7.1      0.000      0.000
REMARK  Name = 11882029
REMARK  9 active torsions:
REMARK  status: ('A' for Active; 'I' for Inactive)
REMARK    1  A    between atoms: N_6  and  C_12
REMARK    2  A    between atoms: N_7  and  C_16
REMARK    3  A    between atoms: N_8  and  C_25
REMARK    4  A    between atoms: N_9  and  C_34
REMARK    5  A    between atoms: C_13  and  C_21
REMARK    6  A    between atoms: C_23  and  C_26
REMARK    7  A    between atoms: C_25  and  C_27
REMARK    8  A    between atoms: C_25  and  C_30
REMARK    9  A    between atoms: C_27  and  C_29
REMARK                            x       y       z     vdW  Elec       q    Type
REMARK                         _______ _______ _______ _____ _____    ______ ____
ROOT
ATOM      2  O   UNL     1      -9.347  -8.876  17.652  0.00  0.00    -0.268 OA
ATOM      5  N   UNL     1      -9.599  -9.778  15.544  0.00  0.00    -0.283 N 
ATOM     12  C   UNL     1      -9.454 -10.955  13.481  0.00  0.00    +0.094 C 
ATOM     13  C   UNL     1      -8.805 -10.969  15.811  0.00  0.00    +0.164 C 
ATOM     14  C   UNL     1      -9.061 -11.895  14.624  0.00  0.00    +0.056 C 
ATOM     15  C   UNL     1     -10.160  -9.804  14.191  0.00  0.00    +0.131 C 
ATOM     23  C   UNL     1      -9.861  -8.826  16.534  0.00  0.00    +0.264 C 
ENDROOT
BRANCH  12   6
ATOM      3  O   UNL     1      -9.470  -9.899  10.807  0.00  0.00    -0.253 OA
ATOM      6  N   UNL     1      -8.314 -10.497  12.728  0.00  0.00    -0.295 N 
ATOM      7  N   UNL     1      -7.168  -9.626  10.931  0.00  0.00    -0.297 N 
ATOM     24  C   UNL     1      -8.414  -9.998  11.430  0.00  0.00    +0.300 C 
ATOM     41  H   UNL     1      -7.389 -10.599  13.134  0.00  0.00    +0.151 HD
ATOM     42  H   UNL     1      -6.352  -9.819  11.503  0.00  0.00    +0.151 HD
BRANCH   7  16
ATOM     16  C   UNL     1      -6.976  -9.077   9.608  0.00  0.00    +0.074 C 
ATOM     17  C   UNL     1      -5.960  -7.931   9.629  0.00  0.00    +0.022 C 
ATOM     18  C   UNL     1      -6.565 -10.166   8.612  0.00  0.00    +0.022 C 
ATOM     19  C   UNL     1      -4.529  -8.423   9.854  0.00  0.00    +0.002 C 
ATOM     20  C   UNL     1      -5.134 -10.654   8.839  0.00  0.00    +0.002 C 
ATOM     22  C   UNL     1      -4.139  -9.498   8.845  0.00  0.00    +0.000 C 
ENDBRANCH   7  16
ENDBRANCH  12   6
BRANCH  23  26
ATOM      9  N   UNL     1     -12.119  -7.763  16.339  0.00  0.00    -0.346 N 
ATOM     26  C   UNL     1     -10.760  -7.739  16.169  0.00  0.00    +0.104 A 
ATOM     28  C   UNL     1     -10.427  -6.528  15.605  0.00  0.00    +0.032 A 
ATOM     31  C   UNL     1     -12.658  -6.585  15.893  0.00  0.00    +0.086 A 
ATOM     32  C   UNL     1     -11.627  -5.798  15.429  0.00  0.00    +0.020 A 
ATOM     34  C   UNL     1     -12.883  -8.854  16.903  0.00  0.00    +0.149 C 
ENDBRANCH  23  26
BRANCH  13  21
ATOM      1  O   UNL     1      -6.809  -9.928  15.013  0.00  0.00    -0.274 OA
ATOM      8  N   UNL     1      -6.758 -11.052  17.052  0.00  0.00    -0.302 N 
ATOM     21  C   UNL     1      -7.359 -10.578  15.898  0.00  0.00    +0.234 C 
ATOM     43  H   UNL     1      -7.329 -11.525  17.747  0.00  0.00    +0.150 HD
BRANCH   8  25
ATOM     25  C   UNL     1      -5.364 -10.832  17.364  0.00  0.00    +0.163 C 
BRANCH  25  30
ATOM      4  O   UNL     1      -5.964 -10.402  19.679  0.00  0.00    -0.274 OA
ATOM     11  N   UNL     1      -4.192 -11.798  19.246  0.00  0.00    -0.328 N 
ATOM     30  C   UNL     1      -5.219 -10.955  18.874  0.00  0.00    +0.231 C 
ATOM     45  H   UNL     1      -3.996 -11.979  20.224  0.00  0.00    +0.145 HD
ATOM     46  H   UNL     1      -3.599 -12.266  18.567  0.00  0.00    +0.145 HD
ENDBRANCH  25  30
BRANCH  25  27
ATOM     27  C   UNL     1      -4.444 -11.832  16.653  0.00  0.00    +0.069 C 
BRANCH  27  29
ATOM     10  N   UNL     1      -1.642  -9.977  15.163  0.00  0.00    -0.360 N 
ATOM     29  C   UNL     1      -3.405 -11.170  15.795  0.00  0.00    -0.020 A 
ATOM     33  C   UNL     1      -3.317 -11.223  14.376  0.00  0.00    +0.003 A 
ATOM     35  C   UNL     1      -2.361 -10.397  16.250  0.00  0.00    +0.087 A 
ATOM     36  C   UNL     1      -2.203 -10.467  14.005  0.00  0.00    +0.047 A 
ATOM     37  C   UNL     1      -4.082 -11.844  13.368  0.00  0.00    +0.010 A 
ATOM     38  C   UNL     1      -1.814 -10.300  12.672  0.00  0.00    +0.026 A 
ATOM     39  C   UNL     1      -3.704 -11.686  12.029  0.00  0.00    +0.001 A 
ATOM     40  C   UNL     1      -2.587 -10.926  11.689  0.00  0.00    +0.002 A 
ATOM     44  H   UNL     1      -0.819  -9.394  15.204  0.00  0.00    +0.165 HD
ENDBRANCH  27  29
ENDBRANCH  25  27
ENDBRANCH   8  25
ENDBRANCH  13  21
TORSDOF 8
ENDMDL
MODEL 2
REMARK VINA RESULT:      -6.9      2.098      3.628
REMARK  Name = 11882029
REMARK  9 active torsions:
REMARK  status: ('A' for Active; 'I' for Inactive)
REMARK    1  A    between atoms: N_6  and  C_12
REMARK    2  A    between atoms: N_7  and  C_16
REMARK    3  A    between atoms: N_8  and  C_25
REMARK    4  A    between atoms: N_9  and  C_34
REMARK    5  A    between atoms: C_13  and  C_21
REMARK    6  A    between atoms: C_23  and  C_26
REMARK    7  A    between atoms: C_25  and  C_27
REMARK    8  A    between atoms: C_25  and  C_30
REMARK    9  A    between atoms: C_27  and  C_29
REMARK                            x       y       z     vdW  Elec       q    Type
REMARK                         _______ _______ _______ _____ _____    ______ ____
ROOT
ATOM      2  O   UNL     1      -5.989 -10.336  17.478  0.00  0.00    -0.268 OA
ATOM      5  N   UNL     1      -7.135 -11.386  15.774  0.00  0.00    -0.283 N 
ATOM     12  C   UNL     1      -7.873 -12.540  13.829  0.00  0.00    +0.094 C 
ATOM     13  C   UNL     1      -6.002 -12.177  15.317  0.00  0.00    +0.164 C 
ATOM     14  C   UNL     1      -6.592 -13.199  14.347  0.00  0.00    +0.056 C 
ATOM     15  C   UNL     1      -8.345 -11.698  15.009  0.00  0.00    +0.131 C 
ATOM     23  C   UNL     1      -7.049 -10.546  16.888  0.00  0.00    +0.264 C 
ENDROOT
BRANCH  12   6
ATOM      3  O   UNL     1      -9.869 -11.455  12.068  0.00  0.00    -0.253 OA
ATOM      6  N   UNL     1      -7.643 -11.735  12.656  0.00  0.00    -0.295 N 
ATOM      7  N   UNL     1      -8.183 -10.501  10.790  0.00  0.00    -0.297 N 
ATOM     24  C   UNL     1      -8.676 -11.248  11.856  0.00  0.00    +0.300 C 
ATOM     41  H   UNL     1      -6.686 -11.564  12.363  0.00  0.00    +0.151 HD
ATOM     42  H   UNL     1      -7.176 -10.455  10.668  0.00  0.00    +0.151 HD
BRANCH   7  16
ATOM     16  C   UNL     1      -9.033  -9.877   9.800  0.00  0.00    +0.074 C 
ATOM     17  C   UNL     1      -8.645  -8.411   9.587  0.00  0.00    +0.022 C 
ATOM     18  C   UNL     1      -9.007 -10.656   8.481  0.00  0.00    +0.022 C 
ATOM     19  C   UNL     1      -7.319  -8.258   8.841  0.00  0.00    +0.002 C 
ATOM     20  C   UNL     1      -7.680 -10.500   7.737  0.00  0.00    +0.002 C 
ATOM     22  C   UNL     1      -7.321  -9.033   7.526  0.00  0.00    +0.000 C 
ENDBRANCH   7  16
ENDBRANCH  12   6
BRANCH  23  26
ATOM      9  N   UNL     1      -9.168 -10.416  18.215  0.00  0.00    -0.346 N 
ATOM     26  C   UNL     1      -8.284  -9.895  17.308  0.00  0.00    +0.104 A 
ATOM     28  C   UNL     1      -8.777  -8.680  16.887  0.00  0.00    +0.032 A 
ATOM     31  C   UNL     1     -10.218  -9.551  18.381  0.00  0.00    +0.086 A 
ATOM     32  C   UNL     1     -10.002  -8.463  17.566  0.00  0.00    +0.020 A 
ATOM     34  C   UNL     1      -9.030 -11.681  18.903  0.00  0.00    +0.149 C 
ENDBRANCH  23  26
BRANCH  13  21
ATOM      1  O   UNL     1      -5.391 -10.360  13.893  0.00  0.00    -0.274 OA
ATOM      8  N   UNL     1      -3.711 -11.608  14.912  0.00  0.00    -0.302 N 
ATOM     21  C   UNL     1      -5.023 -11.271  14.630  0.00  0.00    +0.234 C 
ATOM     43  H   UNL     1      -3.525 -12.343  15.589  0.00  0.00    +0.150 HD
BRANCH   8  25
ATOM     25  C   UNL     1      -2.577 -10.904  14.357  0.00  0.00    +0.163 C 
BRANCH  25  30
ATOM      4  O   UNL     1      -0.862  -9.582  15.459  0.00  0.00    -0.274 OA
ATOM     11  N   UNL     1      -1.965 -11.186  16.679  0.00  0.00    -0.328 N 
ATOM     30  C   UNL     1      -1.695 -10.483  15.523  0.00  0.00    +0.231 C 
ATOM     45  H   UNL     1      -1.457 -10.995  17.535  0.00  0.00    +0.145 HD
ATOM     46  H   UNL     1      -2.672 -11.913  16.721  0.00  0.00    +0.145 HD
ENDBRANCH  25  30
BRANCH  25  27
ATOM     27  C   UNL     1      -1.784 -11.769  13.369  0.00  0.00    +0.069 C 
BRANCH  27  29
ATOM     10  N   UNL     1      -3.637 -13.279  10.576  0.00  0.00    -0.360 N 
ATOM     29  C   UNL     1      -2.562 -12.116  12.132  0.00  0.00    -0.020 A 
ATOM     33  C   UNL     1      -3.029 -11.208  11.142  0.00  0.00    +0.003 A 
ATOM     35  C   UNL     1      -2.952 -13.381  11.757  0.00  0.00    +0.087 A 
ATOM     36  C   UNL     1      -3.700 -11.962  10.176  0.00  0.00    +0.047 A 
ATOM     37  C   UNL     1      -2.944  -9.811  10.972  0.00  0.00    +0.010 A 
ATOM     38  C   UNL     1      -4.292 -11.389   9.047  0.00  0.00    +0.026 A 
ATOM     39  C   UNL     1      -3.533  -9.223   9.847  0.00  0.00    +0.001 A 
ATOM     40  C   UNL     1      -4.196 -10.001   8.900  0.00  0.00    +0.002 A 
ATOM     44  H   UNL     1      -4.039 -14.055  10.071  0.00  0.00    +0.165 HD
ENDBRANCH  27  29
ENDBRANCH  25  27
ENDBRANCH   8  25
ENDBRANCH  13  21
TORSDOF 8
ENDMDL
MODEL 3
REMARK VINA RESULT:      -6.8      1.205      1.501
REMARK  Name = 11882029
REMARK  9 active torsions:
REMARK  status: ('A' for Active; 'I' for Inactive)
REMARK    1  A    between atoms: N_6  and  C_12
REMARK    2  A    between atoms: N_7  and  C_16
REMARK    3  A    between atoms: N_8  and  C_25
REMARK    4  A    between atoms: N_9  and  C_34
REMARK    5  A    between atoms: C_13  and  C_21
REMARK    6  A    between atoms: C_23  and  C_26
REMARK    7  A    between atoms: C_25  and  C_27
REMARK    8  A    between atoms: C_25  and  C_30
REMARK    9  A    between atoms: C_27  and  C_29
REMARK                            x       y       z     vdW  Elec       q    Type
REMARK                         _______ _______ _______ _____ _____    ______ ____
ROOT
ATOM      2  O   UNL     1      -9.799  -9.240  17.523  0.00  0.00    -0.268 OA
ATOM      5  N   UNL     1      -9.887  -9.861  15.303  0.00  0.00    -0.283 N 
ATOM     12  C   UNL     1      -9.603 -10.790  13.132  0.00  0.00    +0.094 C 
ATOM     13  C   UNL     1      -9.200 -11.131  15.492  0.00  0.00    +0.164 C 
ATOM     14  C   UNL     1      -9.389 -11.887  14.178  0.00  0.00    +0.056 C 
ATOM     15  C   UNL     1     -10.306  -9.684  13.911  0.00  0.00    +0.131 C 
ATOM     23  C   UNL     1     -10.191  -9.018  16.377  0.00  0.00    +0.264 C 
ENDROOT
BRANCH  12   6
ATOM      3  O   UNL     1      -8.159 -12.009  10.965  0.00  0.00    -0.253 OA
ATOM      6  N   UNL     1      -8.365 -10.331  12.554  0.00  0.00    -0.295 N 
ATOM      7  N   UNL     1      -6.555 -10.339  11.132  0.00  0.00    -0.297 N 
ATOM     24  C   UNL     1      -7.731 -10.988  11.500  0.00  0.00    +0.300 C 
ATOM     41  H   UNL     1      -7.901  -9.530  12.971  0.00  0.00    +0.151 HD
ATOM     42  H   UNL     1      -6.257  -9.544  11.689  0.00  0.00    +0.151 HD
BRANCH   7  16
ATOM     16  C   UNL     1      -5.695 -10.803  10.066  0.00  0.00    +0.074 C 
ATOM     17  C   UNL     1      -5.456  -9.699   9.031  0.00  0.00    +0.022 C 
ATOM     18  C   UNL     1      -4.372 -11.341  10.620  0.00  0.00    +0.022 C 
ATOM     19  C   UNL     1      -4.546  -8.589   9.559  0.00  0.00    +0.002 C 
ATOM     20  C   UNL     1      -3.463 -10.229  11.145  0.00  0.00    +0.002 C 
ATOM     22  C   UNL     1      -3.231  -9.148  10.094  0.00  0.00    +0.000 C 
ENDBRANCH   7  16
ENDBRANCH  12   6
BRANCH  23  26
ATOM      9  N   UNL     1     -12.347  -7.776  16.102  0.00  0.00    -0.346 N 
ATOM     26  C   UNL     1     -10.979  -7.832  16.069  0.00  0.00    +0.104 A 
ATOM     28  C   UNL     1     -10.515  -6.589  15.699  0.00  0.00    +0.032 A 
ATOM     31  C   UNL     1     -12.764  -6.516  15.760  0.00  0.00    +0.086 A 
ATOM     32  C   UNL     1     -11.644  -5.757  15.503  0.00  0.00    +0.020 A 
ATOM     34  C   UNL     1     -13.232  -8.868  16.444  0.00  0.00    +0.149 C 
ENDBRANCH  23  26
BRANCH  13  21
ATOM      1  O   UNL     1      -6.985 -10.478  14.884  0.00  0.00    -0.274 OA
ATOM      8  N   UNL     1      -7.409 -11.118  17.082  0.00  0.00    -0.302 N 
ATOM     21  C   UNL     1      -7.750 -10.862  15.765  0.00  0.00    +0.234 C 
ATOM     43  H   UNL     1      -8.140 -11.372  17.740  0.00  0.00    +0.150 HD
BRANCH   8  25
ATOM     25  C   UNL     1      -6.068 -10.960  17.596  0.00  0.00    +0.163 C 
BRANCH  25  30
ATOM      4  O   UNL     1      -5.384 -11.381  19.890  0.00  0.00    -0.274 OA
ATOM     11  N   UNL     1      -7.236 -10.074  19.519  0.00  0.00    -0.328 N 
ATOM     30  C   UNL     1      -6.178 -10.859  19.111  0.00  0.00    +0.231 C 
ATOM     45  H   UNL     1      -7.415  -9.913  20.504  0.00  0.00    +0.145 HD
ATOM     46  H   UNL     1      -7.871  -9.631  18.862  0.00  0.00    +0.145 HD
ENDBRANCH  25  30
BRANCH  25  27
ATOM     27  C   UNL     1      -5.153 -12.126  17.202  0.00  0.00    +0.069 C 
BRANCH  27  29
ATOM     10  N   UNL     1      -2.381 -10.535  15.385  0.00  0.00    -0.360 N 
ATOM     29  C   UNL     1      -4.028 -11.711  16.296  0.00  0.00    -0.020 A 
ATOM     33  C   UNL     1      -3.509 -12.450  15.197  0.00  0.00    +0.003 A 
ATOM     35  C   UNL     1      -3.315 -10.538  16.386  0.00  0.00    +0.087 A 
ATOM     36  C   UNL     1      -2.477 -11.690  14.642  0.00  0.00    +0.047 A 
ATOM     37  C   UNL     1      -3.819 -13.697  14.618  0.00  0.00    +0.010 A 
ATOM     38  C   UNL     1      -1.737 -12.116  13.534  0.00  0.00    +0.026 A 
ATOM     39  C   UNL     1      -3.087 -14.137  13.509  0.00  0.00    +0.001 A 
ATOM     40  C   UNL     1      -2.062 -13.356  12.977  0.00  0.00    +0.002 A 
ATOM     44  H   UNL     1      -1.718  -9.792  15.215  0.00  0.00    +0.165 HD
ENDBRANCH  27  29
ENDBRANCH  25  27
ENDBRANCH   8  25
ENDBRANCH  13  21
TORSDOF 8
ENDMDL
MODEL 4
REMARK VINA RESULT:      -6.8     26.853     30.822
REMARK  Name = 11882029
REMARK  9 active torsions:
REMARK  status: ('A' for Active; 'I' for Inactive)
REMARK    1  A    between atoms: N_6  and  C_12
REMARK    2  A    between atoms: N_7  and  C_16
REMARK    3  A    between atoms: N_8  and  C_25
REMARK    4  A    between atoms: N_9  and  C_34
REMARK    5  A    between atoms: C_13  and  C_21
REMARK    6  A    between atoms: C_23  and  C_26
REMARK    7  A    between atoms: C_25  and  C_27
REMARK    8  A    between atoms: C_25  and  C_30
REMARK    9  A    between atoms: C_27  and  C_29
REMARK                            x       y       z     vdW  Elec       q    Type
REMARK                         _______ _______ _______ _____ _____    ______ ____
ROOT
ATOM      2  O   UNL     1      18.932   9.325   5.635  0.00  0.00    -0.268 OA
ATOM      5  N   UNL     1      18.296   8.799   3.481  0.00  0.00    -0.283 N 
ATOM     12  C   UNL     1      17.194   8.373   1.416  0.00  0.00    +0.094 C 
ATOM     13  C   UNL     1      17.065   9.575   3.510  0.00  0.00    +0.164 C 
ATOM     14  C   UNL     1      16.587   9.621   2.060  0.00  0.00    +0.056 C 
ATOM     15  C   UNL     1      18.508   8.185   2.168  0.00  0.00    +0.131 C 
ATOM     23  C   UNL     1      19.186   8.782   4.559  0.00  0.00    +0.264 C 
ENDROOT
BRANCH  12   6
ATOM      3  O   UNL     1      14.822   7.819  -0.111  0.00  0.00    -0.253 OA
ATOM      6  N   UNL     1      16.340   7.219   1.538  0.00  0.00    -0.295 N 
ATOM      7  N   UNL     1      14.558   5.839   1.070  0.00  0.00    -0.297 N 
ATOM     24  C   UNL     1      15.203   7.031   0.752  0.00  0.00    +0.300 C 
ATOM     41  H   UNL     1      16.537   6.543   2.268  0.00  0.00    +0.151 HD
ATOM     42  H   UNL     1      14.918   5.298   1.851  0.00  0.00    +0.151 HD
BRANCH   7  16
ATOM     16  C   UNL     1      13.352   5.391   0.412  0.00  0.00    +0.074 C 
ATOM     17  C   UNL     1      13.315   3.863   0.309  0.00  0.00    +0.022 C 
ATOM     18  C   UNL     1      12.104   5.931   1.118  0.00  0.00    +0.022 C 
ATOM     19  C   UNL     1      13.069   3.192   1.661  0.00  0.00    +0.002 C 
ATOM     20  C   UNL     1      11.860   5.257   2.469  0.00  0.00    +0.002 C 
ATOM     22  C   UNL     1      11.816   3.738   2.340  0.00  0.00    +0.000 C 
ENDBRANCH   7  16
ENDBRANCH  12   6
BRANCH  23  26
ATOM      9  N   UNL     1      21.586   8.609   3.869  0.00  0.00    -0.346 N 
ATOM     26  C   UNL     1      20.434   8.056   4.361  0.00  0.00    +0.104 A 
ATOM     28  C   UNL     1      20.682   6.726   4.621  0.00  0.00    +0.032 A 
ATOM     31  C   UNL     1      22.566   7.653   3.811  0.00  0.00    +0.086 A 
ATOM     32  C   UNL     1      22.030   6.471   4.272  0.00  0.00    +0.020 A 
ATOM     34  C   UNL     1      21.760   9.988   3.468  0.00  0.00    +0.149 C 
ENDBRANCH  23  26
BRANCH  13  21
ATOM      1  O   UNL     1      16.062   7.656   4.516  0.00  0.00    -0.274 OA
ATOM      8  N   UNL     1      15.197   9.763   4.998  0.00  0.00    -0.302 N 
ATOM     21  C   UNL     1      16.072   8.878   4.392  0.00  0.00    +0.234 C 
ATOM     43  H   UNL     1      15.341  10.761   4.873  0.00  0.00    +0.150 HD
BRANCH   8  25
ATOM     25  C   UNL     1      14.132   9.343   5.879  0.00  0.00    +0.163 C 
BRANCH  25  30
ATOM      4  O   UNL     1      12.679  10.910   7.035  0.00  0.00    -0.274 OA
ATOM     11  N   UNL     1      14.947  11.062   7.370  0.00  0.00    -0.328 N 
ATOM     30  C   UNL     1      13.818  10.517   6.795  0.00  0.00    +0.231 C 
ATOM     45  H   UNL     1      14.878  11.844   8.013  0.00  0.00    +0.145 HD
ATOM     46  H   UNL     1      15.880  10.711   7.178  0.00  0.00    +0.145 HD
ENDBRANCH  25  30
BRANCH  25  27
ATOM     27  C   UNL     1      12.876   8.914   5.109  0.00  0.00    +0.069 C 
BRANCH  27  29
ATOM     10  N   UNL     1      11.770   5.948   6.977  0.00  0.00    -0.360 N 
ATOM     29  C   UNL     1      12.178   7.737   5.729  0.00  0.00    -0.020 A 
ATOM     33  C   UNL     1      10.852   7.300   5.459  0.00  0.00    +0.003 A 
ATOM     35  C   UNL     1      12.717   6.886   6.666  0.00  0.00    +0.087 A 
ATOM     36  C   UNL     1      10.620   6.176   6.254  0.00  0.00    +0.047 A 
ATOM     37  C   UNL     1       9.822   7.753   4.610  0.00  0.00    +0.010 A 
ATOM     38  C   UNL     1       9.407   5.480   6.245  0.00  0.00    +0.026 A 
ATOM     39  C   UNL     1       8.601   7.068   4.590  0.00  0.00    +0.001 A 
ATOM     40  C   UNL     1       8.399   5.949   5.395  0.00  0.00    +0.002 A 
ATOM     44  H   UNL     1      11.895   5.197   7.641  0.00  0.00    +0.165 HD
ENDBRANCH  27  29
ENDBRANCH  25  27
ENDBRANCH   8  25
ENDBRANCH  13  21
TORSDOF 8
ENDMDL
MODEL 5
REMARK VINA RESULT:      -6.6      3.111      7.761
REMARK  Name = 11882029
REMARK  9 active torsions:
REMARK  status: ('A' for Active; 'I' for Inactive)
REMARK    1  A    between atoms: N_6  and  C_12
REMARK    2  A    between atoms: N_7  and  C_16
REMARK    3  A    between atoms: N_8  and  C_25
REMARK    4  A    between atoms: N_9  and  C_34
REMARK    5  A    between atoms: C_13  and  C_21
REMARK    6  A    between atoms: C_23  and  C_26
REMARK    7  A    between atoms: C_25  and  C_27
REMARK    8  A    between atoms: C_25  and  C_30
REMARK    9  A    between atoms: C_27  and  C_29
REMARK                            x       y       z     vdW  Elec       q    Type
REMARK                         _______ _______ _______ _____ _____    ______ ____
ROOT
ATOM      2  O   UNL     1      -2.778 -14.679  15.155  0.00  0.00    -0.268 OA
ATOM      5  N   UNL     1      -2.240 -12.852  13.854  0.00  0.00    -0.283 N 
ATOM     12  C   UNL     1      -1.968 -10.724  12.825  0.00  0.00    +0.094 C 
ATOM     13  C   UNL     1      -2.528 -11.864  14.883  0.00  0.00    +0.164 C 
ATOM     14  C   UNL     1      -1.963 -10.550  14.346  0.00  0.00    +0.056 C 
ATOM     15  C   UNL     1      -1.731 -12.219  12.635  0.00  0.00    +0.131 C 
ATOM     23  C   UNL     1      -2.337 -14.226  14.099  0.00  0.00    +0.264 C 
ENDROOT
BRANCH  12   6
ATOM      3  O   UNL     1      -2.284  -9.317  10.338  0.00  0.00    -0.253 OA
ATOM      6  N   UNL     1      -3.208 -10.300  12.226  0.00  0.00    -0.295 N 
ATOM      7  N   UNL     1      -4.583  -9.327  10.658  0.00  0.00    -0.297 N 
ATOM     24  C   UNL     1      -3.268  -9.619  11.010  0.00  0.00    +0.300 C 
ATOM     41  H   UNL     1      -4.071 -10.448  12.739  0.00  0.00    +0.151 HD
ATOM     42  H   UNL     1      -5.315  -9.558  11.323  0.00  0.00    +0.151 HD
BRANCH   7  16
ATOM     16  C   UNL     1      -4.941  -8.625   9.445  0.00  0.00    +0.074 C 
ATOM     17  C   UNL     1      -4.848  -9.548   8.227  0.00  0.00    +0.022 C 
ATOM     18  C   UNL     1      -6.333  -7.997   9.562  0.00  0.00    +0.022 C 
ATOM     19  C   UNL     1      -5.966 -10.591   8.196  0.00  0.00    +0.002 C 
ATOM     20  C   UNL     1      -7.450  -9.042   9.528  0.00  0.00    +0.002 C 
ATOM     22  C   UNL     1      -7.343  -9.941   8.301  0.00  0.00    +0.000 C 
ENDBRANCH   7  16
ENDBRANCH  12   6
BRANCH  23  26
ATOM      9  N   UNL     1      -2.699 -15.467  11.956  0.00  0.00    -0.346 N 
ATOM     26  C   UNL     1      -1.915 -15.110  13.021  0.00  0.00    +0.104 A 
ATOM     28  C   UNL     1      -0.695 -15.730  12.873  0.00  0.00    +0.032 A 
ATOM     31  C   UNL     1      -1.998 -16.306  11.130  0.00  0.00    +0.086 A 
ATOM     32  C   UNL     1      -0.747 -16.488  11.677  0.00  0.00    +0.020 A 
ATOM     34  C   UNL     1      -4.060 -15.035  11.722  0.00  0.00    +0.149 C 
ENDBRANCH  23  26
BRANCH  13  21
ATOM      1  O   UNL     1      -4.751 -11.289  14.227  0.00  0.00    -0.274 OA
ATOM      8  N   UNL     1      -4.411 -12.297  16.298  0.00  0.00    -0.302 N 
ATOM     21  C   UNL     1      -4.013 -11.782  15.076  0.00  0.00    +0.234 C 
ATOM     43  H   UNL     1      -3.719 -12.740  16.896  0.00  0.00    +0.150 HD
BRANCH   8  25
ATOM     25  C   UNL     1      -5.788 -12.316  16.737  0.00  0.00    +0.163 C 
BRANCH  25  30
ATOM      4  O   UNL     1      -7.197 -14.153  17.474  0.00  0.00    -0.274 OA
ATOM     11  N   UNL     1      -4.920 -14.453  17.462  0.00  0.00    -0.328 N 
ATOM     30  C   UNL     1      -6.068 -13.712  17.273  0.00  0.00    +0.231 C 
ATOM     45  H   UNL     1      -4.966 -15.407  17.803  0.00  0.00    +0.145 HD
ATOM     46  H   UNL     1      -3.994 -14.082  17.270  0.00  0.00    +0.145 HD
ENDBRANCH  25  30
BRANCH  25  27
ATOM     27  C   UNL     1      -6.069 -11.261  17.815  0.00  0.00    +0.069 C 
BRANCH  27  29
ATOM     10  N   UNL     1      -8.438  -8.799  16.459  0.00  0.00    -0.360 N 
ATOM     29  C   UNL     1      -7.213 -10.353  17.465  0.00  0.00    -0.020 A 
ATOM     33  C   UNL     1      -8.478 -10.295  18.114  0.00  0.00    +0.003 A 
ATOM     35  C   UNL     1      -7.219  -9.421  16.453  0.00  0.00    +0.087 A 
ATOM     36  C   UNL     1      -9.228  -9.312  17.464  0.00  0.00    +0.047 A 
ATOM     37  C   UNL     1      -9.059 -10.986  19.196  0.00  0.00    +0.010 A 
ATOM     38  C   UNL     1     -10.534  -8.985  17.842  0.00  0.00    +0.026 A 
ATOM     39  C   UNL     1     -10.366 -10.670  19.585  0.00  0.00    +0.001 A 
ATOM     40  C   UNL     1     -11.090  -9.685  18.918  0.00  0.00    +0.002 A 
ATOM     44  H   UNL     1      -8.719  -8.069  15.820  0.00  0.00    +0.165 HD
ENDBRANCH  27  29
ENDBRANCH  25  27
ENDBRANCH   8  25
ENDBRANCH  13  21
TORSDOF 8
ENDMDL
MODEL 6
REMARK VINA RESULT:      -6.6     25.020     28.290
REMARK  Name = 11882029
REMARK  9 active torsions:
REMARK  status: ('A' for Active; 'I' for Inactive)
REMARK    1  A    between atoms: N_6  and  C_12
REMARK    2  A    between atoms: N_7  and  C_16
REMARK    3  A    between atoms: N_8  and  C_25
REMARK    4  A    between atoms: N_9  and  C_34
REMARK    5  A    between atoms: C_13  and  C_21
REMARK    6  A    between atoms: C_23  and  C_26
REMARK    7  A    between atoms: C_25  and  C_27
REMARK    8  A    between atoms: C_25  and  C_30
REMARK    9  A    between atoms: C_27  and  C_29
REMARK                            x       y       z     vdW  Elec       q    Type
REMARK                         _______ _______ _______ _____ _____    ______ ____
ROOT
ATOM      2  O   UNL     1       7.949   5.572  -4.454  0.00  0.00    -0.268 OA
ATOM      5  N   UNL     1       8.602   7.062  -2.819  0.00  0.00    -0.283 N 
ATOM     12  C   UNL     1       9.638   8.282  -1.059  0.00  0.00    +0.094 C 
ATOM     13  C   UNL     1       9.990   6.625  -2.785  0.00  0.00    +0.164 C 
ATOM     14  C   UNL     1      10.721   7.681  -1.958  0.00  0.00    +0.056 C 
ATOM     15  C   UNL     1       8.375   8.186  -1.908  0.00  0.00    +0.131 C 
ATOM     23  C   UNL     1       7.678   6.522  -3.720  0.00  0.00    +0.264 C 
ENDROOT
BRANCH  12   6
ATOM      3  O   UNL     1      11.045   8.813   1.391  0.00  0.00    -0.253 OA
ATOM      6  N   UNL     1       9.499   7.572   0.187  0.00  0.00    -0.295 N 
ATOM      7  N   UNL     1       9.903   7.059   2.394  0.00  0.00    -0.297 N 
ATOM     24  C   UNL     1      10.225   7.898   1.331  0.00  0.00    +0.300 C 
ATOM     41  H   UNL     1       8.891   6.759   0.218  0.00  0.00    +0.151 HD
ATOM     42  H   UNL     1       9.265   6.289   2.214  0.00  0.00    +0.151 HD
BRANCH   7  16
ATOM     16  C   UNL     1      10.506   7.171   3.703  0.00  0.00    +0.074 C 
ATOM     17  C   UNL     1       9.454   7.497   4.768  0.00  0.00    +0.022 C 
ATOM     18  C   UNL     1      11.285   5.901   4.062  0.00  0.00    +0.022 C 
ATOM     19  C   UNL     1       8.537   6.311   5.068  0.00  0.00    +0.002 C 
ATOM     20  C   UNL     1      10.365   4.717   4.363  0.00  0.00    +0.002 C 
ATOM     22  C   UNL     1       9.335   5.062   5.433  0.00  0.00    +0.000 C 
ENDBRANCH   7  16
ENDBRANCH  12   6
BRANCH  23  26
ATOM      9  N   UNL     1       5.983   8.187  -4.508  0.00  0.00    -0.346 N 
ATOM     26  C   UNL     1       6.351   7.122  -3.728  0.00  0.00    +0.104 A 
ATOM     28  C   UNL     1       5.256   6.749  -2.981  0.00  0.00    +0.032 A 
ATOM     31  C   UNL     1       4.670   8.498  -4.271  0.00  0.00    +0.086 A 
ATOM     32  C   UNL     1       4.192   7.620  -3.324  0.00  0.00    +0.020 A 
ATOM     34  C   UNL     1       6.836   8.886  -5.444  0.00  0.00    +0.149 C 
ENDBRANCH  23  26
BRANCH  13  21
ATOM      1  O   UNL     1       9.801   5.117  -0.944  0.00  0.00    -0.274 OA
ATOM      8  N   UNL     1      10.457   4.288  -3.018  0.00  0.00    -0.302 N 
ATOM     21  C   UNL     1      10.059   5.276  -2.134  0.00  0.00    +0.234 C 
ATOM     43  H   UNL     1      10.582   4.524  -3.998  0.00  0.00    +0.150 HD
BRANCH   8  25
ATOM     25  C   UNL     1      10.624   2.904  -2.634  0.00  0.00    +0.163 C 
BRANCH  25  30
ATOM      4  O   UNL     1       9.215   0.991  -3.145  0.00  0.00    -0.274 OA
ATOM     11  N   UNL     1       9.299   2.725  -4.649  0.00  0.00    -0.328 N 
ATOM     30  C   UNL     1       9.661   2.086  -3.482  0.00  0.00    +0.231 C 
ATOM     45  H   UNL     1       8.651   2.294  -5.299  0.00  0.00    +0.145 HD
ATOM     46  H   UNL     1       9.659   3.640  -4.903  0.00  0.00    +0.145 HD
ENDBRANCH  25  30
BRANCH  25  27
ATOM     27  C   UNL     1      12.063   2.415  -2.833  0.00  0.00    +0.069 C 
BRANCH  27  29
ATOM     10  N   UNL     1      14.713   4.845  -2.067  0.00  0.00    -0.360 N 
ATOM     29  C   UNL     1      13.088   3.343  -2.247  0.00  0.00    -0.020 A 
ATOM     33  C   UNL     1      13.360   3.541  -0.865  0.00  0.00    +0.003 A 
ATOM     35  C   UNL     1      13.935   4.159  -2.961  0.00  0.00    +0.087 A 
ATOM     36  C   UNL     1      14.384   4.487  -0.779  0.00  0.00    +0.047 A 
ATOM     37  C   UNL     1      12.833   3.003   0.327  0.00  0.00    +0.010 A 
ATOM     38  C   UNL     1      14.907   4.925   0.442  0.00  0.00    +0.026 A 
ATOM     39  C   UNL     1      13.347   3.432   1.556  0.00  0.00    +0.001 A 
ATOM     40  C   UNL     1      14.368   4.378   1.610  0.00  0.00    +0.002 A 
ATOM     44  H   UNL     1      15.425   5.517  -2.316  0.00  0.00    +0.165 HD
ENDBRANCH  27  29
ENDBRANCH  25  27
ENDBRANCH   8  25
ENDBRANCH  13  21
TORSDOF 8
ENDMDL
MODEL 7
REMARK VINA RESULT:      -6.6     27.681     31.102
REMARK  Name = 11882029
REMARK  9 active torsions:
REMARK  status: ('A' for Active; 'I' for Inactive)
REMARK    1  A    between atoms: N_6  and  C_12
REMARK    2  A    between atoms: N_7  and  C_16
REMARK    3  A    between atoms: N_8  and  C_25
REMARK    4  A    between atoms: N_9  and  C_34
REMARK    5  A    between atoms: C_13  and  C_21
REMARK    6  A    between atoms: C_23  and  C_26
REMARK    7  A    between atoms: C_25  and  C_27
REMARK    8  A    between atoms: C_25  and  C_30
REMARK    9  A    between atoms: C_27  and  C_29
REMARK                            x       y       z     vdW  Elec       q    Type
REMARK                         _______ _______ _______ _____ _____    ______ ____
ROOT
ATOM      2  O   UNL     1      12.413  10.456  18.818  0.00  0.00    -0.268 OA
ATOM      5  N   UNL     1      13.830   8.640  18.942  0.00  0.00    -0.283 N 
ATOM     12  C   UNL     1      15.115   6.723  19.521  0.00  0.00    +0.094 C 
ATOM     13  C   UNL     1      13.113   7.983  20.026  0.00  0.00    +0.164 C 
ATOM     14  C   UNL     1      13.707   6.578  20.104  0.00  0.00    +0.056 C 
ATOM     15  C   UNL     1      14.960   7.829  18.482  0.00  0.00    +0.131 C 
ATOM     23  C   UNL     1      13.375   9.832  18.370  0.00  0.00    +0.264 C 
ENDROOT
BRANCH  12   6
ATOM      3  O   UNL     1      17.845   5.829  19.635  0.00  0.00    -0.253 OA
ATOM      6  N   UNL     1      16.093   7.066  20.522  0.00  0.00    -0.295 N 
ATOM      7  N   UNL     1      18.138   7.065  21.578  0.00  0.00    -0.297 N 
ATOM     24  C   UNL     1      17.401   6.583  20.500  0.00  0.00    +0.300 C 
ATOM     41  H   UNL     1      15.803   7.633  21.312  0.00  0.00    +0.151 HD
ATOM     42  H   UNL     1      17.652   7.624  22.273  0.00  0.00    +0.151 HD
BRANCH   7  16
ATOM     16  C   UNL     1      19.526   6.726  21.804  0.00  0.00    +0.074 C 
ATOM     17  C   UNL     1      20.444   7.501  20.855  0.00  0.00    +0.022 C 
ATOM     18  C   UNL     1      19.918   6.954  23.268  0.00  0.00    +0.022 C 
ATOM     19  C   UNL     1      20.537   8.985  21.214  0.00  0.00    +0.002 C 
ATOM     20  C   UNL     1      20.011   8.439  23.622  0.00  0.00    +0.002 C 
ATOM     22  C   UNL     1      20.940   9.188  22.671  0.00  0.00    +0.000 C 
ENDBRANCH   7  16
ENDBRANCH  12   6
BRANCH  23  26
ATOM      9  N   UNL     1      15.146  11.233  17.289  0.00  0.00    -0.346 N 
ATOM     26  C   UNL     1      14.121  10.327  17.220  0.00  0.00    +0.104 A 
ATOM     28  C   UNL     1      13.943   9.992  15.896  0.00  0.00    +0.032 A 
ATOM     31  C   UNL     1      15.626  11.480  16.029  0.00  0.00    +0.086 A 
ATOM     32  C   UNL     1      14.895  10.722  15.143  0.00  0.00    +0.020 A 
ATOM     34  C   UNL     1      15.658  11.844  18.496  0.00  0.00    +0.149 C 
ENDBRANCH  23  26
BRANCH  13  21
ATOM      1  O   UNL     1      12.766   8.463  22.339  0.00  0.00    -0.274 OA
ATOM      8  N   UNL     1      14.248   9.785  21.123  0.00  0.00    -0.302 N 
ATOM     21  C   UNL     1      13.347   8.748  21.295  0.00  0.00    +0.234 C 
ATOM     43  H   UNL     1      14.717   9.887  20.228  0.00  0.00    +0.150 HD
BRANCH   8  25
ATOM     25  C   UNL     1      14.627  10.686  22.187  0.00  0.00    +0.163 C 
BRANCH  25  30
ATOM      4  O   UNL     1      16.854   9.905  21.610  0.00  0.00    -0.274 OA
ATOM     11  N   UNL     1      16.640  11.491  23.259  0.00  0.00    -0.328 N 
ATOM     30  C   UNL     1      16.142  10.621  22.311  0.00  0.00    +0.231 C 
ATOM     45  H   UNL     1      17.637  11.557  23.432  0.00  0.00    +0.145 HD
ATOM     46  H   UNL     1      16.039  12.092  23.814  0.00  0.00    +0.145 HD
ENDBRANCH  25  30
BRANCH  25  27
ATOM     27  C   UNL     1      14.172  12.126  21.918  0.00  0.00    +0.069 C 
BRANCH  27  29
ATOM     10  N   UNL     1      10.543  12.534  22.339  0.00  0.00    -0.360 N 
ATOM     29  C   UNL     1      12.758  12.388  22.352  0.00  0.00    -0.020 A 
ATOM     33  C   UNL     1      12.338  12.899  23.612  0.00  0.00    +0.003 A 
ATOM     35  C   UNL     1      11.631  12.174  21.591  0.00  0.00    +0.087 A 
ATOM     36  C   UNL     1      10.944  12.981  23.578  0.00  0.00    +0.047 A 
ATOM     37  C   UNL     1      13.013  13.301  24.782  0.00  0.00    +0.010 A 
ATOM     38  C   UNL     1      10.189  13.446  24.658  0.00  0.00    +0.026 A 
ATOM     39  C   UNL     1      12.270  13.769  25.872  0.00  0.00    +0.001 A 
ATOM     40  C   UNL     1      10.879  13.840  25.809  0.00  0.00    +0.002 A 
ATOM     44  H   UNL     1       9.584  12.480  22.027  0.00  0.00    +0.165 HD
ENDBRANCH  27  29
ENDBRANCH  25  27
ENDBRANCH   8  25
ENDBRANCH  13  21
TORSDOF 8
ENDMDL
MODEL 8
REMARK VINA RESULT:      -6.5      2.234      4.078
REMARK  Name = 11882029
REMARK  9 active torsions:
REMARK  status: ('A' for Active; 'I' for Inactive)
REMARK    1  A    between atoms: N_6  and  C_12
REMARK    2  A    between atoms: N_7  and  C_16
REMARK    3  A    between atoms: N_8  and  C_25
REMARK    4  A    between atoms: N_9  and  C_34
REMARK    5  A    between atoms: C_13  and  C_21
REMARK    6  A    between atoms: C_23  and  C_26
REMARK    7  A    between atoms: C_25  and  C_27
REMARK    8  A    between atoms: C_25  and  C_30
REMARK    9  A    between atoms: C_27  and  C_29
REMARK                            x       y       z     vdW  Elec       q    Type
REMARK                         _______ _______ _______ _____ _____    ______ ____
ROOT
ATOM      2  O   UNL     1      -6.902 -10.250  16.544  0.00  0.00    -0.268 OA
ATOM      5  N   UNL     1      -8.180 -10.620  14.660  0.00  0.00    -0.283 N 
ATOM     12  C   UNL     1      -9.070 -11.090  12.504  0.00  0.00    +0.094 C 
ATOM     13  C   UNL     1      -7.184 -11.434  13.979  0.00  0.00    +0.164 C 
ATOM     14  C   UNL     1      -7.920 -12.058  12.794  0.00  0.00    +0.056 C 
ATOM     15  C   UNL     1      -9.415 -10.522  13.877  0.00  0.00    +0.131 C 
ATOM     23  C   UNL     1      -7.974 -10.125  15.952  0.00  0.00    +0.264 C 
ENDROOT
BRANCH  12   6
ATOM      3  O   UNL     1     -10.296 -10.531   9.965  0.00  0.00    -0.253 OA
ATOM      6  N   UNL     1      -8.697 -10.053  11.576  0.00  0.00    -0.295 N 
ATOM      7  N   UNL     1      -8.794  -8.789   9.655  0.00  0.00    -0.297 N 
ATOM     24  C   UNL     1      -9.350  -9.853  10.360  0.00  0.00    +0.300 C 
ATOM     41  H   UNL     1      -7.884  -9.482  11.786  0.00  0.00    +0.151 HD
ATOM     42  H   UNL     1      -7.967  -8.344  10.042  0.00  0.00    +0.151 HD
BRANCH   7  16
ATOM     16  C   UNL     1      -9.275  -8.359   8.361  0.00  0.00    +0.074 C 
ATOM     17  C   UNL     1     -10.585  -7.577   8.492  0.00  0.00    +0.022 C 
ATOM     18  C   UNL     1      -8.211  -7.543   7.621  0.00  0.00    +0.022 C 
ATOM     19  C   UNL     1     -10.379  -6.190   9.103  0.00  0.00    +0.002 C 
ATOM     20  C   UNL     1      -8.009  -6.156   8.233  0.00  0.00    +0.002 C 
ATOM     22  C   UNL     1      -9.324  -5.392   8.343  0.00  0.00    +0.000 C 
ENDBRANCH   7  16
ENDBRANCH  12   6
BRANCH  23  26
ATOM      9  N   UNL     1     -10.047 -10.006  17.350  0.00  0.00    -0.346 N 
ATOM     26  C   UNL     1      -9.092  -9.419  16.563  0.00  0.00    +0.104 A 
ATOM     28  C   UNL     1      -9.390  -8.078  16.470  0.00  0.00    +0.032 A 
ATOM     31  C   UNL     1     -10.949  -9.060  17.761  0.00  0.00    +0.086 A 
ATOM     32  C   UNL     1     -10.565  -7.851  17.226  0.00  0.00    +0.020 A 
ATOM     34  C   UNL     1     -10.108 -11.407  17.705  0.00  0.00    +0.149 C 
ENDBRANCH  23  26
BRANCH  13  21
ATOM      1  O   UNL     1      -6.271  -9.450  13.015  0.00  0.00    -0.274 OA
ATOM      8  N   UNL     1      -4.823 -11.129  13.723  0.00  0.00    -0.302 N 
ATOM     21  C   UNL     1      -6.063 -10.549  13.522  0.00  0.00    +0.234 C 
ATOM     43  H   UNL     1      -4.767 -12.018  14.212  0.00  0.00    +0.150 HD
BRANCH   8  25
ATOM     25  C   UNL     1      -3.581 -10.491  13.349  0.00  0.00    +0.163 C 
BRANCH  25  30
ATOM      4  O   UNL     1      -2.734 -11.559  15.360  0.00  0.00    -0.274 OA
ATOM     11  N   UNL     1      -1.546  -9.809  14.463  0.00  0.00    -0.328 N 
ATOM     30  C   UNL     1      -2.611 -10.685  14.505  0.00  0.00    +0.231 C 
ATOM     45  H   UNL     1      -0.818  -9.841  15.168  0.00  0.00    +0.145 HD
ATOM     46  H   UNL     1      -1.447  -9.108  13.736  0.00  0.00    +0.145 HD
ENDBRANCH  25  30
BRANCH  25  27
ATOM     27  C   UNL     1      -2.997 -11.071  12.055  0.00  0.00    +0.069 C 
BRANCH  27  29
ATOM     10  N   UNL     1      -3.761  -8.942   9.157  0.00  0.00    -0.360 N 
ATOM     29  C   UNL     1      -3.516 -10.393  10.818  0.00  0.00    -0.020 A 
ATOM     33  C   UNL     1      -4.598 -10.829  10.004  0.00  0.00    +0.003 A 
ATOM     35  C   UNL     1      -3.022  -9.231  10.272  0.00  0.00    +0.087 A 
ATOM     36  C   UNL     1      -4.732  -9.901   8.968  0.00  0.00    +0.047 A 
ATOM     37  C   UNL     1      -5.480 -11.927  10.048  0.00  0.00    +0.010 A 
ATOM     38  C   UNL     1      -5.706 -10.016   7.972  0.00  0.00    +0.026 A 
ATOM     39  C   UNL     1      -6.460 -12.056   9.057  0.00  0.00    +0.001 A 
ATOM     40  C   UNL     1      -6.570 -11.114   8.036  0.00  0.00    +0.002 A 
ATOM     44  H   UNL     1      -3.617  -8.142   8.558  0.00  0.00    +0.165 HD
ENDBRANCH  27  29
ENDBRANCH  25  27
ENDBRANCH   8  25
ENDBRANCH  13  21
TORSDOF 8
ENDMDL
MODEL 9
REMARK VINA RESULT:      -6.5      2.840      7.620
REMARK  Name = 11882029
REMARK  9 active torsions:
REMARK  status: ('A' for Active; 'I' for Inactive)
REMARK    1  A    between atoms: N_6  and  C_12
REMARK    2  A    between atoms: N_7  and  C_16
REMARK    3  A    between atoms: N_8  and  C_25
REMARK    4  A    between atoms: N_9  and  C_34
REMARK    5  A    between atoms: C_13  and  C_21
REMARK    6  A    between atoms: C_23  and  C_26
REMARK    7  A    between atoms: C_25  and  C_27
REMARK    8  A    between atoms: C_25  and  C_30
REMARK    9  A    between atoms: C_27  and  C_29
REMARK                            x       y       z     vdW  Elec       q    Type
REMARK                         _______ _______ _______ _____ _____    ______ ____
ROOT
ATOM      2  O   UNL     1      -3.143 -14.857  15.147  0.00  0.00    -0.268 OA
ATOM      5  N   UNL     1      -2.514 -12.951  14.009  0.00  0.00    -0.283 N 
ATOM     12  C   UNL     1      -2.183 -10.764  13.133  0.00  0.00    +0.094 C 
ATOM     13  C   UNL     1      -2.923 -12.027  15.058  0.00  0.00    +0.164 C 
ATOM     14  C   UNL     1      -2.334 -10.678  14.654  0.00  0.00    +0.056 C 
ATOM     15  C   UNL     1      -1.899 -12.242  12.885  0.00  0.00    +0.131 C 
ATOM     23  C   UNL     1      -2.607 -14.338  14.167  0.00  0.00    +0.264 C 
ENDROOT
BRANCH  12   6
ATOM      3  O   UNL     1      -2.287  -9.471  10.568  0.00  0.00    -0.253 OA
ATOM      6  N   UNL     1      -3.365 -10.325  12.436  0.00  0.00    -0.295 N 
ATOM      7  N   UNL     1      -4.600  -9.379  10.739  0.00  0.00    -0.297 N 
ATOM     24  C   UNL     1      -3.322  -9.703  11.189  0.00  0.00    +0.300 C 
ATOM     41  H   UNL     1      -4.264 -10.414  12.899  0.00  0.00    +0.151 HD
ATOM     42  H   UNL     1      -5.381  -9.550  11.366  0.00  0.00    +0.151 HD
BRANCH   7  16
ATOM     16  C   UNL     1      -4.853  -8.726   9.475  0.00  0.00    +0.074 C 
ATOM     17  C   UNL     1      -4.812  -9.729   8.318  0.00  0.00    +0.022 C 
ATOM     18  C   UNL     1      -6.181  -7.963   9.504  0.00  0.00    +0.022 C 
ATOM     19  C   UNL     1      -6.024 -10.662   8.310  0.00  0.00    +0.002 C 
ATOM     20  C   UNL     1      -7.391  -8.899   9.494  0.00  0.00    +0.002 C 
ATOM     22  C   UNL     1      -7.335  -9.880   8.328  0.00  0.00    +0.000 C 
ENDBRANCH   7  16
ENDBRANCH  12   6
BRANCH  23  26
ATOM      9  N   UNL     1      -2.746 -15.501  11.955  0.00  0.00    -0.346 N 
ATOM     26  C   UNL     1      -2.062 -15.152  13.089  0.00  0.00    +0.104 A 
ATOM     28  C   UNL     1      -0.804 -15.706  13.010  0.00  0.00    +0.032 A 
ATOM     31  C   UNL     1      -1.943 -16.268  11.152  0.00  0.00    +0.086 A 
ATOM     32  C   UNL     1      -0.728 -16.413  11.784  0.00  0.00    +0.020 A 
ATOM     34  C   UNL     1      -4.106 -15.124  11.636  0.00  0.00    +0.149 C 
ENDBRANCH  23  26
BRANCH  13  21
ATOM      1  O   UNL     1      -5.107 -12.159  14.101  0.00  0.00    -0.274 OA
ATOM      8  N   UNL     1      -4.897 -11.693  16.372  0.00  0.00    -0.302 N 
ATOM     21  C   UNL     1      -4.422 -11.979  15.104  0.00  0.00    +0.234 C 
ATOM     43  H   UNL     1      -4.238 -11.627  17.143  0.00  0.00    +0.150 HD
BRANCH   8  25
ATOM     25  C   UNL     1      -6.304 -11.568  16.679  0.00  0.00    +0.163 C 
BRANCH  25  30
ATOM      4  O   UNL     1      -6.544 -11.720  19.093  0.00  0.00    -0.274 OA
ATOM     11  N   UNL     1      -6.800 -13.630  17.841  0.00  0.00    -0.328 N 
ATOM     30  C   UNL     1      -6.539 -12.285  18.001  0.00  0.00    +0.231 C 
ATOM     45  H   UNL     1      -6.988 -14.222  18.643  0.00  0.00    +0.145 HD
ATOM     46  H   UNL     1      -6.815 -14.077  16.930  0.00  0.00    +0.145 HD
ENDBRANCH  25  30
BRANCH  25  27
ATOM     27  C   UNL     1      -6.749 -10.104  16.776  0.00  0.00    +0.069 C 
BRANCH  27  29
ATOM     10  N   UNL     1      -9.065  -9.640  13.959  0.00  0.00    -0.360 N 
ATOM     29  C   UNL     1      -7.847  -9.757  15.811  0.00  0.00    -0.020 A 
ATOM     33  C   UNL     1      -8.991  -8.955  16.081  0.00  0.00    +0.003 A 
ATOM     35  C   UNL     1      -7.921 -10.163  14.499  0.00  0.00    +0.087 A 
ATOM     36  C   UNL     1      -9.738  -8.897  14.903  0.00  0.00    +0.047 A 
ATOM     37  C   UNL     1      -9.463  -8.269  17.218  0.00  0.00    +0.010 A 
ATOM     38  C   UNL     1     -10.939  -8.186  14.804  0.00  0.00    +0.026 A 
ATOM     39  C   UNL     1     -10.664  -7.554  17.135  0.00  0.00    +0.001 A 
ATOM     40  C   UNL     1     -11.388  -7.514  15.946  0.00  0.00    +0.002 A 
ATOM     44  H   UNL     1      -9.371  -9.778  13.007  0.00  0.00    +0.165 HD
ENDBRANCH  27  29
ENDBRANCH  25  27
ENDBRANCH   8  25
ENDBRANCH  13  21
TORSDOF 8
ENDMDL
MODEL 10
REMARK VINA RESULT:      -6.4      2.332      7.619
REMARK  Name = 11882029
REMARK  9 active torsions:
REMARK  status: ('A' for Active; 'I' for Inactive)
REMARK    1  A    between atoms: N_6  and  C_12
REMARK    2  A    between atoms: N_7  and  C_16
REMARK    3  A    between atoms: N_8  and  C_25
REMARK    4  A    between atoms: N_9  and  C_34
REMARK    5  A    between atoms: C_13  and  C_21
REMARK    6  A    between atoms: C_23  and  C_26
REMARK    7  A    between atoms: C_25  and  C_27
REMARK    8  A    between atoms: C_25  and  C_30
REMARK    9  A    between atoms: C_27  and  C_29
REMARK                            x       y       z     vdW  Elec       q    Type
REMARK                         _______ _______ _______ _____ _____    ______ ____
ROOT
ATOM      2  O   UNL     1      -7.219 -12.907  17.467  0.00  0.00    -0.268 OA
ATOM      5  N   UNL     1      -5.246 -12.055  16.630  0.00  0.00    -0.283 N 
ATOM     12  C   UNL     1      -3.453 -10.754  15.762  0.00  0.00    +0.094 C 
ATOM     13  C   UNL     1      -5.516 -10.680  17.022  0.00  0.00    +0.164 C 
ATOM     14  C   UNL     1      -4.193  -9.941  16.827  0.00  0.00    +0.056 C 
ATOM     15  C   UNL     1      -3.924 -12.183  16.010  0.00  0.00    +0.131 C 
ATOM     23  C   UNL     1      -6.121 -13.100  16.944  0.00  0.00    +0.264 C 
ENDROOT
BRANCH  12   6
ATOM      3  O   UNL     1      -2.069 -11.491  13.352  0.00  0.00    -0.253 OA
ATOM      6  N   UNL     1      -3.760 -10.317  14.423  0.00  0.00    -0.295 N 
ATOM      7  N   UNL     1      -3.533 -10.160  12.138  0.00  0.00    -0.297 N 
ATOM     24  C   UNL     1      -3.031 -10.727  13.307  0.00  0.00    +0.300 C 
ATOM     41  H   UNL     1      -4.498  -9.634  14.292  0.00  0.00    +0.151 HD
ATOM     42  H   UNL     1      -4.287  -9.485  12.224  0.00  0.00    +0.151 HD
BRANCH   7  16
ATOM     16  C   UNL     1      -2.969 -10.412  10.830  0.00  0.00    +0.074 C 
ATOM     17  C   UNL     1      -3.707 -11.553  10.123  0.00  0.00    +0.022 C 
ATOM     18  C   UNL     1      -2.965  -9.139   9.978  0.00  0.00    +0.022 C 
ATOM     19  C   UNL     1      -5.109 -11.149   9.665  0.00  0.00    +0.002 C 
ATOM     20  C   UNL     1      -4.369  -8.739   9.520  0.00  0.00    +0.002 C 
ATOM     22  C   UNL     1      -5.078  -9.886   8.809  0.00  0.00    +0.000 C 
ENDBRANCH   7  16
ENDBRANCH  12   6
BRANCH  23  26
ATOM      9  N   UNL     1      -6.031 -15.101  15.443  0.00  0.00    -0.346 N 
ATOM     26  C   UNL     1      -5.682 -14.444  16.593  0.00  0.00    +0.104 A 
ATOM     28  C   UNL     1      -4.864 -15.277  17.323  0.00  0.00    +0.032 A 
ATOM     31  C   UNL     1      -5.448 -16.341  15.427  0.00  0.00    +0.086 A 
ATOM     32  C   UNL     1      -4.716 -16.478  16.586  0.00  0.00    +0.020 A 
ATOM     34  C   UNL     1      -6.882 -14.581  14.395  0.00  0.00    +0.149 C 
ENDBRANCH  23  26
BRANCH  13  21
ATOM      1  O   UNL     1      -6.425  -9.992  14.924  0.00  0.00    -0.274 OA
ATOM      8  N   UNL     1      -7.726  -9.776  16.842  0.00  0.00    -0.302 N 
ATOM     21  C   UNL     1      -6.589 -10.124  16.134  0.00  0.00    +0.234 C 
ATOM     43  H   UNL     1      -7.775  -9.990  17.834  0.00  0.00    +0.150 HD
BRANCH   8  25
ATOM     25  C   UNL     1      -8.897  -9.197  16.223  0.00  0.00    +0.163 C 
BRANCH  25  30
ATOM      4  O   UNL     1     -10.377 -10.467  14.773  0.00  0.00    -0.274 OA
ATOM     11  N   UNL     1      -9.958 -11.266  16.886  0.00  0.00    -0.328 N 
ATOM     30  C   UNL     1      -9.830 -10.345  15.867  0.00  0.00    +0.231 C 
ATOM     45  H   UNL     1     -10.541 -12.088  16.774  0.00  0.00    +0.145 HD
ATOM     46  H   UNL     1      -9.482 -11.162  17.777  0.00  0.00    +0.145 HD
ENDBRANCH  25  30
BRANCH  25  27
ATOM     27  C   UNL     1      -9.605  -8.195  17.143  0.00  0.00    +0.069 C 
BRANCH  27  29
ATOM     10  N   UNL     1     -11.517  -5.732  15.196  0.00  0.00    -0.360 N 
ATOM     29  C   UNL     1     -10.614  -7.346  16.424  0.00  0.00    -0.020 A 
ATOM     33  C   UNL     1     -12.020  -7.557  16.376  0.00  0.00    +0.003 A 
ATOM     35  C   UNL     1     -10.336  -6.216  15.689  0.00  0.00    +0.087 A 
ATOM     36  C   UNL     1     -12.564  -6.531  15.600  0.00  0.00    +0.047 A 
ATOM     37  C   UNL     1     -12.887  -8.526  16.921  0.00  0.00    +0.010 A 
ATOM     38  C   UNL     1     -13.934  -6.424  15.341  0.00  0.00    +0.026 A 
ATOM     39  C   UNL     1     -14.260  -8.433  16.670  0.00  0.00    +0.001 A 
ATOM     40  C   UNL     1     -14.774  -7.397  15.891  0.00  0.00    +0.002 A 
ATOM     44  H   UNL     1     -11.609  -4.908  14.620  0.00  0.00    +0.165 HD
ENDBRANCH  27  29
ENDBRANCH  25  27
ENDBRANCH   8  25
ENDBRANCH  13  21
TORSDOF 8
ENDMDL
