REMARK  Name = 75536531
REMARK  11 active torsions:
REMARK  status: ('A' for Active; 'I' for Inactive)
REMARK    1  A    between atoms: O_3  and  C_8
REMARK    2  A    between atoms: N_5  and  C_7
REMARK    3  A    between atoms: N_5  and  C_13
REMARK    4  A    between atoms: N_6  and  C_11
REMARK    5  A    between atoms: C_9  and  C_11
REMARK    6  A    between atoms: C_12  and  C_14
REMARK    7  A    between atoms: C_12  and  C_16
REMARK    8  A    between atoms: C_12  and  C_17
REMARK    9  A    between atoms: C_12  and  C_18
REMARK   10  A    between atoms: C_13  and  C_19
REMARK   11  A    between atoms: C_14  and  C_15
REMARK                            x       y       z     vdW  Elec       q    Type
REMARK                         _______ _______ _______ _____ _____    ______ ____
ROOT
ATOM      2  O   UNL     1       1.313   0.125   0.076  0.00  0.00    -0.371 OA
ATOM      7  C   UNL     1      -0.871  -0.723   0.470  0.00  0.00    +0.111 C 
ATOM      8  C   UNL     1      -0.068  -1.759  -0.294  0.00  0.00    +0.164 C 
ATOM      9  C   UNL     1       1.355  -1.310   0.009  0.00  0.00    +0.165 C 
ATOM     10  C   UNL     1      -0.059   0.536   0.213  0.00  0.00    +0.181 C 
ENDROOT
BRANCH   8   3
ATOM      3  O   UNL     1      -0.311  -3.078   0.155  0.00  0.00    -0.388 OA
ATOM     27  H   UNL     1      -0.123  -3.117   1.108  0.00  0.00    +0.210 HD
ENDBRANCH   8   3
BRANCH   7   5
ATOM      5  N   UNL     1      -2.250  -0.608   0.025  0.00  0.00    -0.305 NA
ATOM     25  H   UNL     1      -2.644  -1.543  -0.082  0.00  0.00    +0.123 HD
BRANCH   5  13
ATOM     13  C   UNL     1      -3.053   0.135   0.989  0.00  0.00    +0.119 C 
BRANCH  13  19
ATOM      1  F   UNL     1      -3.864   1.966  -1.014  0.00  0.00    -0.205 F 
ATOM     19  C   UNL     1      -4.482   0.278   0.536  0.00  0.00    +0.002 A 
ATOM     20  C   UNL     1      -4.812   1.201  -0.456  0.00  0.00    +0.128 A 
ATOM     21  C   UNL     1      -5.476  -0.514   1.111  0.00  0.00    +0.008 A 
ATOM     22  C   UNL     1      -6.136   1.331  -0.874  0.00  0.00    +0.038 A 
ATOM     23  C   UNL     1      -6.800  -0.384   0.693  0.00  0.00    +0.000 A 
ATOM     24  C   UNL     1      -7.131   0.539  -0.299  0.00  0.00    +0.003 A 
ENDBRANCH  13  19
ENDBRANCH   5  13
ENDBRANCH   7   5
BRANCH   9  11
ATOM     11  C   UNL     1       2.359  -1.746  -1.044  0.00  0.00    +0.138 C 
BRANCH  11   6
ATOM      4  O   UNL     1       3.606   0.752  -1.815  0.00  0.00    -0.276 OA
ATOM      6  N   UNL     1       3.693  -1.296  -0.720  0.00  0.00    -0.313 N 
ATOM     15  C   UNL     1       4.206  -0.079  -1.136  0.00  0.00    +0.214 C 
ATOM     26  H   UNL     1       4.269  -1.909  -0.151  0.00  0.00    +0.149 HD
BRANCH  15  14
ATOM     14  C   UNL     1       5.634   0.155  -0.671  0.00  0.00    +0.102 C 
BRANCH  14  12
ATOM     12  C   UNL     1       5.762   0.909   0.673  0.00  0.00    -0.029 C 
ATOM     16  C   UNL     1       5.041   0.163   1.808  0.00  0.00    +0.011 C 
ATOM     17  C   UNL     1       7.237   1.113   1.056  0.00  0.00    +0.011 C 
ATOM     18  C   UNL     1       5.106   2.294   0.508  0.00  0.00    +0.011 C 
ENDBRANCH  14  12
ENDBRANCH  15  14
ENDBRANCH  11   6
ENDBRANCH   9  11
TORSDOF 8
