REMARK  Name = 7135490
REMARK  8 active torsions:
REMARK  status: ('A' for Active; 'I' for Inactive)
REMARK    1  A    between atoms: O_5  and  C_25
REMARK    2  A    between atoms: C_14  and  C_15
REMARK    3  A    between atoms: C_14  and  C_19
REMARK    4  A    between atoms: C_14  and  C_20
REMARK    5  A    between atoms: C_14  and  C_21
REMARK    6  A    between atoms: C_15  and  C_16
REMARK    7  A    between atoms: C_19  and  C_25
REMARK    8  A    between atoms: C_27  and  C_29
REMARK                            x       y       z     vdW  Elec       q    Type
REMARK                         _______ _______ _______ _____ _____    ______ ____
ROOT
ATOM      2  O   UNL     1      -4.540  -1.261  -1.841  0.00  0.00    -0.276 OA
ATOM      3  O   UNL     1      -1.839   1.440  -0.845  0.00  0.00    -0.273 OA
ATOM      4  O   UNL     1       1.558  -1.239   2.198  0.00  0.00    -0.270 OA
ATOM      7  N   UNL     1      -2.902  -1.280  -0.191  0.00  0.00    -0.298 N 
ATOM      8  N   UNL     1      -0.145  -0.957   0.658  0.00  0.00    -0.283 N 
ATOM      9  N   UNL     1       0.408   1.676  -0.574  0.00  0.00    -0.283 N 
ATOM     10  C   UNL     1      -0.548  -0.594  -0.694  0.00  0.00    +0.180 C 
ATOM     11  C   UNL     1      -1.802  -1.345  -1.158  0.00  0.00    +0.139 C 
ATOM     12  C   UNL     1      -2.534  -1.257   1.227  0.00  0.00    +0.127 C 
ATOM     13  C   UNL     1      -1.103  -1.716   1.463  0.00  0.00    +0.128 C 
ATOM     16  C   UNL     1      -4.220  -1.242  -0.650  0.00  0.00    +0.216 C 
ATOM     17  C   UNL     1      -0.736   0.915  -0.681  0.00  0.00    +0.239 C 
ATOM     18  C   UNL     1       1.148  -0.768   1.136  0.00  0.00    +0.249 C 
ATOM     22  C   UNL     1       2.092   0.070   0.349  0.00  0.00    +0.059 A 
ATOM     23  C   UNL     1       1.729   1.239  -0.338  0.00  0.00    +0.046 A 
ATOM     24  C   UNL     1       3.454  -0.262   0.472  0.00  0.00    +0.023 A 
ATOM     26  C   UNL     1       2.741   2.086  -0.824  0.00  0.00    +0.024 A 
ATOM     27  C   UNL     1       4.444   0.565  -0.059  0.00  0.00    -0.014 A 
ATOM     28  C   UNL     1       4.088   1.746  -0.696  0.00  0.00    +0.010 A 
ATOM     35  H   UNL     1       0.297   2.664  -0.787  0.00  0.00    +0.155 HD
ENDROOT
BRANCH  27  29
ATOM      1  F   UNL     1       5.790  -0.955  -2.001  0.00  0.00    -0.205 F 
ATOM     29  C   UNL     1       5.839   0.205   0.074  0.00  0.00    +0.017 A 
ATOM     30  C   UNL     1       6.466  -0.552  -0.916  0.00  0.00    +0.131 A 
ATOM     31  C   UNL     1       6.558   0.618   1.197  0.00  0.00    +0.011 A 
ATOM     32  C   UNL     1       7.812  -0.896  -0.783  0.00  0.00    +0.039 A 
ATOM     33  C   UNL     1       7.903   0.273   1.329  0.00  0.00    +0.001 A 
ATOM     34  C   UNL     1       8.530  -0.484   0.340  0.00  0.00    +0.003 A 
ENDBRANCH  27  29
BRANCH  16  15
ATOM     15  C   UNL     1      -5.292  -1.180   0.411  0.00  0.00    +0.103 C 
BRANCH  15  14
ATOM     14  C   UNL     1      -6.584  -0.499  -0.083  0.00  0.00    -0.017 C 
ATOM     20  C   UNL     1      -7.590  -0.499   1.086  0.00  0.00    +0.012 C 
ATOM     21  C   UNL     1      -7.206  -1.317  -1.235  0.00  0.00    +0.012 C 
BRANCH  14  19
ATOM     19  C   UNL     1      -6.351   0.945  -0.591  0.00  0.00    +0.127 C 
BRANCH  19  25
ATOM      6  O   UNL     1      -4.606   2.024   0.693  0.00  0.00    -0.251 OA
ATOM     25  C   UNL     1      -5.799   1.898   0.445  0.00  0.00    +0.305 C 
BRANCH  25   5
ATOM      5  O   UNL     1      -6.766   2.602   1.084  0.00  0.00    -0.481 OA
ATOM     36  H   UNL     1      -6.393   3.211   1.755  0.00  0.00    +0.295 HD
ENDBRANCH  25   5
ENDBRANCH  19  25
ENDBRANCH  14  19
ENDBRANCH  15  14
ENDBRANCH  16  15
TORSDOF 6
