REMARK  Name = 75536912
REMARK  5 active torsions:
REMARK  status: ('A' for Active; 'I' for Inactive)
REMARK    1  A    between atoms: O_2  and  C_6
REMARK    2  A    between atoms: O_2  and  C_13
REMARK    3  A    between atoms: N_4  and  C_9
REMARK    4  A    between atoms: C_9  and  C_11
REMARK    5  A    between atoms: C_14  and  C_18
REMARK                            x       y       z     vdW  Elec       q    Type
REMARK                         _______ _______ _______ _____ _____    ______ ____
ROOT
ATOM      1  O   UNL     1       0.513   3.388  -1.251  0.00  0.00    -0.375 OA
ATOM      4  N   UNL     1       1.921   1.287   0.123  0.00  0.00    -0.289 NA
ATOM      5  C   UNL     1       0.707   1.336   0.938  0.00  0.00    +0.131 C 
ATOM      6  C   UNL     1      -0.530   1.581   0.065  0.00  0.00    +0.213 C 
ATOM      7  C   UNL     1       2.535   2.594  -0.134  0.00  0.00    +0.113 C 
ATOM      8  C   UNL     1      -0.646   2.981  -0.534  0.00  0.00    +0.205 C 
ATOM     10  C   UNL     1       1.580   3.759  -0.386  0.00  0.00    +0.175 C 
ENDROOT
BRANCH   6   2
ATOM      2  O   UNL     1      -1.688   1.334   0.864  0.00  0.00    -0.485 OA
BRANCH   2  13
ATOM     13  C   UNL     1      -2.496   0.304   0.466  0.00  0.00    +0.121 A 
ATOM     16  C   UNL     1      -1.988  -0.993   0.392  0.00  0.00    +0.045 A 
ATOM     17  C   UNL     1      -3.829   0.552   0.136  0.00  0.00    +0.045 A 
ATOM     19  C   UNL     1      -2.813  -2.042  -0.013  0.00  0.00    +0.004 A 
ATOM     20  C   UNL     1      -4.653  -0.497  -0.269  0.00  0.00    +0.004 A 
ATOM     21  C   UNL     1      -4.145  -1.795  -0.344  0.00  0.00    +0.000 A 
ENDBRANCH   2  13
ENDBRANCH   6   2
BRANCH   4   9
ATOM      9  C   UNL     1       2.912   0.372   0.692  0.00  0.00    +0.159 C 
BRANCH   9  11
ATOM      3  O   UNL     1       2.301  -1.496  -0.744  0.00  0.00    -0.464 OA
ATOM     11  C   UNL     1       2.504  -1.068   0.530  0.00  0.00    +0.119 A 
ATOM     12  C   UNL     1       2.280  -2.090   1.423  0.00  0.00    +0.046 A 
ATOM     14  C   UNL     1       1.945  -2.804  -0.663  0.00  0.00    +0.102 A 
ATOM     15  C   UNL     1       1.918  -3.217   0.649  0.00  0.00    +0.044 A 
ATOM     18  C   UNL     1       1.673  -3.485  -1.938  0.00  0.00    +0.086 C 
ENDBRANCH   9  11
ENDBRANCH   4   9
TORSDOF 4
