MODEL 1
REMARK VINA RESULT:      -5.7      0.000      0.000
REMARK  Name = 7114655
REMARK  12 active torsions:
REMARK  status: ('A' for Active; 'I' for Inactive)
REMARK    1  A    between atoms: S_1  and  N_14
REMARK    2  A    between atoms: S_1  and  C_28
REMARK    3  A    between atoms: O_4  and  C_26
REMARK    4  A    between atoms: O_4  and  C_30
REMARK    5  A    between atoms: O_9  and  C_27
REMARK    6  A    between atoms: O_9  and  C_31
REMARK    7  A    between atoms: O_10  and  C_34
REMARK    8  A    between atoms: N_14  and  C_16
REMARK    9  A    between atoms: C_15  and  C_21
REMARK   10  A    between atoms: C_20  and  C_26
REMARK   11  A    between atoms: C_25  and  C_27
REMARK   12  A    between atoms: C_31  and  C_34
REMARK                            x       y       z     vdW  Elec       q    Type
REMARK                         _______ _______ _______ _____ _____    ______ ____
ROOT
ATOM      5  O   UNL     1      19.476  10.299  20.857  0.00  0.00    -0.273 OA
ATOM     12  N   UNL     1      17.204  10.524  21.317  0.00  0.00    -0.288 N 
ATOM     15  C   UNL     1      15.896   9.914  21.614  0.00  0.00    +0.164 C 
ATOM     16  C   UNL     1      14.986  12.256  22.068  0.00  0.00    +0.080 C 
ATOM     17  C   UNL     1      15.013  10.791  22.505  0.00  0.00    +0.052 C 
ATOM     18  C   UNL     1      16.404  12.795  21.911  0.00  0.00    +0.039 C 
ATOM     19  C   UNL     1      17.198  11.940  20.933  0.00  0.00    +0.110 C 
ATOM     25  C   UNL     1      18.406   9.811  21.236  0.00  0.00    +0.242 C 
ENDROOT
BRANCH  15  21
ATOM      3  O   UNL     1      15.519  10.288  19.299  0.00  0.00    -0.274 OA
ATOM     13  N   UNL     1      14.358   8.550  20.294  0.00  0.00    -0.286 N 
ATOM     20  C   UNL     1      13.524   8.226  19.144  0.00  0.00    +0.185 C 
ATOM     21  C   UNL     1      15.247   9.615  20.294  0.00  0.00    +0.237 C 
ATOM     22  C   UNL     1      14.007   7.727  21.448  0.00  0.00    +0.109 C 
ATOM     23  C   UNL     1      12.419   7.341  19.705  0.00  0.00    +0.035 C 
ATOM     24  C   UNL     1      13.083   6.653  20.894  0.00  0.00    +0.021 C 
BRANCH  20  26
ATOM      6  O   UNL     1      15.420   6.904  18.468  0.00  0.00    -0.249 OA
ATOM     26  C   UNL     1      14.389   7.488  18.167  0.00  0.00    +0.328 C 
BRANCH  26   4
ATOM      4  O   UNL     1      13.843   7.575  16.920  0.00  0.00    -0.467 OA
ATOM     30  C   UNL     1      13.883   8.875  16.321  0.00  0.00    +0.280 C 
ENDBRANCH  26   4
ENDBRANCH  20  26
ENDBRANCH  15  21
BRANCH  16  14
ATOM     14  N   UNL     1      14.263  13.057  23.087  0.00  0.00    -0.186 NA
ATOM     35  H   UNL     1      14.821  13.730  23.626  0.00  0.00    +0.148 HD
BRANCH  14   1
ATOM      1  S   UNL     1      12.601  13.363  22.828  0.00  0.00    +0.065 S 
ATOM      7  O   UNL     1      12.432  14.095  21.588  0.00  0.00    -0.153 OA
ATOM      8  O   UNL     1      12.013  13.832  24.067  0.00  0.00    -0.153 OA
BRANCH   1  28
ATOM      2  S   UNL     1      11.115  11.074  23.959  0.00  0.00    -0.077 S 
ATOM     28  C   UNL     1      11.806  11.779  22.559  0.00  0.00    +0.142 A 
ATOM     29  C   UNL     1      11.628  10.990  21.443  0.00  0.00    +0.036 A 
ATOM     32  C   UNL     1      10.917   9.793  21.742  0.00  0.00    +0.010 A 
ATOM     33  C   UNL     1      10.576   9.712  23.074  0.00  0.00    +0.047 A 
ENDBRANCH   1  28
ENDBRANCH  14   1
ENDBRANCH  16  14
BRANCH  25  27
ATOM     27  C   UNL     1      18.368   8.361  21.652  0.00  0.00    +0.256 C 
BRANCH  27   9
ATOM      9  O   UNL     1      18.140   7.614  20.482  0.00  0.00    -0.359 OA
BRANCH   9  31
ATOM     31  C   UNL     1      17.861   6.244  20.767  0.00  0.00    +0.280 C 
BRANCH  31  34
ATOM     11  O   UNL     1      19.616   4.705  20.088  0.00  0.00    -0.248 OA
ATOM     34  C   UNL     1      18.621   5.361  19.816  0.00  0.00    +0.331 C 
BRANCH  34  10
ATOM     10  O   UNL     1      18.043   5.388  18.589  0.00  0.00    -0.479 OA
ATOM     36  H   UNL     1      17.125   5.734  18.623  0.00  0.00    +0.295 HD
ENDBRANCH  34  10
ENDBRANCH  31  34
ENDBRANCH   9  31
ENDBRANCH  27   9
ENDBRANCH  25  27
TORSDOF 11
ENDMDL
MODEL 2
REMARK VINA RESULT:      -5.6     14.461     17.128
REMARK  Name = 7114655
REMARK  12 active torsions:
REMARK  status: ('A' for Active; 'I' for Inactive)
REMARK    1  A    between atoms: S_1  and  N_14
REMARK    2  A    between atoms: S_1  and  C_28
REMARK    3  A    between atoms: O_4  and  C_26
REMARK    4  A    between atoms: O_4  and  C_30
REMARK    5  A    between atoms: O_9  and  C_27
REMARK    6  A    between atoms: O_9  and  C_31
REMARK    7  A    between atoms: O_10  and  C_34
REMARK    8  A    between atoms: N_14  and  C_16
REMARK    9  A    between atoms: C_15  and  C_21
REMARK   10  A    between atoms: C_20  and  C_26
REMARK   11  A    between atoms: C_25  and  C_27
REMARK   12  A    between atoms: C_31  and  C_34
REMARK                            x       y       z     vdW  Elec       q    Type
REMARK                         _______ _______ _______ _____ _____    ______ ____
ROOT
ATOM      5  O   UNL     1      12.670   5.960   7.915  0.00  0.00    -0.273 OA
ATOM     12  N   UNL     1      13.259   7.422   6.201  0.00  0.00    -0.288 N 
ATOM     15  C   UNL     1      12.872   8.289   5.075  0.00  0.00    +0.164 C 
ATOM     16  C   UNL     1      15.284   9.122   4.978  0.00  0.00    +0.080 C 
ATOM     17  C   UNL     1      13.802   9.491   4.895  0.00  0.00    +0.052 C 
ATOM     18  C   UNL     1      15.568   8.326   6.247  0.00  0.00    +0.039 C 
ATOM     19  C   UNL     1      14.684   7.088   6.315  0.00  0.00    +0.110 C 
ATOM     25  C   UNL     1      12.351   6.789   7.059  0.00  0.00    +0.242 C 
ENDROOT
BRANCH  15  21
ATOM      3  O   UNL     1      13.853   6.871   3.442  0.00  0.00    -0.274 OA
ATOM     13  N   UNL     1      11.583   7.288   3.257  0.00  0.00    -0.286 N 
ATOM     20  C   UNL     1      11.393   6.615   1.979  0.00  0.00    +0.185 C 
ATOM     21  C   UNL     1      12.829   7.420   3.852  0.00  0.00    +0.237 C 
ATOM     22  C   UNL     1      10.346   7.919   3.711  0.00  0.00    +0.109 C 
ATOM     23  C   UNL     1      10.029   7.091   1.492  0.00  0.00    +0.035 C 
ATOM     24  C   UNL     1       9.269   7.376   2.784  0.00  0.00    +0.021 C 
BRANCH  20  26
ATOM      6  O   UNL     1      10.740   4.598   3.121  0.00  0.00    -0.249 OA
ATOM     26  C   UNL     1      11.405   5.141   2.250  0.00  0.00    +0.328 C 
BRANCH  26   4
ATOM      4  O   UNL     1      12.260   4.527   1.383  0.00  0.00    -0.467 OA
ATOM     30  C   UNL     1      12.690   3.216   1.768  0.00  0.00    +0.280 C 
ENDBRANCH  26   4
ENDBRANCH  20  26
ENDBRANCH  15  21
BRANCH  16  14
ATOM     14  N   UNL     1      16.098  10.362   4.979  0.00  0.00    -0.186 NA
ATOM     35  H   UNL     1      15.958  11.006   5.767  0.00  0.00    +0.148 HD
BRANCH  14   1
ATOM      1  S   UNL     1      17.615  10.321   4.190  0.00  0.00    +0.065 S 
ATOM      7  O   UNL     1      18.124  11.671   4.052  0.00  0.00    -0.153 OA
ATOM      8  O   UNL     1      17.525   9.428   3.051  0.00  0.00    -0.153 OA
BRANCH   1  28
ATOM      2  S   UNL     1      19.735   8.295   4.539  0.00  0.00    -0.077 S 
ATOM     28  C   UNL     1      18.761   9.488   5.288  0.00  0.00    +0.142 A 
ATOM     29  C   UNL     1      19.031   9.606   6.634  0.00  0.00    +0.036 A 
ATOM     32  C   UNL     1      20.050   8.704   7.056  0.00  0.00    +0.010 A 
ATOM     33  C   UNL     1      20.522   7.933   6.017  0.00  0.00    +0.047 A 
ENDBRANCH   1  28
ENDBRANCH  14   1
ENDBRANCH  16  14
BRANCH  25  27
ATOM     27  C   UNL     1      10.899   7.171   6.913  0.00  0.00    +0.256 C 
BRANCH  27   9
ATOM      9  O   UNL     1      10.277   6.858   8.135  0.00  0.00    -0.359 OA
BRANCH   9  31
ATOM     31  C   UNL     1       9.261   5.867   7.981  0.00  0.00    +0.280 C 
BRANCH  31  34
ATOM     11  O   UNL     1       8.993   4.505   9.976  0.00  0.00    -0.248 OA
ATOM     34  C   UNL     1       9.536   4.709   8.900  0.00  0.00    +0.331 C 
BRANCH  34  10
ATOM     10  O   UNL     1      10.487   3.903   8.366  0.00  0.00    -0.479 OA
ATOM     36  H   UNL     1      11.276   3.832   8.944  0.00  0.00    +0.295 HD
ENDBRANCH  34  10
ENDBRANCH  31  34
ENDBRANCH   9  31
ENDBRANCH  27   9
ENDBRANCH  25  27
TORSDOF 11
ENDMDL
MODEL 3
REMARK VINA RESULT:      -5.4     27.796     29.927
REMARK  Name = 7114655
REMARK  12 active torsions:
REMARK  status: ('A' for Active; 'I' for Inactive)
REMARK    1  A    between atoms: S_1  and  N_14
REMARK    2  A    between atoms: S_1  and  C_28
REMARK    3  A    between atoms: O_4  and  C_26
REMARK    4  A    between atoms: O_4  and  C_30
REMARK    5  A    between atoms: O_9  and  C_27
REMARK    6  A    between atoms: O_9  and  C_31
REMARK    7  A    between atoms: O_10  and  C_34
REMARK    8  A    between atoms: N_14  and  C_16
REMARK    9  A    between atoms: C_15  and  C_21
REMARK   10  A    between atoms: C_20  and  C_26
REMARK   11  A    between atoms: C_25  and  C_27
REMARK   12  A    between atoms: C_31  and  C_34
REMARK                            x       y       z     vdW  Elec       q    Type
REMARK                         _______ _______ _______ _____ _____    ______ ____
ROOT
ATOM      5  O   UNL     1      -1.013 -10.877  15.160  0.00  0.00    -0.273 OA
ATOM     12  N   UNL     1      -3.200 -11.599  15.510  0.00  0.00    -0.288 N 
ATOM     15  C   UNL     1      -4.405 -12.297  15.030  0.00  0.00    +0.164 C 
ATOM     16  C   UNL     1      -5.387 -12.069  17.376  0.00  0.00    +0.080 C 
ATOM     17  C   UNL     1      -5.198 -12.968  16.153  0.00  0.00    +0.052 C 
ATOM     18  C   UNL     1      -4.048 -11.506  17.840  0.00  0.00    +0.039 C 
ATOM     19  C   UNL     1      -3.356 -10.761  16.705  0.00  0.00    +0.110 C 
ATOM     25  C   UNL     1      -1.979 -11.569  14.825  0.00  0.00    +0.242 C 
ENDROOT
BRANCH  15  21
ATOM      3  O   UNL     1      -5.483 -10.194  14.798  0.00  0.00    -0.274 OA
ATOM     13  N   UNL     1      -5.639 -11.666  13.019  0.00  0.00    -0.286 N 
ATOM     20  C   UNL     1      -6.571 -10.874  12.227  0.00  0.00    +0.185 C 
ATOM     21  C   UNL     1      -5.225 -11.284  14.286  0.00  0.00    +0.237 C 
ATOM     22  C   UNL     1      -5.356 -12.946  12.374  0.00  0.00    +0.109 C 
ATOM     23  C   UNL     1      -7.097 -11.838  11.170  0.00  0.00    +0.035 C 
ATOM     24  C   UNL     1      -5.943 -12.817  10.977  0.00  0.00    +0.021 C 
BRANCH  20  26
ATOM      6  O   UNL     1      -4.569  -9.668  11.651  0.00  0.00    -0.249 OA
ATOM     26  C   UNL     1      -5.788  -9.751  11.617  0.00  0.00    +0.328 C 
BRANCH  26   4
ATOM      4  O   UNL     1      -6.644  -8.864  11.035  0.00  0.00    -0.467 OA
ATOM     30  C   UNL     1      -6.333  -8.506   9.684  0.00  0.00    +0.280 C 
ENDBRANCH  26   4
ENDBRANCH  20  26
ENDBRANCH  15  21
BRANCH  16  14
ATOM     14  N   UNL     1      -5.999 -12.857  18.474  0.00  0.00    -0.186 NA
ATOM     35  H   UNL     1      -5.448 -13.643  18.841  0.00  0.00    +0.148 HD
BRANCH  14   1
ATOM      1  S   UNL     1      -7.113 -12.064  19.500  0.00  0.00    +0.065 S 
ATOM      7  O   UNL     1      -6.391 -11.303  20.500  0.00  0.00    -0.153 OA
ATOM      8  O   UNL     1      -8.156 -13.001  19.872  0.00  0.00    -0.153 OA
BRANCH   1  28
ATOM      2  S   UNL     1      -9.603 -11.241  18.140  0.00  0.00    -0.077 S 
ATOM     28  C   UNL     1      -7.977 -10.848  18.505  0.00  0.00    +0.142 A 
ATOM     29  C   UNL     1      -7.602  -9.639  17.960  0.00  0.00    +0.036 A 
ATOM     32  C   UNL     1      -8.666  -9.029  17.233  0.00  0.00    +0.010 A 
ATOM     33  C   UNL     1      -9.811  -9.793  17.251  0.00  0.00    +0.047 A 
ENDBRANCH   1  28
ENDBRANCH  14   1
ENDBRANCH  16  14
BRANCH  25  27
ATOM     27  C   UNL     1      -1.859 -12.455  13.609  0.00  0.00    +0.256 C 
BRANCH  27   9
ATOM      9  O   UNL     1      -1.085 -13.564  13.996  0.00  0.00    -0.359 OA
BRANCH   9  31
ATOM     31  C   UNL     1      -1.714 -14.800  13.657  0.00  0.00    +0.280 C 
BRANCH  31  34
ATOM     11  O   UNL     1      -0.869 -16.938  12.868  0.00  0.00    -0.248 OA
ATOM     34  C   UNL     1      -0.697 -15.746  13.080  0.00  0.00    +0.331 C 
BRANCH  34  10
ATOM     10  O   UNL     1       0.460 -15.089  12.820  0.00  0.00    -0.479 OA
ATOM     36  H   UNL     1       1.243 -15.671  12.922  0.00  0.00    +0.295 HD
ENDBRANCH  34  10
ENDBRANCH  31  34
ENDBRANCH   9  31
ENDBRANCH  27   9
ENDBRANCH  25  27
TORSDOF 11
ENDMDL
MODEL 4
REMARK VINA RESULT:      -5.3     14.553     17.629
REMARK  Name = 7114655
REMARK  12 active torsions:
REMARK  status: ('A' for Active; 'I' for Inactive)
REMARK    1  A    between atoms: S_1  and  N_14
REMARK    2  A    between atoms: S_1  and  C_28
REMARK    3  A    between atoms: O_4  and  C_26
REMARK    4  A    between atoms: O_4  and  C_30
REMARK    5  A    between atoms: O_9  and  C_27
REMARK    6  A    between atoms: O_9  and  C_31
REMARK    7  A    between atoms: O_10  and  C_34
REMARK    8  A    between atoms: N_14  and  C_16
REMARK    9  A    between atoms: C_15  and  C_21
REMARK   10  A    between atoms: C_20  and  C_26
REMARK   11  A    between atoms: C_25  and  C_27
REMARK   12  A    between atoms: C_31  and  C_34
REMARK                            x       y       z     vdW  Elec       q    Type
REMARK                         _______ _______ _______ _____ _____    ______ ____
ROOT
ATOM      5  O   UNL     1      14.965  10.359   6.964  0.00  0.00    -0.273 OA
ATOM     12  N   UNL     1      14.034   8.815   5.490  0.00  0.00    -0.288 N 
ATOM     15  C   UNL     1      12.849   8.198   4.870  0.00  0.00    +0.164 C 
ATOM     16  C   UNL     1      14.412   6.955   3.280  0.00  0.00    +0.080 C 
ATOM     17  C   UNL     1      13.099   7.722   3.437  0.00  0.00    +0.052 C 
ATOM     18  C   UNL     1      15.574   7.757   3.859  0.00  0.00    +0.039 C 
ATOM     19  C   UNL     1      15.309   8.110   5.316  0.00  0.00    +0.110 C 
ATOM     25  C   UNL     1      13.991   9.926   6.341  0.00  0.00    +0.242 C 
ENDROOT
BRANCH  15  21
ATOM      3  O   UNL     1      13.219   6.575   6.563  0.00  0.00    -0.274 OA
ATOM     13  N   UNL     1      11.097   6.682   5.645  0.00  0.00    -0.286 N 
ATOM     20  C   UNL     1      10.562   5.509   6.325  0.00  0.00    +0.185 C 
ATOM     21  C   UNL     1      12.420   7.077   5.771  0.00  0.00    +0.237 C 
ATOM     22  C   UNL     1      10.118   7.249   4.721  0.00  0.00    +0.109 C 
ATOM     23  C   UNL     1       9.276   5.182   5.575  0.00  0.00    +0.035 C 
ATOM     24  C   UNL     1       8.814   6.538   5.052  0.00  0.00    +0.021 C 
BRANCH  20  26
ATOM      6  O   UNL     1       9.933   7.025   8.087  0.00  0.00    -0.249 OA
ATOM     26  C   UNL     1      10.293   5.907   7.745  0.00  0.00    +0.328 C 
BRANCH  26   4
ATOM      4  O   UNL     1      10.511   4.840   8.565  0.00  0.00    -0.467 OA
ATOM     30  C   UNL     1       9.420   4.493   9.426  0.00  0.00    +0.280 C 
ENDBRANCH  26   4
ENDBRANCH  20  26
ENDBRANCH  15  21
BRANCH  16  14
ATOM     14  N   UNL     1      14.660   6.697   1.840  0.00  0.00    -0.186 NA
ATOM     35  H   UNL     1      15.387   7.263   1.387  0.00  0.00    +0.148 HD
BRANCH  14   1
ATOM      1  S   UNL     1      14.325   5.130   1.242  0.00  0.00    +0.065 S 
ATOM      7  O   UNL     1      14.968   4.144   2.087  0.00  0.00    -0.153 OA
ATOM      8  O   UNL     1      14.511   5.129  -0.196  0.00  0.00    -0.153 OA
BRANCH   1  28
ATOM      2  S   UNL     1      11.607   5.335   0.103  0.00  0.00    -0.077 S 
ATOM     28  C   UNL     1      12.564   4.853   1.439  0.00  0.00    +0.142 A 
ATOM     29  C   UNL     1      11.802   4.324   2.457  0.00  0.00    +0.036 A 
ATOM     32  C   UNL     1      10.413   4.315   2.136  0.00  0.00    +0.010 A 
ATOM     33  C   UNL     1      10.168   4.836   0.885  0.00  0.00    +0.047 A 
ENDBRANCH   1  28
ENDBRANCH  14   1
ENDBRANCH  16  14
BRANCH  25  27
ATOM     27  C   UNL     1      12.662  10.626   6.480  0.00  0.00    +0.256 C 
BRANCH  27   9
ATOM      9  O   UNL     1      12.061  10.117   7.646  0.00  0.00    -0.359 OA
BRANCH   9  31
ATOM     31  C   UNL     1      11.025  10.971   8.130  0.00  0.00    +0.280 C 
BRANCH  31  34
ATOM     11  O   UNL     1       9.314  11.767   6.598  0.00  0.00    -0.248 OA
ATOM     34  C   UNL     1       9.816  10.858   7.243  0.00  0.00    +0.331 C 
BRANCH  34  10
ATOM     10  O   UNL     1       9.345   9.586   7.252  0.00  0.00    -0.479 OA
ATOM     36  H   UNL     1       8.585   9.480   7.864  0.00  0.00    +0.295 HD
ENDBRANCH  34  10
ENDBRANCH  31  34
ENDBRANCH   9  31
ENDBRANCH  27   9
ENDBRANCH  25  27
TORSDOF 11
ENDMDL
MODEL 5
REMARK VINA RESULT:      -5.3     14.855     18.327
REMARK  Name = 7114655
REMARK  12 active torsions:
REMARK  status: ('A' for Active; 'I' for Inactive)
REMARK    1  A    between atoms: S_1  and  N_14
REMARK    2  A    between atoms: S_1  and  C_28
REMARK    3  A    between atoms: O_4  and  C_26
REMARK    4  A    between atoms: O_4  and  C_30
REMARK    5  A    between atoms: O_9  and  C_27
REMARK    6  A    between atoms: O_9  and  C_31
REMARK    7  A    between atoms: O_10  and  C_34
REMARK    8  A    between atoms: N_14  and  C_16
REMARK    9  A    between atoms: C_15  and  C_21
REMARK   10  A    between atoms: C_20  and  C_26
REMARK   11  A    between atoms: C_25  and  C_27
REMARK   12  A    between atoms: C_31  and  C_34
REMARK                            x       y       z     vdW  Elec       q    Type
REMARK                         _______ _______ _______ _____ _____    ______ ____
ROOT
ATOM      5  O   UNL     1      12.183   8.775   6.972  0.00  0.00    -0.273 OA
ATOM     12  N   UNL     1      10.408   8.364   5.521  0.00  0.00    -0.288 N 
ATOM     15  C   UNL     1       9.625   7.427   4.698  0.00  0.00    +0.164 C 
ATOM     16  C   UNL     1       7.924   9.292   4.316  0.00  0.00    +0.080 C 
ATOM     17  C   UNL     1       8.146   7.806   4.598  0.00  0.00    +0.052 C 
ATOM     18  C   UNL     1       8.699  10.149   5.312  0.00  0.00    +0.039 C 
ATOM     19  C   UNL     1      10.180   9.794   5.288  0.00  0.00    +0.110 C 
ATOM     25  C   UNL     1      11.441   7.982   6.385  0.00  0.00    +0.242 C 
ENDROOT
BRANCH  15  21
ATOM      3  O   UNL     1      10.480   8.409   2.712  0.00  0.00    -0.274 OA
ATOM     13  N   UNL     1      10.653   6.110   2.915  0.00  0.00    -0.286 N 
ATOM     20  C   UNL     1      11.158   5.860   1.572  0.00  0.00    +0.185 C 
ATOM     21  C   UNL     1      10.286   7.374   3.351  0.00  0.00    +0.237 C 
ATOM     22  C   UNL     1      10.443   4.859   3.640  0.00  0.00    +0.109 C 
ATOM     23  C   UNL     1      10.992   4.359   1.369  0.00  0.00    +0.035 C 
ATOM     24  C   UNL     1      11.109   3.795   2.782  0.00  0.00    +0.021 C 
BRANCH  20  26
ATOM      6  O   UNL     1      13.467   5.745   2.244  0.00  0.00    -0.249 OA
ATOM     26  C   UNL     1      12.600   6.269   1.559  0.00  0.00    +0.328 C 
BRANCH  26   4
ATOM      4  O   UNL     1      12.775   7.294   0.677  0.00  0.00    -0.467 OA
ATOM     30  C   UNL     1      11.859   7.322  -0.423  0.00  0.00    +0.280 C 
ENDBRANCH  26   4
ENDBRANCH  20  26
ENDBRANCH  15  21
BRANCH  16  14
ATOM     14  N   UNL     1       6.476   9.600   4.420  0.00  0.00    -0.186 NA
ATOM     35  H   UNL     1       6.076   9.622   5.366  0.00  0.00    +0.148 HD
BRANCH  14   1
ATOM      1  S   UNL     1       5.775  10.560   3.191  0.00  0.00    +0.065 S 
ATOM      7  O   UNL     1       5.795  11.952   3.595  0.00  0.00    -0.153 OA
ATOM      8  O   UNL     1       4.553   9.923   2.741  0.00  0.00    -0.153 OA
BRANCH   1  28
ATOM      2  S   UNL     1       7.850  11.832   1.519  0.00  0.00    -0.077 S 
ATOM     28  C   UNL     1       6.852  10.461   1.762  0.00  0.00    +0.142 A 
ATOM     29  C   UNL     1       7.053   9.498   0.798  0.00  0.00    +0.036 A 
ATOM     32  C   UNL     1       8.039   9.891  -0.154  0.00  0.00    +0.010 A 
ATOM     33  C   UNL     1       8.554  11.139   0.120  0.00  0.00    +0.047 A 
ENDBRANCH   1  28
ENDBRANCH  14   1
ENDBRANCH  16  14
BRANCH  25  27
ATOM     27  C   UNL     1      11.633   6.501   6.604  0.00  0.00    +0.256 C 
BRANCH  27   9
ATOM      9  O   UNL     1      11.282   6.245   7.942  0.00  0.00    -0.359 OA
BRANCH   9  31
ATOM     31  C   UNL     1       9.900   5.916   8.080  0.00  0.00    +0.280 C 
BRANCH  31  34
ATOM     11  O   UNL     1       9.266   4.583  10.012  0.00  0.00    -0.248 OA
ATOM     34  C   UNL     1       9.755   4.659   8.894  0.00  0.00    +0.331 C 
BRANCH  34  10
ATOM     10  O   UNL     1      10.249   3.598   8.209  0.00  0.00    -0.479 OA
ATOM     36  H   UNL     1      10.368   2.812   8.785  0.00  0.00    +0.295 HD
ENDBRANCH  34  10
ENDBRANCH  31  34
ENDBRANCH   9  31
ENDBRANCH  27   9
ENDBRANCH  25  27
TORSDOF 11
ENDMDL
MODEL 6
REMARK VINA RESULT:      -5.1      2.707      5.652
REMARK  Name = 7114655
REMARK  12 active torsions:
REMARK  status: ('A' for Active; 'I' for Inactive)
REMARK    1  A    between atoms: S_1  and  N_14
REMARK    2  A    between atoms: S_1  and  C_28
REMARK    3  A    between atoms: O_4  and  C_26
REMARK    4  A    between atoms: O_4  and  C_30
REMARK    5  A    between atoms: O_9  and  C_27
REMARK    6  A    between atoms: O_9  and  C_31
REMARK    7  A    between atoms: O_10  and  C_34
REMARK    8  A    between atoms: N_14  and  C_16
REMARK    9  A    between atoms: C_15  and  C_21
REMARK   10  A    between atoms: C_20  and  C_26
REMARK   11  A    between atoms: C_25  and  C_27
REMARK   12  A    between atoms: C_31  and  C_34
REMARK                            x       y       z     vdW  Elec       q    Type
REMARK                         _______ _______ _______ _____ _____    ______ ____
ROOT
ATOM      5  O   UNL     1      19.025   7.376  21.940  0.00  0.00    -0.273 OA
ATOM     12  N   UNL     1      17.097   8.309  21.024  0.00  0.00    -0.288 N 
ATOM     15  C   UNL     1      16.324   9.494  20.616  0.00  0.00    +0.164 C 
ATOM     16  C   UNL     1      14.623   7.926  19.535  0.00  0.00    +0.080 C 
ATOM     17  C   UNL     1      15.411   9.231  19.416  0.00  0.00    +0.052 C 
ATOM     18  C   UNL     1      15.559   6.761  19.844  0.00  0.00    +0.039 C 
ATOM     19  C   UNL     1      16.363   7.041  21.107  0.00  0.00    +0.110 C 
ATOM     25  C   UNL     1      18.423   8.348  21.473  0.00  0.00    +0.242 C 
ENDROOT
BRANCH  15  21
ATOM      3  O   UNL     1      15.112   9.125  22.624  0.00  0.00    -0.274 OA
ATOM     13  N   UNL     1      15.404  11.320  21.952  0.00  0.00    -0.286 N 
ATOM     20  C   UNL     1      14.554  11.922  22.971  0.00  0.00    +0.185 C 
ATOM     21  C   UNL     1      15.554   9.948  21.822  0.00  0.00    +0.237 C 
ATOM     22  C   UNL     1      15.913  12.330  21.026  0.00  0.00    +0.109 C 
ATOM     23  C   UNL     1      14.312  13.345  22.482  0.00  0.00    +0.035 C 
ATOM     24  C   UNL     1      15.567  13.662  21.675  0.00  0.00    +0.021 C 
BRANCH  20  26
ATOM      6  O   UNL     1      16.500  12.219  24.359  0.00  0.00    -0.249 OA
ATOM     26  C   UNL     1      15.324  11.898  24.258  0.00  0.00    +0.328 C 
BRANCH  26   4
ATOM      4  O   UNL     1      14.511  11.471  25.266  0.00  0.00    -0.467 OA
ATOM     30  C   UNL     1      15.090  11.499  26.575  0.00  0.00    +0.280 C 
ENDBRANCH  26   4
ENDBRANCH  20  26
ENDBRANCH  15  21
BRANCH  16  14
ATOM     14  N   UNL     1      13.914   7.663  18.258  0.00  0.00    -0.186 NA
ATOM     35  H   UNL     1      14.132   6.780  17.781  0.00  0.00    +0.148 HD
BRANCH  14   1
ATOM      1  S   UNL     1      12.375   8.375  18.040  0.00  0.00    +0.065 S 
ATOM      7  O   UNL     1      11.468   7.398  17.471  0.00  0.00    -0.153 OA
ATOM      8  O   UNL     1      12.545   9.685  17.442  0.00  0.00    -0.153 OA
BRANCH   1  28
ATOM      2  S   UNL     1      12.096  10.302  20.261  0.00  0.00    -0.077 S 
ATOM     28  C   UNL     1      11.723   8.738  19.670  0.00  0.00    +0.142 A 
ATOM     29  C   UNL     1      10.972   8.012  20.568  0.00  0.00    +0.036 A 
ATOM     32  C   UNL     1      10.699   8.750  21.757  0.00  0.00    +0.010 A 
ATOM     33  C   UNL     1      11.250  10.011  21.721  0.00  0.00    +0.047 A 
ENDBRANCH   1  28
ENDBRANCH  14   1
ENDBRANCH  16  14
BRANCH  25  27
ATOM     27  C   UNL     1      19.141   9.670  21.358  0.00  0.00    +0.256 C 
BRANCH  27   9
ATOM      9  O   UNL     1      19.155  10.232  22.648  0.00  0.00    -0.359 OA
BRANCH   9  31
ATOM     31  C   UNL     1      20.477  10.325  23.178  0.00  0.00    +0.280 C 
BRANCH  31  34
ATOM     11  O   UNL     1      20.403   9.816  25.553  0.00  0.00    -0.248 OA
ATOM     34  C   UNL     1      20.596   9.457  24.401  0.00  0.00    +0.331 C 
BRANCH  34  10
ATOM     10  O   UNL     1      20.952   8.197  24.048  0.00  0.00    -0.479 OA
ATOM     36  H   UNL     1      21.710   7.868  24.579  0.00  0.00    +0.295 HD
ENDBRANCH  34  10
ENDBRANCH  31  34
ENDBRANCH   9  31
ENDBRANCH  27   9
ENDBRANCH  25  27
TORSDOF 11
ENDMDL
MODEL 7
REMARK VINA RESULT:      -5.0     28.655     30.697
REMARK  Name = 7114655
REMARK  12 active torsions:
REMARK  status: ('A' for Active; 'I' for Inactive)
REMARK    1  A    between atoms: S_1  and  N_14
REMARK    2  A    between atoms: S_1  and  C_28
REMARK    3  A    between atoms: O_4  and  C_26
REMARK    4  A    between atoms: O_4  and  C_30
REMARK    5  A    between atoms: O_9  and  C_27
REMARK    6  A    between atoms: O_9  and  C_31
REMARK    7  A    between atoms: O_10  and  C_34
REMARK    8  A    between atoms: N_14  and  C_16
REMARK    9  A    between atoms: C_15  and  C_21
REMARK   10  A    between atoms: C_20  and  C_26
REMARK   11  A    between atoms: C_25  and  C_27
REMARK   12  A    between atoms: C_31  and  C_34
REMARK                            x       y       z     vdW  Elec       q    Type
REMARK                         _______ _______ _______ _____ _____    ______ ____
ROOT
ATOM      5  O   UNL     1      -8.589  -9.600  12.029  0.00  0.00    -0.273 OA
ATOM     12  N   UNL     1      -7.150 -10.102  13.790  0.00  0.00    -0.288 N 
ATOM     15  C   UNL     1      -5.784 -10.206  14.331  0.00  0.00    +0.164 C 
ATOM     16  C   UNL     1      -6.802 -10.642  16.631  0.00  0.00    +0.080 C 
ATOM     17  C   UNL     1      -5.710  -9.928  15.834  0.00  0.00    +0.052 C 
ATOM     18  C   UNL     1      -8.176 -10.357  16.034  0.00  0.00    +0.039 C 
ATOM     19  C   UNL     1      -8.215 -10.751  14.563  0.00  0.00    +0.110 C 
ATOM     25  C   UNL     1      -7.463  -9.565  12.536  0.00  0.00    +0.242 C 
ENDROOT
BRANCH  15  21
ATOM      3  O   UNL     1      -5.973 -12.570  14.216  0.00  0.00    -0.274 OA
ATOM     13  N   UNL     1      -4.028 -11.623  13.394  0.00  0.00    -0.286 N 
ATOM     20  C   UNL     1      -3.326 -12.875  13.142  0.00  0.00    +0.185 C 
ATOM     21  C   UNL     1      -5.282 -11.578  13.985  0.00  0.00    +0.237 C 
ATOM     22  C   UNL     1      -3.176 -10.473  13.101  0.00  0.00    +0.109 C 
ATOM     23  C   UNL     1      -1.871 -12.468  12.939  0.00  0.00    +0.035 C 
ATOM     24  C   UNL     1      -1.973 -11.054  12.375  0.00  0.00    +0.021 C 
BRANCH  20  26
ATOM      6  O   UNL     1      -4.194 -12.826  10.896  0.00  0.00    -0.249 OA
ATOM     26  C   UNL     1      -3.917 -13.469  11.899  0.00  0.00    +0.328 C 
BRANCH  26   4
ATOM      4  O   UNL     1      -4.087 -14.811  12.073  0.00  0.00    -0.467 OA
ATOM     30  C   UNL     1      -5.434 -15.281  11.949  0.00  0.00    +0.280 C 
ENDBRANCH  26   4
ENDBRANCH  20  26
ENDBRANCH  15  21
BRANCH  16  14
ATOM     14  N   UNL     1      -6.767 -10.173  18.038  0.00  0.00    -0.186 NA
ATOM     35  H   UNL     1      -7.170  -9.246  18.226  0.00  0.00    +0.148 HD
BRANCH  14   1
ATOM      1  S   UNL     1      -6.774 -11.355  19.274  0.00  0.00    +0.065 S 
ATOM      7  O   UNL     1      -6.211 -10.790  20.484  0.00  0.00    -0.153 OA
ATOM      8  O   UNL     1      -6.287 -12.606  18.726  0.00  0.00    -0.153 OA
BRANCH   1  28
ATOM      2  S   UNL     1      -8.822 -13.344  20.032  0.00  0.00    -0.077 S 
ATOM     28  C   UNL     1      -8.489 -11.705  19.662  0.00  0.00    +0.142 A 
ATOM     29  C   UNL     1      -9.620 -10.920  19.729  0.00  0.00    +0.036 A 
ATOM     32  C   UNL     1     -10.774 -11.675  20.087  0.00  0.00    +0.010 A 
ATOM     33  C   UNL     1     -10.482 -13.006  20.282  0.00  0.00    +0.047 A 
ENDBRANCH   1  28
ENDBRANCH  14   1
ENDBRANCH  16  14
BRANCH  25  27
ATOM     27  C   UNL     1      -6.340  -8.897  11.781  0.00  0.00    +0.256 C 
BRANCH  27   9
ATOM      9  O   UNL     1      -5.851  -9.848  10.866  0.00  0.00    -0.359 OA
BRANCH   9  31
ATOM     31  C   UNL     1      -6.177  -9.511   9.518  0.00  0.00    +0.280 C 
BRANCH  31  34
ATOM     11  O   UNL     1      -4.658 -10.632   7.989  0.00  0.00    -0.248 OA
ATOM     34  C   UNL     1      -4.957  -9.649   8.650  0.00  0.00    +0.331 C 
BRANCH  34  10
ATOM     10  O   UNL     1      -4.217  -8.514   8.698  0.00  0.00    -0.479 OA
ATOM     36  H   UNL     1      -4.740  -7.724   8.441  0.00  0.00    +0.295 HD
ENDBRANCH  34  10
ENDBRANCH  31  34
ENDBRANCH   9  31
ENDBRANCH  27   9
ENDBRANCH  25  27
TORSDOF 11
ENDMDL
MODEL 8
REMARK VINA RESULT:      -5.0     27.520     30.350
REMARK  Name = 7114655
REMARK  12 active torsions:
REMARK  status: ('A' for Active; 'I' for Inactive)
REMARK    1  A    between atoms: S_1  and  N_14
REMARK    2  A    between atoms: S_1  and  C_28
REMARK    3  A    between atoms: O_4  and  C_26
REMARK    4  A    between atoms: O_4  and  C_30
REMARK    5  A    between atoms: O_9  and  C_27
REMARK    6  A    between atoms: O_9  and  C_31
REMARK    7  A    between atoms: O_10  and  C_34
REMARK    8  A    between atoms: N_14  and  C_16
REMARK    9  A    between atoms: C_15  and  C_21
REMARK   10  A    between atoms: C_20  and  C_26
REMARK   11  A    between atoms: C_25  and  C_27
REMARK   12  A    between atoms: C_31  and  C_34
REMARK                            x       y       z     vdW  Elec       q    Type
REMARK                         _______ _______ _______ _____ _____    ______ ____
ROOT
ATOM      5  O   UNL     1      -4.180 -10.651  17.240  0.00  0.00    -0.273 OA
ATOM     12  N   UNL     1      -6.098 -10.865  15.935  0.00  0.00    -0.288 N 
ATOM     15  C   UNL     1      -6.802 -11.471  14.793  0.00  0.00    +0.164 C 
ATOM     16  C   UNL     1      -8.952 -10.374  15.624  0.00  0.00    +0.080 C 
ATOM     17  C   UNL     1      -8.306 -11.625  15.026  0.00  0.00    +0.052 C 
ATOM     18  C   UNL     1      -8.194  -9.920  16.867  0.00  0.00    +0.039 C 
ATOM     19  C   UNL     1      -6.724  -9.685  16.543  0.00  0.00    +0.110 C 
ATOM     25  C   UNL     1      -4.822 -11.246  16.370  0.00  0.00    +0.242 C 
ENDROOT
BRANCH  15  21
ATOM      3  O   UNL     1      -6.581  -9.392  13.667  0.00  0.00    -0.274 OA
ATOM     13  N   UNL     1      -6.127 -11.308  12.450  0.00  0.00    -0.286 N 
ATOM     20  C   UNL     1      -5.955 -10.651  11.161  0.00  0.00    +0.185 C 
ATOM     21  C   UNL     1      -6.500 -10.619  13.594  0.00  0.00    +0.237 C 
ATOM     22  C   UNL     1      -6.018 -12.759  12.321  0.00  0.00    +0.109 C 
ATOM     23  C   UNL     1      -6.012 -11.781  10.141  0.00  0.00    +0.035 C 
ATOM     24  C   UNL     1      -5.484 -12.986  10.915  0.00  0.00    +0.021 C 
BRANCH  20  26
ATOM      6  O   UNL     1      -3.621 -10.456  11.719  0.00  0.00    -0.249 OA
ATOM     26  C   UNL     1      -4.612  -9.984  11.181  0.00  0.00    +0.328 C 
BRANCH  26   4
ATOM      4  O   UNL     1      -4.684  -8.797  10.515  0.00  0.00    -0.467 OA
ATOM     30  C   UNL     1      -4.094  -8.787   9.210  0.00  0.00    +0.280 C 
ENDBRANCH  26   4
ENDBRANCH  20  26
ENDBRANCH  15  21
BRANCH  16  14
ATOM     14  N   UNL     1     -10.360 -10.674  15.985  0.00  0.00    -0.186 NA
ATOM     35  H   UNL     1     -10.547 -10.889  16.972  0.00  0.00    +0.148 HD
BRANCH  14   1
ATOM      1  S   UNL     1     -11.594  -9.977  15.030  0.00  0.00    +0.065 S 
ATOM      7  O   UNL     1     -12.886 -10.442  15.497  0.00  0.00    -0.153 OA
ATOM      8  O   UNL     1     -11.217 -10.074  13.634  0.00  0.00    -0.153 OA
BRANCH   1  28
ATOM      2  S   UNL     1     -12.148  -7.244  14.057  0.00  0.00    -0.077 S 
ATOM     28  C   UNL     1     -11.578  -8.213  15.349  0.00  0.00    +0.142 A 
ATOM     29  C   UNL     1     -11.198  -7.455  16.435  0.00  0.00    +0.036 A 
ATOM     32  C   UNL     1     -11.376  -6.060  16.202  0.00  0.00    +0.010 A 
ATOM     33  C   UNL     1     -11.886  -5.806  14.949  0.00  0.00    +0.047 A 
ENDBRANCH   1  28
ENDBRANCH  14   1
ENDBRANCH  16  14
BRANCH  25  27
ATOM     27  C   UNL     1      -4.222 -12.471  15.725  0.00  0.00    +0.256 C 
BRANCH  27   9
ATOM      9  O   UNL     1      -3.500 -12.022  14.604  0.00  0.00    -0.359 OA
BRANCH   9  31
ATOM     31  C   UNL     1      -2.092 -12.176  14.777  0.00  0.00    +0.280 C 
BRANCH  31  34
ATOM     11  O   UNL     1      -1.295  -9.892  14.543  0.00  0.00    -0.248 OA
ATOM     34  C   UNL     1      -1.491 -10.877  15.239  0.00  0.00    +0.331 C 
BRANCH  34  10
ATOM     10  O   UNL     1      -1.189 -10.945  16.560  0.00  0.00    -0.479 OA
ATOM     36  H   UNL     1      -0.316 -10.541  16.758  0.00  0.00    +0.295 HD
ENDBRANCH  34  10
ENDBRANCH  31  34
ENDBRANCH   9  31
ENDBRANCH  27   9
ENDBRANCH  25  27
TORSDOF 11
ENDMDL
MODEL 9
REMARK VINA RESULT:      -4.9     15.425     19.144
REMARK  Name = 7114655
REMARK  12 active torsions:
REMARK  status: ('A' for Active; 'I' for Inactive)
REMARK    1  A    between atoms: S_1  and  N_14
REMARK    2  A    between atoms: S_1  and  C_28
REMARK    3  A    between atoms: O_4  and  C_26
REMARK    4  A    between atoms: O_4  and  C_30
REMARK    5  A    between atoms: O_9  and  C_27
REMARK    6  A    between atoms: O_9  and  C_31
REMARK    7  A    between atoms: O_10  and  C_34
REMARK    8  A    between atoms: N_14  and  C_16
REMARK    9  A    between atoms: C_15  and  C_21
REMARK   10  A    between atoms: C_20  and  C_26
REMARK   11  A    between atoms: C_25  and  C_27
REMARK   12  A    between atoms: C_31  and  C_34
REMARK                            x       y       z     vdW  Elec       q    Type
REMARK                         _______ _______ _______ _____ _____    ______ ____
ROOT
ATOM      5  O   UNL     1       7.881   8.409   3.874  0.00  0.00    -0.273 OA
ATOM     12  N   UNL     1       9.773   7.123   3.435  0.00  0.00    -0.288 N 
ATOM     15  C   UNL     1      11.025   6.499   3.894  0.00  0.00    +0.164 C 
ATOM     16  C   UNL     1      11.168   5.295   1.647  0.00  0.00    +0.080 C 
ATOM     17  C   UNL     1      11.350   5.195   3.162  0.00  0.00    +0.052 C 
ATOM     18  C   UNL     1       9.787   5.846   1.308  0.00  0.00    +0.039 C 
ATOM     19  C   UNL     1       9.566   7.193   1.984  0.00  0.00    +0.110 C 
ATOM     25  C   UNL     1       8.860   7.773   4.275  0.00  0.00    +0.242 C 
ENDROOT
BRANCH  15  21
ATOM      3  O   UNL     1      12.206   8.163   2.680  0.00  0.00    -0.274 OA
ATOM     13  N   UNL     1      12.946   7.690   4.822  0.00  0.00    -0.286 N 
ATOM     20  C   UNL     1      14.140   8.523   4.774  0.00  0.00    +0.185 C 
ATOM     21  C   UNL     1      12.108   7.525   3.729  0.00  0.00    +0.237 C 
ATOM     22  C   UNL     1      12.865   6.955   6.082  0.00  0.00    +0.109 C 
ATOM     23  C   UNL     1      14.977   8.067   5.963  0.00  0.00    +0.035 C 
ATOM     24  C   UNL     1      13.935   7.579   6.965  0.00  0.00    +0.021 C 
BRANCH  20  26
ATOM      6  O   UNL     1      12.812  10.311   5.689  0.00  0.00    -0.249 OA
ATOM     26  C   UNL     1      13.691   9.946   4.921  0.00  0.00    +0.328 C 
BRANCH  26   4
ATOM      4  O   UNL     1      14.411  10.739   4.077  0.00  0.00    -0.467 OA
ATOM     30  C   UNL     1      15.122  10.050   3.043  0.00  0.00    +0.280 C 
ENDBRANCH  26   4
ENDBRANCH  20  26
ENDBRANCH  15  21
BRANCH  16  14
ATOM     14  N   UNL     1      11.324   3.948   1.045  0.00  0.00    -0.186 NA
ATOM     35  H   UNL     1      10.501   3.556   0.570  0.00  0.00    +0.148 HD
BRANCH  14   1
ATOM      1  S   UNL     1      12.887   3.478   0.536  0.00  0.00    +0.065 S 
ATOM      7  O   UNL     1      12.802   2.851  -0.768  0.00  0.00    -0.153 OA
ATOM      8  O   UNL     1      13.564   2.830   1.643  0.00  0.00    -0.153 OA
BRANCH   1  28
ATOM      2  S   UNL     1      14.818   5.439   1.609  0.00  0.00    -0.077 S 
ATOM     28  C   UNL     1      13.836   4.978   0.284  0.00  0.00    +0.142 A 
ATOM     29  C   UNL     1      13.945   5.857  -0.772  0.00  0.00    +0.036 A 
ATOM     32  C   UNL     1      14.847   6.924  -0.487  0.00  0.00    +0.010 A 
ATOM     33  C   UNL     1      15.393   6.818   0.773  0.00  0.00    +0.047 A 
ENDBRANCH   1  28
ENDBRANCH  14   1
ENDBRANCH  16  14
BRANCH  25  27
ATOM     27  C   UNL     1       9.106   7.664   5.760  0.00  0.00    +0.256 C 
BRANCH  27   9
ATOM      9  O   UNL     1       8.693   6.375   6.142  0.00  0.00    -0.359 OA
BRANCH   9  31
ATOM     31  C   UNL     1       9.411   5.898   7.279  0.00  0.00    +0.280 C 
BRANCH  31  34
ATOM     11  O   UNL     1       9.792   3.880   5.979  0.00  0.00    -0.248 OA
ATOM     34  C   UNL     1       9.861   4.483   7.040  0.00  0.00    +0.331 C 
BRANCH  34  10
ATOM     10  O   UNL     1      10.365   3.952   8.182  0.00  0.00    -0.479 OA
ATOM     36  H   UNL     1      11.216   3.490   8.028  0.00  0.00    +0.295 HD
ENDBRANCH  34  10
ENDBRANCH  31  34
ENDBRANCH   9  31
ENDBRANCH  27   9
ENDBRANCH  25  27
TORSDOF 11
ENDMDL
MODEL 10
REMARK VINA RESULT:      -4.8      5.773     10.326
REMARK  Name = 7114655
REMARK  12 active torsions:
REMARK  status: ('A' for Active; 'I' for Inactive)
REMARK    1  A    between atoms: S_1  and  N_14
REMARK    2  A    between atoms: S_1  and  C_28
REMARK    3  A    between atoms: O_4  and  C_26
REMARK    4  A    between atoms: O_4  and  C_30
REMARK    5  A    between atoms: O_9  and  C_27
REMARK    6  A    between atoms: O_9  and  C_31
REMARK    7  A    between atoms: O_10  and  C_34
REMARK    8  A    between atoms: N_14  and  C_16
REMARK    9  A    between atoms: C_15  and  C_21
REMARK   10  A    between atoms: C_20  and  C_26
REMARK   11  A    between atoms: C_25  and  C_27
REMARK   12  A    between atoms: C_31  and  C_34
REMARK                            x       y       z     vdW  Elec       q    Type
REMARK                         _______ _______ _______ _____ _____    ______ ____
ROOT
ATOM      5  O   UNL     1      18.092   5.661  19.267  0.00  0.00    -0.273 OA
ATOM     12  N   UNL     1      19.853   5.836  20.780  0.00  0.00    -0.288 N 
ATOM     15  C   UNL     1      20.580   6.601  21.808  0.00  0.00    +0.164 C 
ATOM     16  C   UNL     1      22.000   4.525  22.249  0.00  0.00    +0.080 C 
ATOM     17  C   UNL     1      21.251   5.711  22.857  0.00  0.00    +0.052 C 
ATOM     18  C   UNL     1      21.096   3.752  21.294  0.00  0.00    +0.039 C 
ATOM     19  C   UNL     1      20.544   4.672  20.214  0.00  0.00    +0.110 C 
ATOM     25  C   UNL     1      18.633   6.231  20.219  0.00  0.00    +0.242 C 
ENDROOT
BRANCH  15  21
ATOM      3  O   UNL     1      22.023   7.117  19.994  0.00  0.00    -0.274 OA
ATOM     13  N   UNL     1      21.908   8.650  21.724  0.00  0.00    -0.286 N 
ATOM     20  C   UNL     1      22.968   9.526  21.243  0.00  0.00    +0.185 C 
ATOM     21  C   UNL     1      21.571   7.466  21.085  0.00  0.00    +0.237 C 
ATOM     22  C   UNL     1      21.396   9.102  23.015  0.00  0.00    +0.109 C 
ATOM     23  C   UNL     1      23.309  10.411  22.435  0.00  0.00    +0.035 C 
ATOM     24  C   UNL     1      21.996  10.487  23.209  0.00  0.00    +0.021 C 
BRANCH  20  26
ATOM      6  O   UNL     1      21.244  10.706  20.046  0.00  0.00    -0.249 OA
ATOM     26  C   UNL     1      22.402  10.318  20.103  0.00  0.00    +0.328 C 
BRANCH  26   4
ATOM      4  O   UNL     1      23.373  10.528  19.168  0.00  0.00    -0.467 OA
ATOM     30  C   UNL     1      24.321   9.465  19.018  0.00  0.00    +0.280 C 
ENDBRANCH  26   4
ENDBRANCH  20  26
ENDBRANCH  15  21
BRANCH  16  14
ATOM     14  N   UNL     1      22.456   3.624  23.336  0.00  0.00    -0.186 NA
ATOM     35  H   UNL     1      21.727   3.121  23.855  0.00  0.00    +0.148 HD
BRANCH  14   1
ATOM      1  S   UNL     1      24.015   2.935  23.199  0.00  0.00    +0.065 S 
ATOM      7  O   UNL     1      23.914   1.492  23.296  0.00  0.00    -0.153 OA
ATOM      8  O   UNL     1      24.933   3.685  24.034  0.00  0.00    -0.153 OA
BRANCH   1  28
ATOM      2  S   UNL     1      25.427   4.747  21.344  0.00  0.00    -0.077 S 
ATOM     28  C   UNL     1      24.595   3.263  21.535  0.00  0.00    +0.142 A 
ATOM     29  C   UNL     1      24.512   2.560  20.352  0.00  0.00    +0.036 A 
ATOM     32  C   UNL     1      25.140   3.251  19.276  0.00  0.00    +0.010 A 
ATOM     33  C   UNL     1      25.679   4.453  19.676  0.00  0.00    +0.047 A 
ENDBRANCH   1  28
ENDBRANCH  14   1
ENDBRANCH  16  14
BRANCH  25  27
ATOM     27  C   UNL     1      17.952   7.425  20.841  0.00  0.00    +0.256 C 
BRANCH  27   9
ATOM      9  O   UNL     1      16.818   6.935  21.514  0.00  0.00    -0.359 OA
BRANCH   9  31
ATOM     31  C   UNL     1      15.645   7.686  21.203  0.00  0.00    +0.280 C 
BRANCH  31  34
ATOM     11  O   UNL     1      14.873   6.902  19.036  0.00  0.00    -0.248 OA
ATOM     34  C   UNL     1      14.778   6.905  20.254  0.00  0.00    +0.331 C 
BRANCH  34  10
ATOM     10  O   UNL     1      13.857   6.187  20.945  0.00  0.00    -0.479 OA
ATOM     36  H   UNL     1      13.762   6.503  21.869  0.00  0.00    +0.295 HD
ENDBRANCH  34  10
ENDBRANCH  31  34
ENDBRANCH   9  31
ENDBRANCH  27   9
ENDBRANCH  25  27
TORSDOF 11
ENDMDL
