MODEL 1
REMARK VINA RESULT:      -7.4      0.000      0.000
REMARK  Name = 75536709
REMARK  11 active torsions:
REMARK  status: ('A' for Active; 'I' for Inactive)
REMARK    1  A    between atoms: S_1  and  N_8
REMARK    2  A    between atoms: S_1  and  C_16
REMARK    3  A    between atoms: O_3  and  C_10
REMARK    4  A    between atoms: O_6  and  C_23
REMARK    5  A    between atoms: O_6  and  C_28
REMARK    6  A    between atoms: N_7  and  C_9
REMARK    7  A    between atoms: N_7  and  C_14
REMARK    8  A    between atoms: N_8  and  C_13
REMARK    9  A    between atoms: C_11  and  C_13
REMARK   10  A    between atoms: C_14  and  C_15
REMARK   11  A    between atoms: C_26  and  C_27
REMARK                            x       y       z     vdW  Elec       q    Type
REMARK                         _______ _______ _______ _____ _____    ______ ____
ROOT
ATOM      2  O   UNL     1      10.638   8.707  20.089  0.00  0.00    -0.371 OA
ATOM      9  C   UNL     1      12.324   7.165  19.439  0.00  0.00    +0.111 C 
ATOM     10  C   UNL     1      12.231   7.188  20.953  0.00  0.00    +0.164 C 
ATOM     11  C   UNL     1      10.835   7.761  21.153  0.00  0.00    +0.164 C 
ATOM     12  C   UNL     1      11.630   8.468  19.075  0.00  0.00    +0.181 C 
ENDROOT
BRANCH  10   3
ATOM      3  O   UNL     1      12.361   5.902  21.527  0.00  0.00    -0.388 OA
ATOM     30  H   UNL     1      13.255   5.822  21.901  0.00  0.00    +0.210 HD
ENDBRANCH  10   3
BRANCH   9   7
ATOM      7  N   UNL     1      13.687   7.091  18.938  0.00  0.00    -0.305 NA
ATOM     29  H   UNL     1      13.708   7.432  17.977  0.00  0.00    +0.123 HD
BRANCH   7  14
ATOM     14  C   UNL     1      14.589   7.902  19.747  0.00  0.00    +0.116 C 
BRANCH  14  15
ATOM     15  C   UNL     1      15.941   7.256  19.898  0.00  0.00    -0.033 A 
ATOM     17  C   UNL     1      16.784   7.639  20.941  0.00  0.00    +0.008 A 
ATOM     18  C   UNL     1      16.350   6.275  18.995  0.00  0.00    +0.008 A 
ATOM     21  C   UNL     1      18.037   7.041  21.080  0.00  0.00    +0.046 A 
ATOM     22  C   UNL     1      17.601   5.677  19.135  0.00  0.00    +0.046 A 
ATOM     23  C   UNL     1      18.445   6.060  20.177  0.00  0.00    +0.120 A 
BRANCH  23   6
ATOM      6  O   UNL     1      19.666   5.475  20.314  0.00  0.00    -0.495 OA
ATOM     28  C   UNL     1      20.709   6.272  20.874  0.00  0.00    +0.277 C 
ENDBRANCH  23   6
ENDBRANCH  14  15
ENDBRANCH   7  14
ENDBRANCH   9   7
BRANCH  11  13
ATOM     13  C   UNL     1      10.656   8.453  22.493  0.00  0.00    +0.140 C 
BRANCH  13   8
ATOM      8  N   UNL     1      10.510   9.907  22.285  0.00  0.00    -0.187 NA
ATOM     31  H   UNL     1       9.657  10.203  21.795  0.00  0.00    +0.148 HD
BRANCH   8   1
ATOM      1  S   UNL     1      11.891  10.894  22.176  0.00  0.00    +0.058 S 
ATOM      4  O   UNL     1      11.864  11.621  20.920  0.00  0.00    -0.153 OA
ATOM      5  O   UNL     1      13.058  10.114  22.541  0.00  0.00    -0.153 OA
BRANCH   1  16
ATOM     16  C   UNL     1      11.612  12.052  23.482  0.00  0.00    +0.105 A 
ATOM     19  C   UNL     1      10.623  13.027  23.348  0.00  0.00    +0.029 A 
ATOM     20  C   UNL     1      12.381  11.992  24.643  0.00  0.00    +0.029 A 
ATOM     24  C   UNL     1      10.405  13.943  24.378  0.00  0.00    +0.005 A 
ATOM     25  C   UNL     1      12.162  12.907  25.672  0.00  0.00    +0.005 A 
ATOM     26  C   UNL     1      11.173  13.883  25.540  0.00  0.00    -0.050 A 
ATOM     27  C   UNL     1      10.940  14.862  26.640  0.00  0.00    +0.044 C 
ENDBRANCH   1  16
ENDBRANCH   8   1
ENDBRANCH  13   8
ENDBRANCH  11  13
TORSDOF 9
ENDMDL
MODEL 2
REMARK VINA RESULT:      -7.2      2.852      5.162
REMARK  Name = 75536709
REMARK  11 active torsions:
REMARK  status: ('A' for Active; 'I' for Inactive)
REMARK    1  A    between atoms: S_1  and  N_8
REMARK    2  A    between atoms: S_1  and  C_16
REMARK    3  A    between atoms: O_3  and  C_10
REMARK    4  A    between atoms: O_6  and  C_23
REMARK    5  A    between atoms: O_6  and  C_28
REMARK    6  A    between atoms: N_7  and  C_9
REMARK    7  A    between atoms: N_7  and  C_14
REMARK    8  A    between atoms: N_8  and  C_13
REMARK    9  A    between atoms: C_11  and  C_13
REMARK   10  A    between atoms: C_14  and  C_15
REMARK   11  A    between atoms: C_26  and  C_27
REMARK                            x       y       z     vdW  Elec       q    Type
REMARK                         _______ _______ _______ _____ _____    ______ ____
ROOT
ATOM      2  O   UNL     1      16.597   8.572  21.796  0.00  0.00    -0.371 OA
ATOM      9  C   UNL     1      17.722   7.106  20.304  0.00  0.00    +0.111 C 
ATOM     10  C   UNL     1      16.316   6.588  20.540  0.00  0.00    +0.164 C 
ATOM     11  C   UNL     1      15.618   7.849  21.032  0.00  0.00    +0.164 C 
ATOM     12  C   UNL     1      17.899   8.046  21.486  0.00  0.00    +0.181 C 
ENDROOT
BRANCH  10   3
ATOM      3  O   UNL     1      15.717   6.078  19.365  0.00  0.00    -0.388 OA
ATOM     30  H   UNL     1      16.232   5.308  19.069  0.00  0.00    +0.210 HD
ENDBRANCH  10   3
BRANCH   9   7
ATOM      7  N   UNL     1      18.729   6.059  20.258  0.00  0.00    -0.305 NA
ATOM     29  H   UNL     1      18.797   5.704  19.304  0.00  0.00    +0.123 HD
BRANCH   7  14
ATOM     14  C   UNL     1      20.034   6.566  20.666  0.00  0.00    +0.116 C 
BRANCH  14  15
ATOM     15  C   UNL     1      20.875   5.496  21.311  0.00  0.00    -0.033 A 
ATOM     17  C   UNL     1      21.035   4.262  20.683  0.00  0.00    +0.008 A 
ATOM     18  C   UNL     1      21.494   5.741  22.536  0.00  0.00    +0.008 A 
ATOM     21  C   UNL     1      21.815   3.271  21.281  0.00  0.00    +0.046 A 
ATOM     22  C   UNL     1      22.274   4.751  23.134  0.00  0.00    +0.046 A 
ATOM     23  C   UNL     1      22.434   3.516  22.506  0.00  0.00    +0.120 A 
BRANCH  23   6
ATOM      6  O   UNL     1      23.195   2.551  23.089  0.00  0.00    -0.495 OA
ATOM     28  C   UNL     1      23.979   1.730  22.223  0.00  0.00    +0.277 C 
ENDBRANCH  23   6
ENDBRANCH  14  15
ENDBRANCH   7  14
ENDBRANCH   9   7
BRANCH  11  13
ATOM     13  C   UNL     1      14.401   7.563  21.897  0.00  0.00    +0.140 C 
BRANCH  13   8
ATOM      8  N   UNL     1      13.613   6.470  21.295  0.00  0.00    -0.187 NA
ATOM     31  H   UNL     1      14.154   5.669  20.946  0.00  0.00    +0.148 HD
BRANCH   8   1
ATOM      1  S   UNL     1      12.105   6.801  20.581  0.00  0.00    +0.058 S 
ATOM      4  O   UNL     1      11.096   5.940  21.168  0.00  0.00    -0.153 OA
ATOM      5  O   UNL     1      12.268   6.855  19.140  0.00  0.00    -0.153 OA
BRANCH   1  16
ATOM     16  C   UNL     1      11.799   8.453  21.130  0.00  0.00    +0.105 A 
ATOM     19  C   UNL     1      12.273   9.533  20.384  0.00  0.00    +0.029 A 
ATOM     20  C   UNL     1      11.087   8.677  22.307  0.00  0.00    +0.029 A 
ATOM     24  C   UNL     1      12.033  10.837  20.819  0.00  0.00    +0.005 A 
ATOM     25  C   UNL     1      10.848   9.980  22.741  0.00  0.00    +0.005 A 
ATOM     26  C   UNL     1      11.321  11.061  21.996  0.00  0.00    -0.050 A 
ATOM     27  C   UNL     1      11.066  12.455  22.461  0.00  0.00    +0.044 C 
ENDBRANCH   1  16
ENDBRANCH   8   1
ENDBRANCH  13   8
ENDBRANCH  11  13
TORSDOF 9
ENDMDL
MODEL 3
REMARK VINA RESULT:      -7.1     25.707     28.660
REMARK  Name = 75536709
REMARK  11 active torsions:
REMARK  status: ('A' for Active; 'I' for Inactive)
REMARK    1  A    between atoms: S_1  and  N_8
REMARK    2  A    between atoms: S_1  and  C_16
REMARK    3  A    between atoms: O_3  and  C_10
REMARK    4  A    between atoms: O_6  and  C_23
REMARK    5  A    between atoms: O_6  and  C_28
REMARK    6  A    between atoms: N_7  and  C_9
REMARK    7  A    between atoms: N_7  and  C_14
REMARK    8  A    between atoms: N_8  and  C_13
REMARK    9  A    between atoms: C_11  and  C_13
REMARK   10  A    between atoms: C_14  and  C_15
REMARK   11  A    between atoms: C_26  and  C_27
REMARK                            x       y       z     vdW  Elec       q    Type
REMARK                         _______ _______ _______ _____ _____    ______ ____
ROOT
ATOM      2  O   UNL     1     -16.165   5.183  22.135  0.00  0.00    -0.371 OA
ATOM      9  C   UNL     1     -13.809   5.099  21.844  0.00  0.00    +0.111 C 
ATOM     10  C   UNL     1     -14.125   5.103  23.328  0.00  0.00    +0.164 C 
ATOM     11  C   UNL     1     -15.572   4.630  23.322  0.00  0.00    +0.164 C 
ATOM     12  C   UNL     1     -15.112   5.619  21.258  0.00  0.00    +0.181 C 
ENDROOT
BRANCH  10   3
ATOM      3  O   UNL     1     -13.289   4.233  24.066  0.00  0.00    -0.388 OA
ATOM     30  H   UNL     1     -12.906   4.733  24.808  0.00  0.00    +0.210 HD
ENDBRANCH  10   3
BRANCH   9   7
ATOM      7  N   UNL     1     -12.662   5.918  21.489  0.00  0.00    -0.305 NA
ATOM     29  H   UNL     1     -12.204   5.513  20.673  0.00  0.00    +0.123 HD
BRANCH   7  14
ATOM     14  C   UNL     1     -13.066   7.283  21.176  0.00  0.00    +0.116 C 
BRANCH  14  15
ATOM     15  C   UNL     1     -12.168   7.912  20.144  0.00  0.00    -0.033 A 
ATOM     17  C   UNL     1     -11.915   7.250  18.943  0.00  0.00    +0.008 A 
ATOM     18  C   UNL     1     -11.588   9.156  20.391  0.00  0.00    +0.008 A 
ATOM     21  C   UNL     1     -11.083   7.834  17.987  0.00  0.00    +0.046 A 
ATOM     22  C   UNL     1     -10.756   9.739  19.435  0.00  0.00    +0.046 A 
ATOM     23  C   UNL     1     -10.503   9.078  18.234  0.00  0.00    +0.120 A 
BRANCH  23   6
ATOM      6  O   UNL     1      -9.692   9.647  17.302  0.00  0.00    -0.495 OA
ATOM     28  C   UNL     1      -9.972  10.998  16.934  0.00  0.00    +0.277 C 
ENDBRANCH  23   6
ENDBRANCH  14  15
ENDBRANCH   7  14
ENDBRANCH   9   7
BRANCH  11  13
ATOM     13  C   UNL     1     -16.356   5.078  24.544  0.00  0.00    +0.140 C 
BRANCH  13   8
ATOM      8  N   UNL     1     -15.969   4.256  25.708  0.00  0.00    -0.187 NA
ATOM     31  H   UNL     1     -15.011   4.394  26.052  0.00  0.00    +0.148 HD
BRANCH   8   1
ATOM      1  S   UNL     1     -16.717   2.751  25.973  0.00  0.00    +0.058 S 
ATOM      4  O   UNL     1     -16.127   1.760  25.093  0.00  0.00    -0.153 OA
ATOM      5  O   UNL     1     -18.155   2.938  26.001  0.00  0.00    -0.153 OA
BRANCH   1  16
ATOM     16  C   UNL     1     -16.211   2.382  27.626  0.00  0.00    +0.105 A 
ATOM     19  C   UNL     1     -15.559   3.353  28.388  0.00  0.00    +0.029 A 
ATOM     20  C   UNL     1     -16.461   1.122  28.168  0.00  0.00    +0.029 A 
ATOM     24  C   UNL     1     -15.158   3.061  29.692  0.00  0.00    +0.005 A 
ATOM     25  C   UNL     1     -16.060   0.831  29.471  0.00  0.00    +0.005 A 
ATOM     26  C   UNL     1     -15.408   1.801  30.233  0.00  0.00    -0.050 A 
ATOM     27  C   UNL     1     -14.978   1.489  31.627  0.00  0.00    +0.044 C 
ENDBRANCH   1  16
ENDBRANCH   8   1
ENDBRANCH  13   8
ENDBRANCH  11  13
TORSDOF 9
ENDMDL
MODEL 4
REMARK VINA RESULT:      -7.0     26.788     29.601
REMARK  Name = 75536709
REMARK  11 active torsions:
REMARK  status: ('A' for Active; 'I' for Inactive)
REMARK    1  A    between atoms: S_1  and  N_8
REMARK    2  A    between atoms: S_1  and  C_16
REMARK    3  A    between atoms: O_3  and  C_10
REMARK    4  A    between atoms: O_6  and  C_23
REMARK    5  A    between atoms: O_6  and  C_28
REMARK    6  A    between atoms: N_7  and  C_9
REMARK    7  A    between atoms: N_7  and  C_14
REMARK    8  A    between atoms: N_8  and  C_13
REMARK    9  A    between atoms: C_11  and  C_13
REMARK   10  A    between atoms: C_14  and  C_15
REMARK   11  A    between atoms: C_26  and  C_27
REMARK                            x       y       z     vdW  Elec       q    Type
REMARK                         _______ _______ _______ _____ _____    ______ ____
ROOT
ATOM      2  O   UNL     1      -6.079 -11.554  18.341  0.00  0.00    -0.371 OA
ATOM      9  C   UNL     1      -7.743 -10.102  17.467  0.00  0.00    +0.111 C 
ATOM     10  C   UNL     1      -6.405  -9.752  16.844  0.00  0.00    +0.164 C 
ATOM     11  C   UNL     1      -5.628 -11.040  17.077  0.00  0.00    +0.164 C 
ATOM     12  C   UNL     1      -7.309 -10.894  18.689  0.00  0.00    +0.181 C 
ENDROOT
BRANCH  10   3
ATOM      3  O   UNL     1      -6.508  -9.439  15.469  0.00  0.00    -0.388 OA
ATOM     30  H   UNL     1      -7.008  -8.609  15.380  0.00  0.00    +0.210 HD
ENDBRANCH  10   3
BRANCH   9   7
ATOM      7  N   UNL     1      -8.553  -8.942  17.802  0.00  0.00    -0.305 NA
ATOM     29  H   UNL     1      -8.363  -8.198  17.130  0.00  0.00    +0.123 HD
BRANCH   7  14
ATOM     14  C   UNL     1      -9.974  -9.263  17.763  0.00  0.00    +0.116 C 
BRANCH  14  15
ATOM     15  C   UNL     1     -10.755  -8.257  16.959  0.00  0.00    -0.033 A 
ATOM     17  C   UNL     1     -12.135  -8.395  16.821  0.00  0.00    +0.008 A 
ATOM     18  C   UNL     1     -10.096  -7.186  16.354  0.00  0.00    +0.008 A 
ATOM     21  C   UNL     1     -12.859  -7.462  16.076  0.00  0.00    +0.046 A 
ATOM     22  C   UNL     1     -10.819  -6.254  15.611  0.00  0.00    +0.046 A 
ATOM     23  C   UNL     1     -12.200  -6.392  15.471  0.00  0.00    +0.120 A 
BRANCH  23   6
ATOM      6  O   UNL     1     -12.905  -5.482  14.746  0.00  0.00    -0.495 OA
ATOM     28  C   UNL     1     -12.326  -5.038  13.520  0.00  0.00    +0.277 C 
ENDBRANCH  23   6
ENDBRANCH  14  15
ENDBRANCH   7  14
ENDBRANCH   9   7
BRANCH  11  13
ATOM     13  C   UNL     1      -4.123 -10.835  17.115  0.00  0.00    +0.140 C 
BRANCH  13   8
ATOM      8  N   UNL     1      -3.664 -10.297  15.819  0.00  0.00    -0.187 NA
ATOM     31  H   UNL     1      -4.294  -9.622  15.368  0.00  0.00    +0.148 HD
BRANCH   8   1
ATOM      1  S   UNL     1      -2.627 -11.217  14.834  0.00  0.00    +0.058 S 
ATOM      4  O   UNL     1      -3.035 -12.609  14.874  0.00  0.00    -0.153 OA
ATOM      5  O   UNL     1      -1.254 -10.852  15.125  0.00  0.00    -0.153 OA
BRANCH   1  16
ATOM     16  C   UNL     1      -3.000 -10.587  13.225  0.00  0.00    +0.105 A 
ATOM     19  C   UNL     1      -4.327 -10.383  12.848  0.00  0.00    +0.029 A 
ATOM     20  C   UNL     1      -1.969 -10.295  12.334  0.00  0.00    +0.029 A 
ATOM     24  C   UNL     1      -4.622  -9.887  11.578  0.00  0.00    +0.005 A 
ATOM     25  C   UNL     1      -2.264  -9.799  11.064  0.00  0.00    +0.005 A 
ATOM     26  C   UNL     1      -3.591  -9.595  10.686  0.00  0.00    -0.050 A 
ATOM     27  C   UNL     1      -3.907  -9.066   9.328  0.00  0.00    +0.044 C 
ENDBRANCH   1  16
ENDBRANCH   8   1
ENDBRANCH  13   8
ENDBRANCH  11  13
TORSDOF 9
ENDMDL
MODEL 5
REMARK VINA RESULT:      -6.9      3.028      5.631
REMARK  Name = 75536709
REMARK  11 active torsions:
REMARK  status: ('A' for Active; 'I' for Inactive)
REMARK    1  A    between atoms: S_1  and  N_8
REMARK    2  A    between atoms: S_1  and  C_16
REMARK    3  A    between atoms: O_3  and  C_10
REMARK    4  A    between atoms: O_6  and  C_23
REMARK    5  A    between atoms: O_6  and  C_28
REMARK    6  A    between atoms: N_7  and  C_9
REMARK    7  A    between atoms: N_7  and  C_14
REMARK    8  A    between atoms: N_8  and  C_13
REMARK    9  A    between atoms: C_11  and  C_13
REMARK   10  A    between atoms: C_14  and  C_15
REMARK   11  A    between atoms: C_26  and  C_27
REMARK                            x       y       z     vdW  Elec       q    Type
REMARK                         _______ _______ _______ _____ _____    ______ ____
ROOT
ATOM      2  O   UNL     1      16.813   7.641  20.856  0.00  0.00    -0.371 OA
ATOM      9  C   UNL     1      18.416   6.263  19.772  0.00  0.00    +0.111 C 
ATOM     10  C   UNL     1      17.024   5.789  19.401  0.00  0.00    +0.164 C 
ATOM     11  C   UNL     1      16.198   7.030  19.710  0.00  0.00    +0.164 C 
ATOM     12  C   UNL     1      18.131   7.087  21.017  0.00  0.00    +0.181 C 
ENDROOT
BRANCH  10   3
ATOM      3  O   UNL     1      16.920   5.410  18.043  0.00  0.00    -0.388 OA
ATOM     30  H   UNL     1      16.087   4.922  17.923  0.00  0.00    +0.210 HD
ENDBRANCH  10   3
BRANCH   9   7
ATOM      7  N   UNL     1      19.357   5.181  20.013  0.00  0.00    -0.305 NA
ATOM     29  H   UNL     1      19.887   5.005  19.159  0.00  0.00    +0.123 HD
BRANCH   7  14
ATOM     14  C   UNL     1      20.286   5.520  21.084  0.00  0.00    +0.116 C 
BRANCH  14  15
ATOM     15  C   UNL     1      21.601   4.803  20.934  0.00  0.00    -0.033 A 
ATOM     17  C   UNL     1      22.730   5.498  20.502  0.00  0.00    +0.008 A 
ATOM     18  C   UNL     1      21.690   3.442  21.229  0.00  0.00    +0.008 A 
ATOM     21  C   UNL     1      23.948   4.833  20.364  0.00  0.00    +0.046 A 
ATOM     22  C   UNL     1      22.908   2.778  21.091  0.00  0.00    +0.046 A 
ATOM     23  C   UNL     1      24.037   3.472  20.658  0.00  0.00    +0.120 A 
BRANCH  23   6
ATOM      6  O   UNL     1      25.226   2.823  20.525  0.00  0.00    -0.495 OA
ATOM     28  C   UNL     1      26.154   3.356  19.581  0.00  0.00    +0.277 C 
ENDBRANCH  23   6
ENDBRANCH  14  15
ENDBRANCH   7  14
ENDBRANCH   9   7
BRANCH  11  13
ATOM     13  C   UNL     1      14.741   6.723  20.011  0.00  0.00    +0.140 C 
BRANCH  13   8
ATOM      8  N   UNL     1      13.873   7.617  19.219  0.00  0.00    -0.187 NA
ATOM     31  H   UNL     1      14.291   8.514  18.942  0.00  0.00    +0.148 HD
BRANCH   8   1
ATOM      1  S   UNL     1      12.183   7.528  19.384  0.00  0.00    +0.058 S 
ATOM      4  O   UNL     1      11.831   6.301  20.073  0.00  0.00    -0.153 OA
ATOM      5  O   UNL     1      11.567   7.851  18.111  0.00  0.00    -0.153 OA
BRANCH   1  16
ATOM     16  C   UNL     1      11.854   8.879  20.476  0.00  0.00    +0.105 A 
ATOM     19  C   UNL     1      11.043   8.688  21.595  0.00  0.00    +0.029 A 
ATOM     20  C   UNL     1      12.404  10.134  20.218  0.00  0.00    +0.029 A 
ATOM     24  C   UNL     1      10.781   9.755  22.455  0.00  0.00    +0.005 A 
ATOM     25  C   UNL     1      12.143  11.200  21.078  0.00  0.00    +0.005 A 
ATOM     26  C   UNL     1      11.331  11.010  22.197  0.00  0.00    -0.050 A 
ATOM     27  C   UNL     1      11.051  12.150  23.117  0.00  0.00    +0.044 C 
ENDBRANCH   1  16
ENDBRANCH   8   1
ENDBRANCH  13   8
ENDBRANCH  11  13
TORSDOF 9
ENDMDL
MODEL 6
REMARK VINA RESULT:      -6.9      3.917      6.238
REMARK  Name = 75536709
REMARK  11 active torsions:
REMARK  status: ('A' for Active; 'I' for Inactive)
REMARK    1  A    between atoms: S_1  and  N_8
REMARK    2  A    between atoms: S_1  and  C_16
REMARK    3  A    between atoms: O_3  and  C_10
REMARK    4  A    between atoms: O_6  and  C_23
REMARK    5  A    between atoms: O_6  and  C_28
REMARK    6  A    between atoms: N_7  and  C_9
REMARK    7  A    between atoms: N_7  and  C_14
REMARK    8  A    between atoms: N_8  and  C_13
REMARK    9  A    between atoms: C_11  and  C_13
REMARK   10  A    between atoms: C_14  and  C_15
REMARK   11  A    between atoms: C_26  and  C_27
REMARK                            x       y       z     vdW  Elec       q    Type
REMARK                         _______ _______ _______ _____ _____    ______ ____
ROOT
ATOM      2  O   UNL     1      16.833   8.743  21.788  0.00  0.00    -0.371 OA
ATOM      9  C   UNL     1      17.796   7.127  20.338  0.00  0.00    +0.111 C 
ATOM     10  C   UNL     1      16.408   6.667  20.740  0.00  0.00    +0.164 C 
ATOM     11  C   UNL     1      15.778   7.981  21.179  0.00  0.00    +0.164 C 
ATOM     12  C   UNL     1      18.093   8.160  21.412  0.00  0.00    +0.181 C 
ENDROOT
BRANCH  10   3
ATOM      3  O   UNL     1      15.699   6.073  19.670  0.00  0.00    -0.388 OA
ATOM     30  H   UNL     1      15.988   5.148  19.586  0.00  0.00    +0.210 HD
ENDBRANCH  10   3
BRANCH   9   7
ATOM      7  N   UNL     1      18.777   6.056  20.295  0.00  0.00    -0.305 NA
ATOM     29  H   UNL     1      18.823   5.684  19.346  0.00  0.00    +0.123 HD
BRANCH   7  14
ATOM     14  C   UNL     1      20.099   6.538  20.677  0.00  0.00    +0.116 C 
BRANCH  14  15
ATOM     15  C   UNL     1      20.921   5.460  21.334  0.00  0.00    -0.033 A 
ATOM     17  C   UNL     1      21.097   4.232  20.698  0.00  0.00    +0.008 A 
ATOM     18  C   UNL     1      21.507   5.692  22.578  0.00  0.00    +0.008 A 
ATOM     21  C   UNL     1      21.859   3.234  21.306  0.00  0.00    +0.046 A 
ATOM     22  C   UNL     1      22.269   4.695  23.186  0.00  0.00    +0.046 A 
ATOM     23  C   UNL     1      22.445   3.466  22.551  0.00  0.00    +0.120 A 
BRANCH  23   6
ATOM      6  O   UNL     1      23.189   2.493  23.144  0.00  0.00    -0.495 OA
ATOM     28  C   UNL     1      22.856   2.149  24.488  0.00  0.00    +0.277 C 
ENDBRANCH  23   6
ENDBRANCH  14  15
ENDBRANCH   7  14
ENDBRANCH   9   7
BRANCH  11  13
ATOM     13  C   UNL     1      14.639   7.800  22.168  0.00  0.00    +0.140 C 
BRANCH  13   8
ATOM      8  N   UNL     1      13.674   6.817  21.637  0.00  0.00    -0.187 NA
ATOM     31  H   UNL     1      14.083   5.971  21.221  0.00  0.00    +0.148 HD
BRANCH   8   1
ATOM      1  S   UNL     1      12.147   7.331  21.090  0.00  0.00    +0.058 S 
ATOM      4  O   UNL     1      11.602   8.296  22.026  0.00  0.00    -0.153 OA
ATOM      5  O   UNL     1      11.370   6.169  20.704  0.00  0.00    -0.153 OA
BRANCH   1  16
ATOM     16  C   UNL     1      12.566   8.191  19.603  0.00  0.00    +0.105 A 
ATOM     19  C   UNL     1      12.772   7.479  18.422  0.00  0.00    +0.029 A 
ATOM     20  C   UNL     1      12.691   9.579  19.612  0.00  0.00    +0.029 A 
ATOM     24  C   UNL     1      13.105   8.158  17.249  0.00  0.00    +0.005 A 
ATOM     25  C   UNL     1      13.024  10.257  18.440  0.00  0.00    +0.005 A 
ATOM     26  C   UNL     1      13.230   9.546  17.258  0.00  0.00    -0.050 A 
ATOM     27  C   UNL     1      13.587  10.271  16.004  0.00  0.00    +0.044 C 
ENDBRANCH   1  16
ENDBRANCH   8   1
ENDBRANCH  13   8
ENDBRANCH  11  13
TORSDOF 9
ENDMDL
MODEL 7
REMARK VINA RESULT:      -6.7     27.127     30.415
REMARK  Name = 75536709
REMARK  11 active torsions:
REMARK  status: ('A' for Active; 'I' for Inactive)
REMARK    1  A    between atoms: S_1  and  N_8
REMARK    2  A    between atoms: S_1  and  C_16
REMARK    3  A    between atoms: O_3  and  C_10
REMARK    4  A    between atoms: O_6  and  C_23
REMARK    5  A    between atoms: O_6  and  C_28
REMARK    6  A    between atoms: N_7  and  C_9
REMARK    7  A    between atoms: N_7  and  C_14
REMARK    8  A    between atoms: N_8  and  C_13
REMARK    9  A    between atoms: C_11  and  C_13
REMARK   10  A    between atoms: C_14  and  C_15
REMARK   11  A    between atoms: C_26  and  C_27
REMARK                            x       y       z     vdW  Elec       q    Type
REMARK                         _______ _______ _______ _____ _____    ______ ____
ROOT
ATOM      2  O   UNL     1     -16.465   1.560  25.055  0.00  0.00    -0.371 OA
ATOM      9  C   UNL     1     -17.268   1.994  27.247  0.00  0.00    +0.111 C 
ATOM     10  C   UNL     1     -16.368   3.136  26.814  0.00  0.00    +0.164 C 
ATOM     11  C   UNL     1     -16.395   2.974  25.301  0.00  0.00    +0.164 C 
ATOM     12  C   UNL     1     -16.859   0.902  26.272  0.00  0.00    +0.181 C 
ENDROOT
BRANCH  10   3
ATOM      3  O   UNL     1     -16.857   4.400  27.219  0.00  0.00    -0.388 OA
ATOM     30  H   UNL     1     -16.349   5.088  26.756  0.00  0.00    +0.210 HD
ENDBRANCH  10   3
BRANCH   9   7
ATOM      7  N   UNL     1     -17.092   1.606  28.637  0.00  0.00    -0.305 NA
ATOM     29  H   UNL     1     -17.594   0.735  28.806  0.00  0.00    +0.123 HD
BRANCH   7  14
ATOM     14  C   UNL     1     -15.683   1.408  28.953  0.00  0.00    +0.116 C 
BRANCH  14  15
ATOM     15  C   UNL     1     -15.332   1.942  30.317  0.00  0.00    -0.033 A 
ATOM     17  C   UNL     1     -15.300   3.318  30.540  0.00  0.00    +0.008 A 
ATOM     18  C   UNL     1     -15.041   1.059  31.357  0.00  0.00    +0.008 A 
ATOM     21  C   UNL     1     -14.976   3.812  31.804  0.00  0.00    +0.046 A 
ATOM     22  C   UNL     1     -14.717   1.553  32.620  0.00  0.00    +0.046 A 
ATOM     23  C   UNL     1     -14.684   2.929  32.844  0.00  0.00    +0.120 A 
BRANCH  23   6
ATOM      6  O   UNL     1     -14.369   3.411  34.077  0.00  0.00    -0.495 OA
ATOM     28  C   UNL     1     -14.886   4.695  34.424  0.00  0.00    +0.277 C 
ENDBRANCH  23   6
ENDBRANCH  14  15
ENDBRANCH   7  14
ENDBRANCH   9   7
BRANCH  11  13
ATOM     13  C   UNL     1     -15.172   3.555  24.613  0.00  0.00    +0.140 C 
BRANCH  13   8
ATOM      8  N   UNL     1     -15.397   4.986  24.328  0.00  0.00    -0.187 NA
ATOM     31  H   UNL     1     -15.571   5.581  25.148  0.00  0.00    +0.148 HD
BRANCH   8   1
ATOM      1  S   UNL     1     -16.041   5.465  22.828  0.00  0.00    +0.058 S 
ATOM      4  O   UNL     1     -16.997   6.536  23.036  0.00  0.00    -0.153 OA
ATOM      5  O   UNL     1     -16.422   4.282  22.080  0.00  0.00    -0.153 OA
BRANCH   1  16
ATOM     16  C   UNL     1     -14.621   6.149  22.027  0.00  0.00    +0.105 A 
ATOM     19  C   UNL     1     -13.415   5.448  22.029  0.00  0.00    +0.029 A 
ATOM     20  C   UNL     1     -14.706   7.389  21.397  0.00  0.00    +0.029 A 
ATOM     24  C   UNL     1     -12.294   5.989  21.399  0.00  0.00    +0.005 A 
ATOM     25  C   UNL     1     -13.585   7.930  20.767  0.00  0.00    +0.005 A 
ATOM     26  C   UNL     1     -12.379   7.229  20.768  0.00  0.00    -0.050 A 
ATOM     27  C   UNL     1     -11.180   7.807  20.095  0.00  0.00    +0.044 C 
ENDBRANCH   1  16
ENDBRANCH   8   1
ENDBRANCH  13   8
ENDBRANCH  11  13
TORSDOF 9
ENDMDL
MODEL 8
REMARK VINA RESULT:      -6.7      4.601      7.497
REMARK  Name = 75536709
REMARK  11 active torsions:
REMARK  status: ('A' for Active; 'I' for Inactive)
REMARK    1  A    between atoms: S_1  and  N_8
REMARK    2  A    between atoms: S_1  and  C_16
REMARK    3  A    between atoms: O_3  and  C_10
REMARK    4  A    between atoms: O_6  and  C_23
REMARK    5  A    between atoms: O_6  and  C_28
REMARK    6  A    between atoms: N_7  and  C_9
REMARK    7  A    between atoms: N_7  and  C_14
REMARK    8  A    between atoms: N_8  and  C_13
REMARK    9  A    between atoms: C_11  and  C_13
REMARK   10  A    between atoms: C_14  and  C_15
REMARK   11  A    between atoms: C_26  and  C_27
REMARK                            x       y       z     vdW  Elec       q    Type
REMARK                         _______ _______ _______ _____ _____    ______ ____
ROOT
ATOM      2  O   UNL     1      17.853   7.355  21.541  0.00  0.00    -0.371 OA
ATOM      9  C   UNL     1      19.388   6.203  20.142  0.00  0.00    +0.111 C 
ATOM     10  C   UNL     1      17.989   5.680  19.877  0.00  0.00    +0.164 C 
ATOM     11  C   UNL     1      17.141   6.827  20.410  0.00  0.00    +0.164 C 
ATOM     12  C   UNL     1      19.208   6.874  21.494  0.00  0.00    +0.181 C 
ENDROOT
BRANCH  10   3
ATOM      3  O   UNL     1      17.747   5.438  18.505  0.00  0.00    -0.388 OA
ATOM     30  H   UNL     1      18.559   5.076  18.111  0.00  0.00    +0.210 HD
ENDBRANCH  10   3
BRANCH   9   7
ATOM      7  N   UNL     1      20.406   5.165  20.156  0.00  0.00    -0.305 NA
ATOM     29  H   UNL     1      20.491   4.769  19.220  0.00  0.00    +0.123 HD
BRANCH   7  14
ATOM     14  C   UNL     1      21.699   5.702  20.562  0.00  0.00    +0.116 C 
BRANCH  14  15
ATOM     15  C   UNL     1      22.730   4.618  20.730  0.00  0.00    -0.033 A 
ATOM     17  C   UNL     1      22.414   3.459  21.438  0.00  0.00    +0.008 A 
ATOM     18  C   UNL     1      24.001   4.773  20.177  0.00  0.00    +0.008 A 
ATOM     21  C   UNL     1      23.369   2.454  21.593  0.00  0.00    +0.046 A 
ATOM     22  C   UNL     1      24.956   3.768  20.331  0.00  0.00    +0.046 A 
ATOM     23  C   UNL     1      24.640   2.609  21.040  0.00  0.00    +0.120 A 
BRANCH  23   6
ATOM      6  O   UNL     1      25.572   1.629  21.190  0.00  0.00    -0.495 OA
ATOM     28  C   UNL     1      25.170   0.452  21.891  0.00  0.00    +0.277 C 
ENDBRANCH  23   6
ENDBRANCH  14  15
ENDBRANCH   7  14
ENDBRANCH   9   7
BRANCH  11  13
ATOM     13  C   UNL     1      15.748   6.398  20.835  0.00  0.00    +0.140 C 
BRANCH  13   8
ATOM      8  N   UNL     1      14.853   6.386  19.660  0.00  0.00    -0.187 NA
ATOM     31  H   UNL     1      15.307   6.207  18.756  0.00  0.00    +0.148 HD
BRANCH   8   1
ATOM      1  S   UNL     1      13.413   7.291  19.678  0.00  0.00    +0.058 S 
ATOM      4  O   UNL     1      13.350   8.070  20.901  0.00  0.00    -0.153 OA
ATOM      5  O   UNL     1      12.309   6.426  19.306  0.00  0.00    -0.153 OA
BRANCH   1  16
ATOM     16  C   UNL     1      13.671   8.409  18.333  0.00  0.00    +0.105 A 
ATOM     19  C   UNL     1      13.613   9.785  18.551  0.00  0.00    +0.029 A 
ATOM     20  C   UNL     1      13.929   7.915  17.056  0.00  0.00    +0.029 A 
ATOM     24  C   UNL     1      13.814  10.668  17.489  0.00  0.00    +0.005 A 
ATOM     25  C   UNL     1      14.131   8.797  15.994  0.00  0.00    +0.005 A 
ATOM     26  C   UNL     1      14.073  10.174  16.212  0.00  0.00    -0.050 A 
ATOM     27  C   UNL     1      14.287  11.117  15.076  0.00  0.00    +0.044 C 
ENDBRANCH   1  16
ENDBRANCH   8   1
ENDBRANCH  13   8
ENDBRANCH  11  13
TORSDOF 9
ENDMDL
MODEL 9
REMARK VINA RESULT:      -6.6     26.934     28.783
REMARK  Name = 75536709
REMARK  11 active torsions:
REMARK  status: ('A' for Active; 'I' for Inactive)
REMARK    1  A    between atoms: S_1  and  N_8
REMARK    2  A    between atoms: S_1  and  C_16
REMARK    3  A    between atoms: O_3  and  C_10
REMARK    4  A    between atoms: O_6  and  C_23
REMARK    5  A    between atoms: O_6  and  C_28
REMARK    6  A    between atoms: N_7  and  C_9
REMARK    7  A    between atoms: N_7  and  C_14
REMARK    8  A    between atoms: N_8  and  C_13
REMARK    9  A    between atoms: C_11  and  C_13
REMARK   10  A    between atoms: C_14  and  C_15
REMARK   11  A    between atoms: C_26  and  C_27
REMARK                            x       y       z     vdW  Elec       q    Type
REMARK                         _______ _______ _______ _____ _____    ______ ____
ROOT
ATOM      2  O   UNL     1      -5.019 -12.229  15.711  0.00  0.00    -0.371 OA
ATOM      9  C   UNL     1      -3.081 -11.346  14.659  0.00  0.00    +0.111 C 
ATOM     10  C   UNL     1      -3.055 -10.980  16.131  0.00  0.00    +0.164 C 
ATOM     11  C   UNL     1      -4.006 -12.019  16.709  0.00  0.00    +0.164 C 
ATOM     12  C   UNL     1      -4.547 -11.695  14.462  0.00  0.00    +0.181 C 
ENDROOT
BRANCH  10   3
ATOM      3  O   UNL     1      -1.762 -11.076  16.695  0.00  0.00    -0.388 OA
ATOM     30  H   UNL     1      -1.686 -10.413  17.402  0.00  0.00    +0.210 HD
ENDBRANCH  10   3
BRANCH   9   7
ATOM      7  N   UNL     1      -2.631 -10.276  13.784  0.00  0.00    -0.305 NA
ATOM     29  H   UNL     1      -1.982  -9.678  14.295  0.00  0.00    +0.123 HD
BRANCH   7  14
ATOM     14  C   UNL     1      -1.954 -10.809  12.607  0.00  0.00    +0.116 C 
BRANCH  14  15
ATOM     15  C   UNL     1      -2.769 -10.616  11.356  0.00  0.00    -0.033 A 
ATOM     17  C   UNL     1      -3.470 -11.690  10.808  0.00  0.00    +0.008 A 
ATOM     18  C   UNL     1      -2.822  -9.363  10.745  0.00  0.00    +0.008 A 
ATOM     21  C   UNL     1      -4.225 -11.511   9.648  0.00  0.00    +0.046 A 
ATOM     22  C   UNL     1      -3.577  -9.185   9.586  0.00  0.00    +0.046 A 
ATOM     23  C   UNL     1      -4.278 -10.258   9.038  0.00  0.00    +0.120 A 
BRANCH  23   6
ATOM      6  O   UNL     1      -5.015 -10.083   7.907  0.00  0.00    -0.495 OA
ATOM     28  C   UNL     1      -6.292  -9.462   8.053  0.00  0.00    +0.277 C 
ENDBRANCH  23   6
ENDBRANCH  14  15
ENDBRANCH   7  14
ENDBRANCH   9   7
BRANCH  11  13
ATOM     13  C   UNL     1      -4.652 -11.584  18.013  0.00  0.00    +0.140 C 
BRANCH  13   8
ATOM      8  N   UNL     1      -6.050 -12.055  18.054  0.00  0.00    -0.187 NA
ATOM     31  H   UNL     1      -6.505 -12.181  17.141  0.00  0.00    +0.148 HD
BRANCH   8   1
ATOM      1  S   UNL     1      -7.026 -11.711  19.404  0.00  0.00    +0.058 S 
ATOM      4  O   UNL     1      -6.250 -10.969  20.381  0.00  0.00    -0.153 OA
ATOM      5  O   UNL     1      -7.730 -12.916  19.796  0.00  0.00    -0.153 OA
BRANCH   1  16
ATOM     16  C   UNL     1      -8.225 -10.612  18.713  0.00  0.00    +0.105 A 
ATOM     19  C   UNL     1      -9.546 -10.653  19.160  0.00  0.00    +0.029 A 
ATOM     20  C   UNL     1      -7.852  -9.706  17.722  0.00  0.00    +0.029 A 
ATOM     24  C   UNL     1     -10.494  -9.787  18.612  0.00  0.00    +0.005 A 
ATOM     25  C   UNL     1      -8.799  -8.840  17.175  0.00  0.00    +0.005 A 
ATOM     26  C   UNL     1     -10.121  -8.881  17.621  0.00  0.00    -0.050 A 
ATOM     27  C   UNL     1     -11.134  -7.956  17.036  0.00  0.00    +0.044 C 
ENDBRANCH   1  16
ENDBRANCH   8   1
ENDBRANCH  13   8
ENDBRANCH  11  13
TORSDOF 9
ENDMDL
MODEL 10
REMARK VINA RESULT:      -6.6     25.849     28.821
REMARK  Name = 75536709
REMARK  11 active torsions:
REMARK  status: ('A' for Active; 'I' for Inactive)
REMARK    1  A    between atoms: S_1  and  N_8
REMARK    2  A    between atoms: S_1  and  C_16
REMARK    3  A    between atoms: O_3  and  C_10
REMARK    4  A    between atoms: O_6  and  C_23
REMARK    5  A    between atoms: O_6  and  C_28
REMARK    6  A    between atoms: N_7  and  C_9
REMARK    7  A    between atoms: N_7  and  C_14
REMARK    8  A    between atoms: N_8  and  C_13
REMARK    9  A    between atoms: C_11  and  C_13
REMARK   10  A    between atoms: C_14  and  C_15
REMARK   11  A    between atoms: C_26  and  C_27
REMARK                            x       y       z     vdW  Elec       q    Type
REMARK                         _______ _______ _______ _____ _____    ______ ____
ROOT
ATOM      2  O   UNL     1     -16.390   6.663  20.549  0.00  0.00    -0.371 OA
ATOM      9  C   UNL     1     -14.026   6.740  20.762  0.00  0.00    +0.111 C 
ATOM     10  C   UNL     1     -14.575   5.703  21.722  0.00  0.00    +0.164 C 
ATOM     11  C   UNL     1     -15.934   5.415  21.099  0.00  0.00    +0.164 C 
ATOM     12  C   UNL     1     -15.270   7.560  20.461  0.00  0.00    +0.181 C 
ENDROOT
BRANCH  10   3
ATOM      3  O   UNL     1     -13.770   4.542  21.791  0.00  0.00    -0.388 OA
ATOM     30  H   UNL     1     -14.248   3.812  21.361  0.00  0.00    +0.210 HD
ENDBRANCH  10   3
BRANCH   9   7
ATOM      7  N   UNL     1     -12.944   7.536  21.318  0.00  0.00    -0.305 NA
ATOM     29  H   UNL     1     -12.956   7.450  22.334  0.00  0.00    +0.123 HD
BRANCH   7  14
ATOM     14  C   UNL     1     -11.650   7.084  20.822  0.00  0.00    +0.116 C 
BRANCH  14  15
ATOM     15  C   UNL     1     -11.178   7.908  19.653  0.00  0.00    -0.033 A 
ATOM     17  C   UNL     1     -10.705   9.203  19.859  0.00  0.00    +0.008 A 
ATOM     18  C   UNL     1     -11.213   7.374  18.365  0.00  0.00    +0.008 A 
ATOM     21  C   UNL     1     -10.267   9.966  18.776  0.00  0.00    +0.046 A 
ATOM     22  C   UNL     1     -10.775   8.136  17.283  0.00  0.00    +0.046 A 
ATOM     23  C   UNL     1     -10.303   9.433  17.488  0.00  0.00    +0.120 A 
BRANCH  23   6
ATOM      6  O   UNL     1      -9.875  10.176  16.431  0.00  0.00    -0.495 OA
ATOM     28  C   UNL     1     -10.769  11.170  15.932  0.00  0.00    +0.277 C 
ENDBRANCH  23   6
ENDBRANCH  14  15
ENDBRANCH   7  14
ENDBRANCH   9   7
BRANCH  11  13
ATOM     13  C   UNL     1     -16.953   4.890  22.095  0.00  0.00    +0.140 C 
BRANCH  13   8
ATOM      8  N   UNL     1     -16.437   3.660  22.729  0.00  0.00    -0.187 NA
ATOM     31  H   UNL     1     -15.490   3.379  22.449  0.00  0.00    +0.148 HD
BRANCH   8   1
ATOM      1  S   UNL     1     -17.517   2.456  23.255  0.00  0.00    +0.058 S 
ATOM      4  O   UNL     1     -17.206   1.206  22.589  0.00  0.00    -0.153 OA
ATOM      5  O   UNL     1     -18.867   2.986  23.218  0.00  0.00    -0.153 OA
BRANCH   1  16
ATOM     16  C   UNL     1     -17.073   2.291  24.958  0.00  0.00    +0.105 A 
ATOM     19  C   UNL     1     -17.298   1.085  25.622  0.00  0.00    +0.029 A 
ATOM     20  C   UNL     1     -16.501   3.365  25.637  0.00  0.00    +0.029 A 
ATOM     24  C   UNL     1     -16.949   0.955  26.967  0.00  0.00    +0.005 A 
ATOM     25  C   UNL     1     -16.152   3.235  26.981  0.00  0.00    +0.005 A 
ATOM     26  C   UNL     1     -16.377   2.029  27.646  0.00  0.00    -0.050 A 
ATOM     27  C   UNL     1     -16.005   1.890  29.084  0.00  0.00    +0.044 C 
ENDBRANCH   1  16
ENDBRANCH   8   1
ENDBRANCH  13   8
ENDBRANCH  11  13
TORSDOF 9
ENDMDL
