REMARK  Name = 7156241
REMARK  4 active torsions:
REMARK  status: ('A' for Active; 'I' for Inactive)
REMARK    1  A    between atoms: N_6  and  C_19
REMARK    2  A    between atoms: N_7  and  C_28
REMARK    3  A    between atoms: C_18  and  C_21
REMARK    4  A    between atoms: C_31  and  C_34
REMARK                            x       y       z     vdW  Elec       q    Type
REMARK                         _______ _______ _______ _____ _____    ______ ____
ROOT
ATOM      1  O   UNL     1      -0.459   2.654   1.413  0.00  0.00    -0.266 OA
ATOM      2  O   UNL     1      -4.003  -0.924   2.595  0.00  0.00    -0.270 OA
ATOM      4  N   UNL     1      -4.598   0.011   0.534  0.00  0.00    -0.297 N 
ATOM      5  N   UNL     1      -2.194   2.006  -0.012  0.00  0.00    -0.310 N 
ATOM      9  C   UNL     1      -4.657   2.498   0.492  0.00  0.00    +0.027 C 
ATOM     10  C   UNL     1      -4.048   1.255  -1.544  0.00  0.00    +0.054 C 
ATOM     11  C   UNL     1      -4.827   2.461  -1.023  0.00  0.00    +0.018 C 
ATOM     12  C   UNL     1      -5.201   1.205   1.125  0.00  0.00    +0.113 C 
ATOM     13  C   UNL     1      -3.174   2.721   0.817  0.00  0.00    +0.130 C 
ATOM     14  C   UNL     1      -4.630  -0.038  -0.937  0.00  0.00    +0.117 C 
ATOM     15  C   UNL     1      -2.575   1.365  -1.195  0.00  0.00    +0.027 A 
ATOM     16  C   UNL     1      -1.647   0.817  -1.998  0.00  0.00    +0.024 A 
ATOM     17  C   UNL     1      -0.845   2.087   0.390  0.00  0.00    +0.273 A 
ATOM     18  C   UNL     1      -4.033  -0.959   1.365  0.00  0.00    +0.247 C 
ATOM     19  C   UNL     1       0.155   1.440  -0.518  0.00  0.00    +0.100 A 
ATOM     20  C   UNL     1      -0.255   0.856  -1.649  0.00  0.00    +0.030 A 
ENDROOT
BRANCH  19   6
ATOM      3  O   UNL     1       2.134  -0.497  -1.168  0.00  0.00    -0.252 OA
ATOM      6  N   UNL     1       1.469   1.480  -0.154  0.00  0.00    -0.265 N 
ATOM      7  N   UNL     1       3.662   0.829   0.022  0.00  0.00    -0.269 N 
ATOM     24  C   UNL     1       2.407   0.499  -0.500  0.00  0.00    +0.308 C 
ATOM     35  H   UNL     1       1.719   2.115   0.599  0.00  0.00    +0.157 HD
ATOM     36  H   UNL     1       3.721   1.695   0.552  0.00  0.00    +0.156 HD
BRANCH   7  28
ATOM     28  C   UNL     1       4.872   0.105  -0.100  0.00  0.00    +0.036 A 
ATOM     29  C   UNL     1       6.021   0.600   0.493  0.00  0.00    +0.042 A 
ATOM     30  C   UNL     1       4.881  -1.084  -0.810  0.00  0.00    +0.023 A 
ATOM     31  C   UNL     1       7.214  -0.114   0.372  0.00  0.00    +0.054 A 
ATOM     32  C   UNL     1       6.073  -1.798  -0.931  0.00  0.00    +0.003 A 
ATOM     33  C   UNL     1       7.239  -1.313  -0.340  0.00  0.00    +0.019 A 
BRANCH  31  34
ATOM      8  N   UNL     1       9.381   0.787   1.470  0.00  0.00    -0.191 NA
ATOM     34  C   UNL     1       8.409   0.383   0.978  0.00  0.00    +0.099 C 
ENDBRANCH  31  34
ENDBRANCH   7  28
ENDBRANCH  19   6
BRANCH  18  21
ATOM     21  C   UNL     1      -3.397  -2.120   0.734  0.00  0.00    +0.037 A 
ATOM     22  C   UNL     1      -2.044  -2.078   0.409  0.00  0.00    +0.013 A 
ATOM     23  C   UNL     1      -4.151  -3.259   0.463  0.00  0.00    +0.013 A 
ATOM     25  C   UNL     1      -1.440  -3.182  -0.191  0.00  0.00    +0.001 A 
ATOM     26  C   UNL     1      -3.546  -4.364  -0.138  0.00  0.00    +0.001 A 
ATOM     27  C   UNL     1      -2.191  -4.325  -0.465  0.00  0.00    +0.000 A 
ENDBRANCH  18  21
TORSDOF 4
