REMARK  Name = 75537123
REMARK  2 active torsions:
REMARK  status: ('A' for Active; 'I' for Inactive)
REMARK    1  A    between atoms: N_2  and  C_6
REMARK    2  A    between atoms: N_4  and  C_11
REMARK                            x       y       z     vdW  Elec       q    Type
REMARK                         _______ _______ _______ _____ _____    ______ ____
ROOT
ATOM      1  O   UNL     1      -1.316   2.638  -0.360  0.00  0.00    -0.252 OA
ATOM      2  N   UNL     1       2.979  -0.015   0.127  0.00  0.00    -0.296 NA
ATOM      3  N   UNL     1       0.448   1.199   0.219  0.00  0.00    -0.278 N 
ATOM      4  N   UNL     1      -1.630   0.352   0.131  0.00  0.00    -0.281 N 
ATOM      5  C   UNL     1       0.591  -0.164   0.688  0.00  0.00    +0.109 C 
ATOM      7  C   UNL     1       1.766  -0.846  -0.011  0.00  0.00    +0.108 C 
ATOM      8  C   UNL     1      -0.774  -0.789   0.408  0.00  0.00    +0.133 C 
ATOM     12  C   UNL     1       2.782   1.313  -0.487  0.00  0.00    +0.104 C 
ATOM     13  C   UNL     1       1.614   2.057   0.165  0.00  0.00    +0.125 C 
ATOM     15  C   UNL     1      -0.887   1.537  -0.040  0.00  0.00    +0.305 C 
ENDROOT
BRANCH   4  11
ATOM     11  C   UNL     1      -3.050   0.209  -0.079  0.00  0.00    +0.078 C 
ATOM     16  C   UNL     1      -3.749  -0.186   1.224  0.00  0.00    +0.022 C 
ATOM     17  C   UNL     1      -3.334  -0.802  -1.193  0.00  0.00    +0.022 C 
ATOM     18  C   UNL     1      -5.247  -0.396   1.018  0.00  0.00    +0.002 C 
ATOM     19  C   UNL     1      -4.833  -1.009  -1.395  0.00  0.00    +0.002 C 
ATOM     20  C   UNL     1      -5.527  -1.402  -0.095  0.00  0.00    +0.000 C 
ENDBRANCH   4  11
BRANCH   2   6
ATOM      6  C   UNL     1       4.094  -0.684  -0.529  0.00  0.00    +0.057 C 
ATOM      9  C   UNL     1       4.628  -1.804   0.391  0.00  0.00    +0.019 C 
ATOM     10  C   UNL     1       5.398   0.085  -0.227  0.00  0.00    +0.019 C 
ATOM     14  C   UNL     1       6.045  -1.293   0.044  0.00  0.00    +0.003 C 
ENDBRANCH   2   6
TORSDOF 2
