REMARK  Name = 51136601
REMARK  10 active torsions:
REMARK  status: ('A' for Active; 'I' for Inactive)
REMARK    1  A    between atoms: O_3  and  C_19
REMARK    2  A    between atoms: O_5  and  C_26
REMARK    3  A    between atoms: O_5  and  C_33
REMARK    4  A    between atoms: O_6  and  C_27
REMARK    5  A    between atoms: O_6  and  C_34
REMARK    6  A    between atoms: C_9  and  C_14
REMARK    7  A    between atoms: C_10  and  C_15
REMARK    8  A    between atoms: C_14  and  C_16
REMARK    9  A    between atoms: C_15  and  C_19
REMARK   10  A    between atoms: C_17  and  C_23
REMARK                            x       y       z     vdW  Elec       q    Type
REMARK                         _______ _______ _______ _____ _____    ______ ____
ROOT
ATOM      2  O   UNL     1       1.125   3.246   2.064  0.00  0.00    -0.270 OA
ATOM      7  N   UNL     1       2.125   2.017   0.342  0.00  0.00    -0.297 N 
ATOM      9  C   UNL     1       2.514  -0.153  -0.804  0.00  0.00    +0.016 C 
ATOM     10  C   UNL     1       3.924  -0.195  -0.162  0.00  0.00    +0.006 C 
ATOM     11  C   UNL     1       3.970   0.601   1.153  0.00  0.00    +0.023 C 
ATOM     12  C   UNL     1       2.043   1.306  -0.942  0.00  0.00    +0.112 C 
ATOM     13  C   UNL     1       3.450   2.022   0.957  0.00  0.00    +0.108 C 
ATOM     17  C   UNL     1       1.062   2.655   0.987  0.00  0.00    +0.247 C 
ENDROOT
BRANCH  17  23
ATOM      1  F   UNL     1      -3.957   2.552  -1.485  0.00  0.00    -0.205 F 
ATOM     23  C   UNL     1      -0.254   2.628   0.339  0.00  0.00    +0.037 A 
ATOM     28  C   UNL     1      -0.418   3.187  -0.928  0.00  0.00    +0.016 A 
ATOM     29  C   UNL     1      -1.340   2.044   0.990  0.00  0.00    +0.016 A 
ATOM     30  C   UNL     1      -1.669   3.162  -1.545  0.00  0.00    +0.039 A 
ATOM     31  C   UNL     1      -2.591   2.019   0.374  0.00  0.00    +0.039 A 
ATOM     32  C   UNL     1      -2.756   2.578  -0.893  0.00  0.00    +0.123 A 
ENDBRANCH  17  23
BRANCH   9  14
ATOM     14  C   UNL     1       1.463  -0.983  -0.055  0.00  0.00    +0.061 C 
BRANCH  14  16
ATOM      8  N   UNL     1       0.559  -1.403  -2.240  0.00  0.00    -0.287 NA
ATOM     16  C   UNL     1       0.310  -1.302  -0.976  0.00  0.00    +0.044 C 
ATOM     18  C   UNL     1      -1.044  -1.478  -0.392  0.00  0.00    +0.003 A 
ATOM     20  C   UNL     1      -2.128  -1.385  -1.274  0.00  0.00    -0.033 A 
ATOM     21  C   UNL     1      -1.857  -1.105  -2.722  0.00  0.00    +0.059 C 
ATOM     22  C   UNL     1      -0.549  -1.773  -3.127  0.00  0.00    +0.146 C 
ATOM     24  C   UNL     1      -1.255  -1.710   0.969  0.00  0.00    +0.059 A 
ATOM     25  C   UNL     1      -3.431  -1.501  -0.780  0.00  0.00    +0.053 A 
ATOM     26  C   UNL     1      -2.559  -1.840   1.450  0.00  0.00    +0.162 A 
ATOM     27  C   UNL     1      -3.644  -1.733   0.579  0.00  0.00    +0.162 A 
BRANCH  26   5
ATOM      5  O   UNL     1      -2.761  -2.069   2.778  0.00  0.00    -0.491 OA
ATOM     33  C   UNL     1      -2.901  -0.925   3.618  0.00  0.00    +0.277 C 
ENDBRANCH  26   5
BRANCH  27   6
ATOM      6  O   UNL     1      -4.919  -1.851   1.045  0.00  0.00    -0.491 OA
ATOM     34  C   UNL     1      -5.971  -1.730   0.090  0.00  0.00    +0.277 C 
ENDBRANCH  27   6
ENDBRANCH  14  16
ENDBRANCH   9  14
BRANCH  10  15
ATOM     15  C   UNL     1       4.446  -1.616   0.049  0.00  0.00    +0.124 C 
BRANCH  15  19
ATOM      4  O   UNL     1       6.700  -0.689   0.072  0.00  0.00    -0.251 OA
ATOM     19  C   UNL     1       5.946  -1.648   0.144  0.00  0.00    +0.305 C 
BRANCH  19   3
ATOM      3  O   UNL     1       6.366  -2.926   0.326  0.00  0.00    -0.481 OA
ATOM     35  H   UNL     1       7.343  -2.984   0.392  0.00  0.00    +0.295 HD
ENDBRANCH  19   3
ENDBRANCH  15  19
ENDBRANCH  10  15
TORSDOF 8
