REMARK  Name = 75537093
REMARK  4 active torsions:
REMARK  status: ('A' for Active; 'I' for Inactive)
REMARK    1  A    between atoms: N_5  and  C_14
REMARK    2  A    between atoms: N_6  and  C_15
REMARK    3  A    between atoms: C_14  and  C_16
REMARK    4  A    between atoms: C_15  and  C_17
REMARK                            x       y       z     vdW  Elec       q    Type
REMARK                         _______ _______ _______ _____ _____    ______ ____
ROOT
ATOM      3  O   UNL     1       2.280   3.031   0.107  0.00  0.00    -0.252 OA
ATOM      4  N   UNL     1       0.212   1.933  -0.084  0.00  0.00    -0.278 N 
ATOM      5  N   UNL     1      -2.237   0.794   0.699  0.00  0.00    -0.295 NA
ATOM      6  N   UNL     1       1.969   1.095  -1.205  0.00  0.00    -0.279 N 
ATOM      8  C   UNL     1      -0.340   0.848  -0.868  0.00  0.00    +0.109 C 
ATOM      9  C   UNL     1      -1.234  -0.035   0.002  0.00  0.00    +0.109 C 
ATOM     10  C   UNL     1       0.892   0.149  -1.440  0.00  0.00    +0.133 C 
ATOM     11  C   UNL     1      -0.666   2.720   0.755  0.00  0.00    +0.125 C 
ATOM     12  C   UNL     1      -1.583   1.798   1.563  0.00  0.00    +0.104 C 
ATOM     13  C   UNL     1       1.575   2.136  -0.340  0.00  0.00    +0.305 C 
ENDROOT
BRANCH   5  14
ATOM     14  C   UNL     1      -3.136  -0.048   1.488  0.00  0.00    +0.122 C 
BRANCH  14  16
ATOM      1  F   UNL     1      -5.401   1.279   0.381  0.00  0.00    -0.204 F 
ATOM      7  N   UNL     1      -6.058  -2.021  -0.969  0.00  0.00    -0.260 NA
ATOM     16  C   UNL     1      -4.159  -0.736   0.629  0.00  0.00    +0.005 A 
ATOM     18  C   UNL     1      -5.240  -0.024   0.122  0.00  0.00    +0.146 A 
ATOM     19  C   UNL     1      -4.025  -2.089   0.338  0.00  0.00    +0.027 A 
ATOM     24  C   UNL     1      -6.154  -0.707  -0.664  0.00  0.00    +0.149 A 
ATOM     25  C   UNL     1      -4.994  -2.679  -0.458  0.00  0.00    +0.111 A 
ENDBRANCH  14  16
ENDBRANCH   5  14
BRANCH   6  15
ATOM     15  C   UNL     1       3.310   0.867  -1.697  0.00  0.00    +0.144 C 
BRANCH  15  17
ATOM      2  F   UNL     1       6.202  -2.652   1.612  0.00  0.00    -0.205 F 
ATOM     17  C   UNL     1       4.081  -0.071  -0.815  0.00  0.00    -0.030 A 
ATOM     20  C   UNL     1       4.837   0.431   0.244  0.00  0.00    +0.008 A 
ATOM     21  C   UNL     1       4.042  -1.445  -1.054  0.00  0.00    +0.008 A 
ATOM     22  C   UNL     1       5.554  -0.441   1.064  0.00  0.00    +0.038 A 
ATOM     23  C   UNL     1       4.758  -2.317  -0.235  0.00  0.00    +0.038 A 
ATOM     26  C   UNL     1       5.515  -1.815   0.825  0.00  0.00    +0.123 A 
ENDBRANCH  15  17
ENDBRANCH   6  15
TORSDOF 4
