MODEL 1
REMARK VINA RESULT:      -8.6      0.000      0.000
REMARK  Name = 7156382
REMARK  3 active torsions:
REMARK  status: ('A' for Active; 'I' for Inactive)
REMARK    1  A    between atoms: N_3  and  C_11
REMARK    2  A    between atoms: C_20  and  C_23
REMARK    3  A    between atoms: C_22  and  C_24
REMARK                            x       y       z     vdW  Elec       q    Type
REMARK                         _______ _______ _______ _____ _____    ______ ____
ROOT
ATOM      1  O   UNL     1      -5.857 -12.205  10.031  0.00  0.00    -0.267 OA
ATOM      3  N   UNL     1      -4.090 -11.085  14.589  0.00  0.00    -0.298 NA
ATOM      4  N   UNL     1      -4.078 -11.768  11.473  0.00  0.00    -0.311 N 
ATOM      6  C   UNL     1      -3.523 -13.261  13.480  0.00  0.00    +0.024 C 
ATOM      7  C   UNL     1      -2.153 -11.284  13.023  0.00  0.00    +0.050 C 
ATOM      8  C   UNL     1      -2.093 -12.792  13.246  0.00  0.00    +0.017 C 
ATOM      9  C   UNL     1      -4.119 -12.547  14.712  0.00  0.00    +0.090 C 
ATOM     10  C   UNL     1      -2.737 -10.599  14.279  0.00  0.00    +0.094 C 
ATOM     12  C   UNL     1      -4.339 -13.015  12.204  0.00  0.00    +0.130 C 
ATOM     13  C   UNL     1      -2.990 -10.954  11.800  0.00  0.00    +0.026 A 
ATOM     18  C   UNL     1      -2.703  -9.878  11.050  0.00  0.00    +0.022 A 
ATOM     19  C   UNL     1      -4.911 -11.493  10.371  0.00  0.00    +0.259 A 
ATOM     20  C   UNL     1      -4.584 -10.262   9.567  0.00  0.00    +0.047 A 
ATOM     21  C   UNL     1      -3.518  -9.528   9.921  0.00  0.00    +0.015 A 
ENDROOT
BRANCH  20  23
ATOM     23  C   UNL     1      -5.416  -9.856   8.422  0.00  0.00    -0.012 A 
ATOM     25  C   UNL     1      -6.393  -8.872   8.580  0.00  0.00    +0.017 A 
ATOM     26  C   UNL     1      -5.226 -10.452   7.178  0.00  0.00    +0.009 A 
ATOM     27  C   UNL     1      -7.194  -8.474   7.496  0.00  0.00    -0.017 A 
ATOM     28  C   UNL     1      -6.011 -10.070   6.090  0.00  0.00    +0.009 A 
ATOM     29  C   UNL     1      -6.999  -9.081   6.233  0.00  0.00    -0.018 A 
ATOM     30  C   UNL     1      -8.181  -7.486   7.639  0.00  0.00    +0.008 A 
ATOM     31  C   UNL     1      -7.799  -8.683   5.150  0.00  0.00    +0.008 A 
ATOM     32  C   UNL     1      -8.966  -7.102   6.552  0.00  0.00    +0.001 A 
ATOM     33  C   UNL     1      -8.776  -7.700   5.310  0.00  0.00    +0.001 A 
ENDBRANCH  20  23
BRANCH   3  11
ATOM      2  O   UNL     1      -6.972 -11.711  19.969  0.00  0.00    -0.276 OA
ATOM      5  N   UNL     1      -6.369 -10.477  18.096  0.00  0.00    -0.302 N 
ATOM     11  C   UNL     1      -4.613 -10.446  15.794  0.00  0.00    +0.060 C 
ATOM     14  C   UNL     1      -6.123 -10.216  15.655  0.00  0.00    +0.038 C 
ATOM     15  C   UNL     1      -4.314 -11.317  17.022  0.00  0.00    +0.038 C 
ATOM     16  C   UNL     1      -6.709  -9.634  16.942  0.00  0.00    +0.109 C 
ATOM     17  C   UNL     1      -4.936 -10.714  18.281  0.00  0.00    +0.109 C 
ATOM     22  C   UNL     1      -7.283 -11.006  19.006  0.00  0.00    +0.212 C 
ATOM     24  C   UNL     1      -8.737 -10.679  18.771  0.00  0.00    +0.109 C 
ENDBRANCH   3  11
TORSDOF 2
ENDMDL
MODEL 2
REMARK VINA RESULT:      -8.4     21.269     23.126
REMARK  Name = 7156382
REMARK  3 active torsions:
REMARK  status: ('A' for Active; 'I' for Inactive)
REMARK    1  A    between atoms: N_3  and  C_11
REMARK    2  A    between atoms: C_20  and  C_23
REMARK    3  A    between atoms: C_22  and  C_24
REMARK                            x       y       z     vdW  Elec       q    Type
REMARK                         _______ _______ _______ _____ _____    ______ ____
ROOT
ATOM      1  O   UNL     1     -16.891   6.594  24.598  0.00  0.00    -0.267 OA
ATOM      3  N   UNL     1     -16.069   3.434  28.405  0.00  0.00    -0.298 NA
ATOM      4  N   UNL     1     -17.201   4.526  25.629  0.00  0.00    -0.311 N 
ATOM      6  C   UNL     1     -18.378   4.270  27.892  0.00  0.00    +0.024 C 
ATOM      7  C   UNL     1     -17.530   2.286  26.733  0.00  0.00    +0.050 C 
ATOM      8  C   UNL     1     -18.777   2.899  27.362  0.00  0.00    +0.017 C 
ATOM      9  C   UNL     1     -17.251   4.125  28.937  0.00  0.00    +0.090 C 
ATOM     10  C   UNL     1     -16.429   2.139  27.808  0.00  0.00    +0.094 C 
ATOM     12  C   UNL     1     -17.973   5.159  26.708  0.00  0.00    +0.130 C 
ATOM     13  C   UNL     1     -17.034   3.140  25.579  0.00  0.00    +0.026 A 
ATOM     18  C   UNL     1     -16.423   2.572  24.527  0.00  0.00    +0.022 A 
ATOM     19  C   UNL     1     -16.733   5.372  24.606  0.00  0.00    +0.259 A 
ATOM     20  C   UNL     1     -16.022   4.710  23.455  0.00  0.00    +0.047 A 
ATOM     21  C   UNL     1     -15.905   3.374  23.454  0.00  0.00    +0.015 A 
ENDROOT
BRANCH  20  23
ATOM     23  C   UNL     1     -15.453   5.504  22.352  0.00  0.00    -0.012 A 
ATOM     25  C   UNL     1     -14.072   5.688  22.263  0.00  0.00    +0.017 A 
ATOM     26  C   UNL     1     -16.292   6.069  21.396  0.00  0.00    +0.009 A 
ATOM     27  C   UNL     1     -13.514   6.442  21.217  0.00  0.00    -0.017 A 
ATOM     28  C   UNL     1     -15.756   6.820  20.350  0.00  0.00    +0.009 A 
ATOM     29  C   UNL     1     -14.369   7.016  20.246  0.00  0.00    -0.018 A 
ATOM     30  C   UNL     1     -12.128   6.638  21.113  0.00  0.00    +0.008 A 
ATOM     31  C   UNL     1     -13.811   7.769  19.200  0.00  0.00    +0.008 A 
ATOM     32  C   UNL     1     -11.591   7.388  20.067  0.00  0.00    +0.001 A 
ATOM     33  C   UNL     1     -12.431   7.953  19.112  0.00  0.00    +0.001 A 
ENDBRANCH  20  23
BRANCH   3  11
ATOM      2  O   UNL     1     -14.618   1.361  33.994  0.00  0.00    -0.276 OA
ATOM      5  N   UNL     1     -14.320   2.807  32.201  0.00  0.00    -0.302 N 
ATOM     11  C   UNL     1     -15.049   3.269  29.437  0.00  0.00    +0.060 C 
ATOM     14  C   UNL     1     -15.195   4.366  30.501  0.00  0.00    +0.038 C 
ATOM     15  C   UNL     1     -15.169   1.881  30.079  0.00  0.00    +0.038 C 
ATOM     16  C   UNL     1     -14.197   4.159  31.641  0.00  0.00    +0.109 C 
ATOM     17  C   UNL     1     -14.172   1.724  31.226  0.00  0.00    +0.109 C 
ATOM     22  C   UNL     1     -14.519   2.507  33.548  0.00  0.00    +0.212 C 
ATOM     24  C   UNL     1     -14.616   3.677  34.494  0.00  0.00    +0.109 C 
ENDBRANCH   3  11
TORSDOF 2
ENDMDL
MODEL 3
REMARK VINA RESULT:      -8.4      0.991      1.850
REMARK  Name = 7156382
REMARK  3 active torsions:
REMARK  status: ('A' for Active; 'I' for Inactive)
REMARK    1  A    between atoms: N_3  and  C_11
REMARK    2  A    between atoms: C_20  and  C_23
REMARK    3  A    between atoms: C_22  and  C_24
REMARK                            x       y       z     vdW  Elec       q    Type
REMARK                         _______ _______ _______ _____ _____    ______ ____
ROOT
ATOM      1  O   UNL     1      -5.404 -12.695  10.398  0.00  0.00    -0.267 OA
ATOM      3  N   UNL     1      -4.000 -11.136  14.953  0.00  0.00    -0.298 NA
ATOM      4  N   UNL     1      -3.751 -12.030  11.901  0.00  0.00    -0.311 N 
ATOM      6  C   UNL     1      -3.218 -13.337  14.040  0.00  0.00    +0.024 C 
ATOM      7  C   UNL     1      -1.961 -11.301  13.516  0.00  0.00    +0.050 C 
ATOM      8  C   UNL     1      -1.812 -12.782  13.853  0.00  0.00    +0.017 C 
ATOM      9  C   UNL     1      -3.935 -12.585  15.181  0.00  0.00    +0.090 C 
ATOM     10  C   UNL     1      -2.667 -10.575  14.685  0.00  0.00    +0.094 C 
ATOM     12  C   UNL     1      -3.970 -13.240  12.706  0.00  0.00    +0.130 C 
ATOM     13  C   UNL     1      -2.744 -11.119  12.228  0.00  0.00    +0.026 A 
ATOM     18  C   UNL     1      -2.486 -10.079  11.418  0.00  0.00    +0.022 A 
ATOM     19  C   UNL     1      -4.531 -11.894  10.737  0.00  0.00    +0.259 A 
ATOM     20  C   UNL     1      -4.242 -10.701   9.865  0.00  0.00    +0.047 A 
ATOM     21  C   UNL     1      -3.253  -9.868  10.223  0.00  0.00    +0.015 A 
ENDROOT
BRANCH  20  23
ATOM     23  C   UNL     1      -5.028 -10.436   8.648  0.00  0.00    -0.012 A 
ATOM     25  C   UNL     1      -4.818 -11.201   7.499  0.00  0.00    +0.017 A 
ATOM     26  C   UNL     1      -5.985  -9.424   8.643  0.00  0.00    +0.009 A 
ATOM     27  C   UNL     1      -5.560 -10.961   6.331  0.00  0.00    -0.017 A 
ATOM     28  C   UNL     1      -6.732  -9.172   7.493  0.00  0.00    +0.009 A 
ATOM     29  C   UNL     1      -6.532  -9.932   6.328  0.00  0.00    -0.018 A 
ATOM     30  C   UNL     1      -5.360 -11.720   5.167  0.00  0.00    +0.008 A 
ATOM     31  C   UNL     1      -7.274  -9.693   5.160  0.00  0.00    +0.008 A 
ATOM     32  C   UNL     1      -6.107 -11.469   4.016  0.00  0.00    +0.001 A 
ATOM     33  C   UNL     1      -7.062 -10.456   4.012  0.00  0.00    +0.001 A 
ENDBRANCH  20  23
BRANCH   3  11
ATOM      2  O   UNL     1      -7.497 -11.559  19.976  0.00  0.00    -0.276 OA
ATOM      5  N   UNL     1      -6.646 -10.385  18.161  0.00  0.00    -0.302 N 
ATOM     11  C   UNL     1      -4.637 -10.456  16.077  0.00  0.00    +0.060 C 
ATOM     14  C   UNL     1      -6.115 -10.187  15.760  0.00  0.00    +0.038 C 
ATOM     15  C   UNL     1      -4.508 -11.306  17.349  0.00  0.00    +0.038 C 
ATOM     16  C   UNL     1      -6.826  -9.560  16.960  0.00  0.00    +0.109 C 
ATOM     17  C   UNL     1      -5.252 -10.657  18.515  0.00  0.00    +0.109 C 
ATOM     22  C   UNL     1      -7.675 -10.867  18.970  0.00  0.00    +0.212 C 
ATOM     24  C   UNL     1      -9.081 -10.505  18.563  0.00  0.00    +0.109 C 
ENDBRANCH   3  11
TORSDOF 2
ENDMDL
MODEL 4
REMARK VINA RESULT:      -8.2     20.695     24.233
REMARK  Name = 7156382
REMARK  3 active torsions:
REMARK  status: ('A' for Active; 'I' for Inactive)
REMARK    1  A    between atoms: N_3  and  C_11
REMARK    2  A    between atoms: C_20  and  C_23
REMARK    3  A    between atoms: C_22  and  C_24
REMARK                            x       y       z     vdW  Elec       q    Type
REMARK                         _______ _______ _______ _____ _____    ______ ____
ROOT
ATOM      1  O   UNL     1     -16.104   2.156  24.966  0.00  0.00    -0.267 OA
ATOM      3  N   UNL     1     -15.361   6.441  22.467  0.00  0.00    -0.298 NA
ATOM      4  N   UNL     1     -16.874   4.208  24.171  0.00  0.00    -0.311 N 
ATOM      6  C   UNL     1     -17.036   4.752  21.672  0.00  0.00    +0.024 C 
ATOM      7  C   UNL     1     -17.709   6.429  23.326  0.00  0.00    +0.050 C 
ATOM      8  C   UNL     1     -18.183   5.662  22.095  0.00  0.00    +0.017 C 
ATOM      9  C   UNL     1     -15.786   5.596  21.344  0.00  0.00    +0.090 C 
ATOM     10  C   UNL     1     -16.468   7.275  22.959  0.00  0.00    +0.094 C 
ATOM     12  C   UNL     1     -16.780   3.728  22.785  0.00  0.00    +0.130 C 
ATOM     13  C   UNL     1     -17.385   5.476  24.462  0.00  0.00    +0.026 A 
ATOM     18  C   UNL     1     -17.567   5.852  25.738  0.00  0.00    +0.022 A 
ATOM     19  C   UNL     1     -16.524   3.294  25.183  0.00  0.00    +0.259 A 
ATOM     20  C   UNL     1     -16.708   3.756  26.604  0.00  0.00    +0.047 A 
ATOM     21  C   UNL     1     -17.216   4.979  26.822  0.00  0.00    +0.015 A 
ENDROOT
BRANCH  20  23
ATOM     23  C   UNL     1     -16.332   2.898  27.741  0.00  0.00    -0.012 A 
ATOM     25  C   UNL     1     -15.383   3.338  28.666  0.00  0.00    +0.017 A 
ATOM     26  C   UNL     1     -16.924   1.647  27.894  0.00  0.00    +0.009 A 
ATOM     27  C   UNL     1     -15.014   2.530  29.755  0.00  0.00    -0.017 A 
ATOM     28  C   UNL     1     -16.571   0.832  28.970  0.00  0.00    +0.009 A 
ATOM     29  C   UNL     1     -15.618   1.259  29.909  0.00  0.00    -0.018 A 
ATOM     30  C   UNL     1     -14.062   2.957  30.694  0.00  0.00    +0.008 A 
ATOM     31  C   UNL     1     -15.249   0.453  30.998  0.00  0.00    +0.008 A 
ATOM     32  C   UNL     1     -13.708   2.143  31.770  0.00  0.00    +0.001 A 
ATOM     33  C   UNL     1     -14.301   0.893  31.921  0.00  0.00    +0.001 A 
ENDBRANCH  20  23
BRANCH   3  11
ATOM      2  O   UNL     1     -12.511   9.775  18.178  0.00  0.00    -0.276 OA
ATOM      5  N   UNL     1     -12.505   8.442  20.080  0.00  0.00    -0.302 N 
ATOM     11  C   UNL     1     -14.210   7.261  22.101  0.00  0.00    +0.060 C 
ATOM     14  C   UNL     1     -13.193   6.421  21.316  0.00  0.00    +0.038 C 
ATOM     15  C   UNL     1     -14.666   8.466  21.267  0.00  0.00    +0.038 C 
ATOM     16  C   UNL     1     -12.022   7.282  20.841  0.00  0.00    +0.109 C 
ATOM     17  C   UNL     1     -13.467   9.285  20.792  0.00  0.00    +0.109 C 
ATOM     22  C   UNL     1     -12.091   8.793  18.796  0.00  0.00    +0.212 C 
ATOM     24  C   UNL     1     -11.064   7.899  18.148  0.00  0.00    +0.109 C 
ENDBRANCH   3  11
TORSDOF 2
ENDMDL
MODEL 5
REMARK VINA RESULT:      -8.0     28.629     31.544
REMARK  Name = 7156382
REMARK  3 active torsions:
REMARK  status: ('A' for Active; 'I' for Inactive)
REMARK    1  A    between atoms: N_3  and  C_11
REMARK    2  A    between atoms: C_20  and  C_23
REMARK    3  A    between atoms: C_22  and  C_24
REMARK                            x       y       z     vdW  Elec       q    Type
REMARK                         _______ _______ _______ _____ _____    ______ ____
ROOT
ATOM      1  O   UNL     1      17.520   5.651  19.547  0.00  0.00    -0.267 OA
ATOM      3  N   UNL     1      14.479   9.552  18.719  0.00  0.00    -0.298 NA
ATOM      4  N   UNL     1      16.106   7.331  20.331  0.00  0.00    -0.311 N 
ATOM      6  C   UNL     1      13.614   7.430  19.739  0.00  0.00    +0.024 C 
ATOM      7  C   UNL     1      14.589   9.151  21.184  0.00  0.00    +0.050 C 
ATOM      8  C   UNL     1      13.472   8.116  21.092  0.00  0.00    +0.017 C 
ATOM      9  C   UNL     1      13.493   8.470  18.605  0.00  0.00    +0.090 C 
ATOM     10  C   UNL     1      14.429  10.185  20.046  0.00  0.00    +0.094 C 
ATOM     12  C   UNL     1      14.949   6.674  19.706  0.00  0.00    +0.130 C 
ATOM     13  C   UNL     1      15.950   8.482  21.106  0.00  0.00    +0.026 A 
ATOM     18  C   UNL     1      17.001   9.003  21.760  0.00  0.00    +0.022 A 
ATOM     19  C   UNL     1      17.350   6.686  20.194  0.00  0.00    +0.259 A 
ATOM     20  C   UNL     1      18.517   7.311  20.911  0.00  0.00    +0.047 A 
ATOM     21  C   UNL     1      18.303   8.408  21.653  0.00  0.00    +0.015 A 
ENDROOT
BRANCH  20  23
ATOM     23  C   UNL     1      19.873   6.746  20.800  0.00  0.00    -0.012 A 
ATOM     25  C   UNL     1      20.087   5.388  21.046  0.00  0.00    +0.017 A 
ATOM     26  C   UNL     1      20.942   7.565  20.448  0.00  0.00    +0.009 A 
ATOM     27  C   UNL     1      21.374   4.834  20.944  0.00  0.00    -0.017 A 
ATOM     28  C   UNL     1      22.227   7.032  20.341  0.00  0.00    +0.009 A 
ATOM     29  C   UNL     1      22.460   5.669  20.585  0.00  0.00    -0.018 A 
ATOM     30  C   UNL     1      21.607   3.472  21.188  0.00  0.00    +0.008 A 
ATOM     31  C   UNL     1      23.746   5.114  20.482  0.00  0.00    +0.008 A 
ATOM     32  C   UNL     1      22.890   2.938  21.080  0.00  0.00    +0.001 A 
ATOM     33  C   UNL     1      23.959   3.758  20.729  0.00  0.00    +0.001 A 
ENDBRANCH  20  23
BRANCH   3  11
ATOM      2  O   UNL     1      15.456  11.148  12.877  0.00  0.00    -0.276 OA
ATOM      5  N   UNL     1      15.080  11.666  15.110  0.00  0.00    -0.302 N 
ATOM     11  C   UNL     1      14.298  10.541  17.660  0.00  0.00    +0.060 C 
ATOM     14  C   UNL     1      15.566  11.393  17.513  0.00  0.00    +0.038 C 
ATOM     15  C   UNL     1      13.966   9.840  16.336  0.00  0.00    +0.038 C 
ATOM     16  C   UNL     1      15.435  12.373  16.347  0.00  0.00    +0.109 C 
ATOM     17  C   UNL     1      13.866  10.851  15.195  0.00  0.00    +0.109 C 
ATOM     22  C   UNL     1      15.775  11.752  13.904  0.00  0.00    +0.212 C 
ATOM     24  C   UNL     1      16.989  12.648  13.886  0.00  0.00    +0.109 C 
ENDBRANCH   3  11
TORSDOF 2
ENDMDL
MODEL 6
REMARK VINA RESULT:      -7.8      6.050     11.287
REMARK  Name = 7156382
REMARK  3 active torsions:
REMARK  status: ('A' for Active; 'I' for Inactive)
REMARK    1  A    between atoms: N_3  and  C_11
REMARK    2  A    between atoms: C_20  and  C_23
REMARK    3  A    between atoms: C_22  and  C_24
REMARK                            x       y       z     vdW  Elec       q    Type
REMARK                         _______ _______ _______ _____ _____    ______ ____
ROOT
ATOM      1  O   UNL     1      -9.913 -10.552  14.924  0.00  0.00    -0.267 OA
ATOM      3  N   UNL     1     -12.537  -6.572  13.368  0.00  0.00    -0.298 NA
ATOM      4  N   UNL     1     -11.457  -8.851  15.321  0.00  0.00    -0.311 N 
ATOM      6  C   UNL     1     -13.687  -8.687  14.069  0.00  0.00    +0.024 C 
ATOM      7  C   UNL     1     -13.117  -7.009  15.759  0.00  0.00    +0.050 C 
ATOM      8  C   UNL     1     -14.184  -8.017  15.344  0.00  0.00    +0.017 C 
ATOM      9  C   UNL     1     -13.472  -7.629  12.965  0.00  0.00    +0.090 C 
ATOM     10  C   UNL     1     -12.939  -5.956  14.641  0.00  0.00    +0.094 C 
ATOM     12  C   UNL     1     -12.409  -9.472  14.390  0.00  0.00    +0.130 C 
ATOM     13  C   UNL     1     -11.800  -7.707  16.046  0.00  0.00    +0.026 A 
ATOM     18  C   UNL     1     -10.960  -7.220  16.973  0.00  0.00    +0.022 A 
ATOM     19  C   UNL     1     -10.235  -9.522  15.519  0.00  0.00    +0.259 A 
ATOM     20  C   UNL     1      -9.299  -8.934  16.542  0.00  0.00    +0.047 A 
ATOM     21  C   UNL     1      -9.690  -7.842  17.217  0.00  0.00    +0.015 A 
ENDROOT
BRANCH  20  23
ATOM     23  C   UNL     1      -7.976  -9.529  16.797  0.00  0.00    -0.012 A 
ATOM     25  C   UNL     1      -7.694 -10.101  18.038  0.00  0.00    +0.017 A 
ATOM     26  C   UNL     1      -7.006  -9.523  15.798  0.00  0.00    +0.009 A 
ATOM     27  C   UNL     1      -6.437 -10.673  18.296  0.00  0.00    -0.017 A 
ATOM     28  C   UNL     1      -5.752 -10.086  16.036  0.00  0.00    +0.009 A 
ATOM     29  C   UNL     1      -5.452 -10.666  17.280  0.00  0.00    -0.018 A 
ATOM     30  C   UNL     1      -6.136 -11.252  19.539  0.00  0.00    +0.008 A 
ATOM     31  C   UNL     1      -4.196 -11.237  17.538  0.00  0.00    +0.008 A 
ATOM     32  C   UNL     1      -4.884 -11.816  19.778  0.00  0.00    +0.001 A 
ATOM     33  C   UNL     1      -3.914 -11.808  18.779  0.00  0.00    +0.001 A 
ENDBRANCH  20  23
BRANCH   3  11
ATOM      2  O   UNL     1     -15.190  -2.173  10.013  0.00  0.00    -0.276 OA
ATOM      5  N   UNL     1     -13.592  -3.829  10.331  0.00  0.00    -0.302 N 
ATOM     11  C   UNL     1     -12.401  -5.564  12.319  0.00  0.00    +0.060 C 
ATOM     14  C   UNL     1     -12.936  -6.114  10.989  0.00  0.00    +0.038 C 
ATOM     15  C   UNL     1     -13.157  -4.288  12.714  0.00  0.00    +0.038 C 
ATOM     16  C   UNL     1     -12.891  -5.044   9.897  0.00  0.00    +0.109 C 
ATOM     17  C   UNL     1     -13.108  -3.256  11.588  0.00  0.00    +0.109 C 
ATOM     22  C   UNL     1     -14.617  -3.195   9.628  0.00  0.00    +0.212 C 
ATOM     24  C   UNL     1     -15.028  -3.822   8.320  0.00  0.00    +0.109 C 
ENDBRANCH   3  11
TORSDOF 2
ENDMDL
MODEL 7
REMARK VINA RESULT:      -7.8     23.951     28.726
REMARK  Name = 7156382
REMARK  3 active torsions:
REMARK  status: ('A' for Active; 'I' for Inactive)
REMARK    1  A    between atoms: N_3  and  C_11
REMARK    2  A    between atoms: C_20  and  C_23
REMARK    3  A    between atoms: C_22  and  C_24
REMARK                            x       y       z     vdW  Elec       q    Type
REMARK                         _______ _______ _______ _____ _____    ______ ____
ROOT
ATOM      1  O   UNL     1     -16.684   6.053  32.010  0.00  0.00    -0.267 OA
ATOM      3  N   UNL     1     -14.222  10.404  31.619  0.00  0.00    -0.298 NA
ATOM      4  N   UNL     1     -15.534   7.834  32.979  0.00  0.00    -0.311 N 
ATOM      6  C   UNL     1     -16.385  10.250  32.878  0.00  0.00    +0.024 C 
ATOM      7  C   UNL     1     -14.283   9.750  34.030  0.00  0.00    +0.050 C 
ATOM      8  C   UNL     1     -15.648  10.409  34.202  0.00  0.00    +0.017 C 
ATOM      9  C   UNL     1     -15.587  10.929  31.744  0.00  0.00    +0.090 C 
ATOM     10  C   UNL     1     -13.504  10.463  32.901  0.00  0.00    +0.094 C 
ATOM     12  C   UNL     1     -16.621   8.756  32.619  0.00  0.00    +0.130 C 
ATOM     13  C   UNL     1     -14.434   8.272  33.720  0.00  0.00    +0.026 A 
ATOM     18  C   UNL     1     -13.508   7.392  34.134  0.00  0.00    +0.022 A 
ATOM     19  C   UNL     1     -15.711   6.481  32.632  0.00  0.00    +0.259 A 
ATOM     20  C   UNL     1     -14.639   5.523  33.082  0.00  0.00    +0.047 A 
ATOM     21  C   UNL     1     -13.613   5.999  33.803  0.00  0.00    +0.015 A 
ENDROOT
BRANCH  20  23
ATOM     23  C   UNL     1     -14.700   4.093  32.735  0.00  0.00    -0.012 A 
ATOM     25  C   UNL     1     -14.725   3.698  31.396  0.00  0.00    +0.017 A 
ATOM     26  C   UNL     1     -14.730   3.133  33.743  0.00  0.00    +0.009 A 
ATOM     27  C   UNL     1     -14.783   2.338  31.050  0.00  0.00    -0.017 A 
ATOM     28  C   UNL     1     -14.787   1.778  33.418  0.00  0.00    +0.009 A 
ATOM     29  C   UNL     1     -14.813   1.364  32.076  0.00  0.00    -0.018 A 
ATOM     30  C   UNL     1     -14.809   1.923  29.709  0.00  0.00    +0.008 A 
ATOM     31  C   UNL     1     -14.870   0.004  31.729  0.00  0.00    +0.008 A 
ATOM     32  C   UNL     1     -14.865   0.569  29.383  0.00  0.00    +0.001 A 
ATOM     33  C   UNL     1     -14.896  -0.390  30.392  0.00  0.00    +0.001 A 
ENDBRANCH  20  23
BRANCH   3  11
ATOM      2  O   UNL     1     -12.192  10.457  25.829  0.00  0.00    -0.276 OA
ATOM      5  N   UNL     1     -12.043  11.082  28.061  0.00  0.00    -0.302 N 
ATOM     11  C   UNL     1     -13.483  11.107  30.573  0.00  0.00    +0.060 C 
ATOM     14  C   UNL     1     -12.057  10.549  30.470  0.00  0.00    +0.038 C 
ATOM     15  C   UNL     1     -14.212  10.968  29.230  0.00  0.00    +0.038 C 
ATOM     16  C   UNL     1     -11.295  11.206  29.319  0.00  0.00    +0.109 C 
ATOM     17  C   UNL     1     -13.407  11.615  28.104  0.00  0.00    +0.109 C 
ATOM     22  C   UNL     1     -11.543  10.549  26.874  0.00  0.00    +0.212 C 
ATOM     24  C   UNL     1     -10.116  10.063  26.899  0.00  0.00    +0.109 C 
ENDBRANCH   3  11
TORSDOF 2
ENDMDL
MODEL 8
REMARK VINA RESULT:      -7.7     24.718     27.076
REMARK  Name = 7156382
REMARK  3 active torsions:
REMARK  status: ('A' for Active; 'I' for Inactive)
REMARK    1  A    between atoms: N_3  and  C_11
REMARK    2  A    between atoms: C_20  and  C_23
REMARK    3  A    between atoms: C_22  and  C_24
REMARK                            x       y       z     vdW  Elec       q    Type
REMARK                         _______ _______ _______ _____ _____    ______ ____
ROOT
ATOM      1  O   UNL     1      12.233   7.784   2.576  0.00  0.00    -0.267 OA
ATOM      3  N   UNL     1      13.556   4.342  -0.823  0.00  0.00    -0.298 NA
ATOM      4  N   UNL     1      12.779   5.589   2.008  0.00  0.00    -0.311 N 
ATOM      6  C   UNL     1      15.076   4.929   1.083  0.00  0.00    +0.024 C 
ATOM      7  C   UNL     1      13.356   3.215   1.399  0.00  0.00    +0.050 C 
ATOM      8  C   UNL     1      14.793   3.587   1.747  0.00  0.00    +0.017 C 
ATOM      9  C   UNL     1      14.895   4.811  -0.445  0.00  0.00    +0.090 C 
ATOM     10  C   UNL     1      13.213   3.088  -0.135  0.00  0.00    +0.094 C 
ATOM     12  C   UNL     1      14.159   5.991   1.705  0.00  0.00    +0.130 C 
ATOM     13  C   UNL     1      12.385   4.251   1.938  0.00  0.00    +0.026 A 
ATOM     18  C   UNL     1      11.152   3.889   2.327  0.00  0.00    +0.022 A 
ATOM     19  C   UNL     1      11.912   6.599   2.468  0.00  0.00    +0.259 A 
ATOM     20  C   UNL     1      10.524   6.169   2.865  0.00  0.00    +0.047 A 
ATOM     21  C   UNL     1      10.209   4.867   2.791  0.00  0.00    +0.015 A 
ENDROOT
BRANCH  20  23
ATOM     23  C   UNL     1       9.522   7.149   3.318  0.00  0.00    -0.012 A 
ATOM     25  C   UNL     1       8.787   7.880   2.383  0.00  0.00    +0.017 A 
ATOM     26  C   UNL     1       9.305   7.344   4.679  0.00  0.00    +0.009 A 
ATOM     27  C   UNL     1       7.827   8.819   2.800  0.00  0.00    -0.017 A 
ATOM     28  C   UNL     1       8.356   8.271   5.111  0.00  0.00    +0.009 A 
ATOM     29  C   UNL     1       7.608   9.016   4.184  0.00  0.00    -0.018 A 
ATOM     30  C   UNL     1       7.080   9.563   1.874  0.00  0.00    +0.008 A 
ATOM     31  C   UNL     1       6.649   9.953   4.600  0.00  0.00    +0.008 A 
ATOM     32  C   UNL     1       6.131  10.489   2.304  0.00  0.00    +0.001 A 
ATOM     33  C   UNL     1       5.916  10.684   3.666  0.00  0.00    +0.001 A 
ENDBRANCH  20  23
BRANCH   3  11
ATOM      2  O   UNL     1      10.191   5.177  -5.885  0.00  0.00    -0.276 OA
ATOM      5  N   UNL     1      11.819   4.055  -4.665  0.00  0.00    -0.302 N 
ATOM     11  C   UNL     1      13.442   4.193  -2.271  0.00  0.00    +0.060 C 
ATOM     14  C   UNL     1      12.611   2.947  -2.608  0.00  0.00    +0.038 C 
ATOM     15  C   UNL     1      12.800   5.446  -2.881  0.00  0.00    +0.038 C 
ATOM     16  C   UNL     1      12.399   2.822  -4.117  0.00  0.00    +0.109 C 
ATOM     17  C   UNL     1      12.585   5.271  -4.384  0.00  0.00    +0.109 C 
ATOM     22  C   UNL     1      10.659   4.127  -5.435  0.00  0.00    +0.212 C 
ATOM     24  C   UNL     1       9.953   2.825  -5.718  0.00  0.00    +0.109 C 
ENDBRANCH   3  11
TORSDOF 2
ENDMDL
MODEL 9
REMARK VINA RESULT:      -7.6     28.451     31.367
REMARK  Name = 7156382
REMARK  3 active torsions:
REMARK  status: ('A' for Active; 'I' for Inactive)
REMARK    1  A    between atoms: N_3  and  C_11
REMARK    2  A    between atoms: C_20  and  C_23
REMARK    3  A    between atoms: C_22  and  C_24
REMARK                            x       y       z     vdW  Elec       q    Type
REMARK                         _______ _______ _______ _____ _____    ______ ____
ROOT
ATOM      1  O   UNL     1      16.602   5.846  19.121  0.00  0.00    -0.267 OA
ATOM      3  N   UNL     1      14.657  10.236  17.673  0.00  0.00    -0.298 NA
ATOM      4  N   UNL     1      15.380   7.779  19.575  0.00  0.00    -0.311 N 
ATOM      6  C   UNL     1      13.181   8.337  18.382  0.00  0.00    +0.024 C 
ATOM      7  C   UNL     1      14.068   9.870  20.074  0.00  0.00    +0.050 C 
ATOM      8  C   UNL     1      12.836   9.064  19.676  0.00  0.00    +0.017 C 
ATOM      9  C   UNL     1      13.546   9.359  17.284  0.00  0.00    +0.090 C 
ATOM     10  C   UNL     1      14.396  10.893  18.963  0.00  0.00    +0.094 C 
ATOM     12  C   UNL     1      14.314   7.341  18.662  0.00  0.00    +0.130 C 
ATOM     13  C   UNL     1      15.254   8.954  20.320  0.00  0.00    +0.026 A 
ATOM     18  C   UNL     1      16.186   9.278  21.230  0.00  0.00    +0.022 A 
ATOM     19  C   UNL     1      16.474   6.907  19.734  0.00  0.00    +0.259 A 
ATOM     20  C   UNL     1      17.520   7.313  20.738  0.00  0.00    +0.047 A 
ATOM     21  C   UNL     1      17.338   8.446  21.435  0.00  0.00    +0.015 A 
ENDROOT
BRANCH  20  23
ATOM     23  C   UNL     1      18.729   6.499  20.953  0.00  0.00    -0.012 A 
ATOM     25  C   UNL     1      19.533   6.721  22.072  0.00  0.00    +0.017 A 
ATOM     26  C   UNL     1      19.069   5.504  20.040  0.00  0.00    +0.009 A 
ATOM     27  C   UNL     1      20.688   5.952  22.290  0.00  0.00    -0.017 A 
ATOM     28  C   UNL     1      20.212   4.730  20.241  0.00  0.00    +0.009 A 
ATOM     29  C   UNL     1      21.032   4.942  21.361  0.00  0.00    -0.018 A 
ATOM     30  C   UNL     1      21.508   6.163  23.410  0.00  0.00    +0.008 A 
ATOM     31  C   UNL     1      22.186   4.173  21.580  0.00  0.00    +0.008 A 
ATOM     32  C   UNL     1      22.650   5.390  23.613  0.00  0.00    +0.001 A 
ATOM     33  C   UNL     1      22.990   4.396  22.698  0.00  0.00    +0.001 A 
ENDBRANCH  20  23
BRANCH   3  11
ATOM      2  O   UNL     1      12.579  14.813  14.155  0.00  0.00    -0.276 OA
ATOM      5  N   UNL     1      14.013  13.033  14.571  0.00  0.00    -0.302 N 
ATOM     11  C   UNL     1      14.937  11.221  16.631  0.00  0.00    +0.060 C 
ATOM     14  C   UNL     1      14.438  10.707  15.274  0.00  0.00    +0.038 C 
ATOM     15  C   UNL     1      14.268  12.558  16.977  0.00  0.00    +0.038 C 
ATOM     16  C   UNL     1      14.635  11.761  14.184  0.00  0.00    +0.109 C 
ATOM     17  C   UNL     1      14.469  13.574  15.854  0.00  0.00    +0.109 C 
ATOM     22  C   UNL     1      13.088  13.744  13.808  0.00  0.00    +0.212 C 
ATOM     24  C   UNL     1      12.704  13.144  12.479  0.00  0.00    +0.109 C 
ENDBRANCH   3  11
TORSDOF 2
ENDMDL
MODEL 10
REMARK VINA RESULT:      -7.5     18.862     22.537
REMARK  Name = 7156382
REMARK  3 active torsions:
REMARK  status: ('A' for Active; 'I' for Inactive)
REMARK    1  A    between atoms: N_3  and  C_11
REMARK    2  A    between atoms: C_20  and  C_23
REMARK    3  A    between atoms: C_22  and  C_24
REMARK                            x       y       z     vdW  Elec       q    Type
REMARK                         _______ _______ _______ _____ _____    ______ ____
ROOT
ATOM      1  O   UNL     1      -6.563   9.636   5.244  0.00  0.00    -0.267 OA
ATOM      3  N   UNL     1      -1.853  10.492   3.746  0.00  0.00    -0.298 NA
ATOM      4  N   UNL     1      -4.264   9.326   5.480  0.00  0.00    -0.311 N 
ATOM      6  C   UNL     1      -2.654  11.251   5.998  0.00  0.00    +0.024 C 
ATOM      7  C   UNL     1      -1.783   8.977   5.733  0.00  0.00    +0.050 C 
ATOM      8  C   UNL     1      -1.819  10.174   6.679  0.00  0.00    +0.017 C 
ATOM      9  C   UNL     1      -2.015  11.639   4.648  0.00  0.00    +0.090 C 
ATOM     10  C   UNL     1      -1.123   9.395   4.399  0.00  0.00    +0.094 C 
ATOM     12  C   UNL     1      -4.092  10.739   5.844  0.00  0.00    +0.130 C 
ATOM     13  C   UNL     1      -3.183   8.442   5.488  0.00  0.00    +0.026 A 
ATOM     18  C   UNL     1      -3.379   7.133   5.262  0.00  0.00    +0.022 A 
ATOM     19  C   UNL     1      -5.580   8.893   5.226  0.00  0.00    +0.259 A 
ATOM     20  C   UNL     1      -5.766   7.426   4.942  0.00  0.00    +0.047 A 
ATOM     21  C   UNL     1      -4.691   6.623   4.979  0.00  0.00    +0.015 A 
ENDROOT
BRANCH  20  23
ATOM     23  C   UNL     1      -7.092   6.873   4.619  0.00  0.00    -0.012 A 
ATOM     25  C   UNL     1      -7.790   7.337   3.503  0.00  0.00    +0.017 A 
ATOM     26  C   UNL     1      -7.650   5.886   5.427  0.00  0.00    +0.009 A 
ATOM     27  C   UNL     1      -9.057   6.819   3.182  0.00  0.00    -0.017 A 
ATOM     28  C   UNL     1      -8.906   5.360   5.124  0.00  0.00    +0.009 A 
ATOM     29  C   UNL     1      -9.622   5.815   4.005  0.00  0.00    -0.018 A 
ATOM     30  C   UNL     1      -9.773   7.274   2.064  0.00  0.00    +0.008 A 
ATOM     31  C   UNL     1     -10.887   5.297   3.683  0.00  0.00    +0.008 A 
ATOM     32  C   UNL     1     -11.028   6.748   1.759  0.00  0.00    +0.001 A 
ATOM     33  C   UNL     1     -11.585   5.762   2.568  0.00  0.00    +0.001 A 
ENDBRANCH  20  23
BRANCH   3  11
ATOM      2  O   UNL     1      -2.436  12.257  -2.101  0.00  0.00    -0.276 OA
ATOM      5  N   UNL     1      -1.261  11.247  -0.370  0.00  0.00    -0.302 N 
ATOM     11  C   UNL     1      -1.198  10.890   2.503  0.00  0.00    +0.060 C 
ATOM     14  C   UNL     1      -1.122   9.695   1.543  0.00  0.00    +0.038 C 
ATOM     15  C   UNL     1      -1.963  12.051   1.853  0.00  0.00    +0.038 C 
ATOM     16  C   UNL     1      -0.524  10.111   0.198  0.00  0.00    +0.109 C 
ATOM     17  C   UNL     1      -1.349  12.420   0.503  0.00  0.00    +0.109 C 
ATOM     22  C   UNL     1      -1.821  11.289  -1.646  0.00  0.00    +0.212 C 
ATOM     24  C   UNL     1      -1.649  10.058  -2.500  0.00  0.00    +0.109 C 
ENDBRANCH   3  11
TORSDOF 2
ENDMDL
