MODEL 1
REMARK VINA RESULT:      -7.1      0.000      0.000
REMARK  Name = 11884070
REMARK  9 active torsions:
REMARK  status: ('A' for Active; 'I' for Inactive)
REMARK    1  A    between atoms: O_3  and  C_14
REMARK    2  A    between atoms: O_3  and  C_18
REMARK    3  A    between atoms: O_6  and  C_30
REMARK    4  A    between atoms: O_6  and  C_33
REMARK    5  A    between atoms: N_8  and  C_13
REMARK    6  A    between atoms: N_9  and  C_19
REMARK    7  A    between atoms: N_10  and  C_20
REMARK    8  A    between atoms: C_27  and  C_31
REMARK    9  A    between atoms: C_31  and  C_32
REMARK                            x       y       z     vdW  Elec       q    Type
REMARK                         _______ _______ _______ _____ _____    ______ ____
ROOT
ATOM      1  O   UNL     1     -16.910   5.763  24.227  0.00  0.00    -0.368 OA
ATOM      2  O   UNL     1     -17.155   3.093  22.738  0.00  0.00    -0.368 OA
ATOM     11  C   UNL     1     -16.207   3.555  23.723  0.00  0.00    +0.173 C 
ATOM     12  C   UNL     1     -15.961   5.023  23.441  0.00  0.00    +0.192 C 
ATOM     13  C   UNL     1     -16.840   3.551  25.095  0.00  0.00    +0.131 C 
ATOM     14  C   UNL     1     -16.256   5.126  21.964  0.00  0.00    +0.235 C 
ATOM     15  C   UNL     1     -17.609   4.861  25.099  0.00  0.00    +0.185 C 
ATOM     16  C   UNL     1     -17.399   4.150  21.799  0.00  0.00    +0.207 C 
ENDROOT
BRANCH  13   8
ATOM      4  O   UNL     1     -17.284   3.107  27.891  0.00  0.00    -0.252 OA
ATOM      8  N   UNL     1     -15.839   3.527  26.134  0.00  0.00    -0.292 N 
ATOM      9  N   UNL     1     -14.976   3.334  28.254  0.00  0.00    -0.269 N 
ATOM     17  C   UNL     1     -16.142   3.302  27.483  0.00  0.00    +0.304 C 
ATOM     34  H   UNL     1     -14.864   3.612  25.867  0.00  0.00    +0.151 HD
ATOM     35  H   UNL     1     -14.105   3.510  27.759  0.00  0.00    +0.156 HD
BRANCH   9  19
ATOM     19  C   UNL     1     -14.855   3.154  29.652  0.00  0.00    +0.035 A 
ATOM     21  C   UNL     1     -15.223   4.180  30.522  0.00  0.00    +0.024 A 
ATOM     22  C   UNL     1     -14.366   1.951  30.160  0.00  0.00    +0.024 A 
ATOM     25  C   UNL     1     -15.103   4.003  31.900  0.00  0.00    +0.013 A 
ATOM     26  C   UNL     1     -14.245   1.773  31.538  0.00  0.00    +0.013 A 
ATOM     27  C   UNL     1     -14.614   2.799  32.408  0.00  0.00    +0.017 A 
BRANCH  27  31
ATOM      7  O   UNL     1     -14.443   1.476  34.354  0.00  0.00    -0.292 OA
ATOM     31  C   UNL     1     -14.489   2.614  33.845  0.00  0.00    +0.160 C 
ATOM     32  C   UNL     1     -14.413   3.823  34.772  0.00  0.00    +0.091 C 
ENDBRANCH  27  31
ENDBRANCH   9  19
ENDBRANCH  13   8
BRANCH  14   3
ATOM      3  O   UNL     1     -16.605   6.427  21.548  0.00  0.00    -0.442 OA
BRANCH   3  18
ATOM      5  O   UNL     1     -15.467   8.329  22.113  0.00  0.00    -0.226 OA
ATOM     10  N   UNL     1     -14.741   6.929  20.383  0.00  0.00    -0.251 N 
ATOM     18  C   UNL     1     -15.575   7.334  21.407  0.00  0.00    +0.405 C 
ATOM     36  H   UNL     1     -14.997   6.066  19.908  0.00  0.00    +0.158 HD
BRANCH  10  20
ATOM     20  C   UNL     1     -13.571   7.567  19.910  0.00  0.00    +0.037 A 
ATOM     23  C   UNL     1     -12.325   7.211  20.428  0.00  0.00    +0.027 A 
ATOM     24  C   UNL     1     -13.663   8.550  18.925  0.00  0.00    +0.027 A 
ATOM     28  C   UNL     1     -11.171   7.839  19.960  0.00  0.00    +0.047 A 
ATOM     29  C   UNL     1     -12.507   9.178  18.457  0.00  0.00    +0.047 A 
ATOM     30  C   UNL     1     -11.262   8.823  18.975  0.00  0.00    +0.120 A 
BRANCH  30   6
ATOM      6  O   UNL     1     -10.135   9.434  18.518  0.00  0.00    -0.495 OA
ATOM     33  C   UNL     1      -9.971   9.516  17.103  0.00  0.00    +0.277 C 
ENDBRANCH  30   6
ENDBRANCH  10  20
ENDBRANCH   3  18
ENDBRANCH  14   3
TORSDOF 7
ENDMDL
MODEL 2
REMARK VINA RESULT:      -7.0     18.442     20.002
REMARK  Name = 11884070
REMARK  9 active torsions:
REMARK  status: ('A' for Active; 'I' for Inactive)
REMARK    1  A    between atoms: O_3  and  C_14
REMARK    2  A    between atoms: O_3  and  C_18
REMARK    3  A    between atoms: O_6  and  C_30
REMARK    4  A    between atoms: O_6  and  C_33
REMARK    5  A    between atoms: N_8  and  C_13
REMARK    6  A    between atoms: N_9  and  C_19
REMARK    7  A    between atoms: N_10  and  C_20
REMARK    8  A    between atoms: C_27  and  C_31
REMARK    9  A    between atoms: C_31  and  C_32
REMARK                            x       y       z     vdW  Elec       q    Type
REMARK                         _______ _______ _______ _____ _____    ______ ____
ROOT
ATOM      1  O   UNL     1      -6.305 -12.173  17.498  0.00  0.00    -0.368 OA
ATOM      2  O   UNL     1      -4.930 -11.674  20.193  0.00  0.00    -0.368 OA
ATOM     11  C   UNL     1      -5.927 -10.918  19.474  0.00  0.00    +0.173 C 
ATOM     12  C   UNL     1      -5.588 -11.035  18.001  0.00  0.00    +0.192 C 
ATOM     13  C   UNL     1      -7.274 -11.592  19.589  0.00  0.00    +0.131 C 
ATOM     14  C   UNL     1      -4.098 -11.278  18.027  0.00  0.00    +0.235 C 
ATOM     15  C   UNL     1      -7.191 -12.664  18.516  0.00  0.00    +0.185 C 
ATOM     16  C   UNL     1      -3.936 -12.132  19.265  0.00  0.00    +0.207 C 
ENDROOT
BRANCH  13   8
ATOM      4  O   UNL     1     -10.055 -11.990  20.150  0.00  0.00    -0.252 OA
ATOM      8  N   UNL     1      -8.348 -10.666  19.325  0.00  0.00    -0.292 N 
ATOM      9  N   UNL     1     -10.499  -9.862  19.264  0.00  0.00    -0.269 N 
ATOM     17  C   UNL     1      -9.687 -10.939  19.631  0.00  0.00    +0.304 C 
ATOM     34  H   UNL     1      -8.115  -9.749  18.960  0.00  0.00    +0.151 HD
ATOM     35  H   UNL     1     -10.034  -9.062  18.841  0.00  0.00    +0.156 HD
BRANCH   9  19
ATOM     19  C   UNL     1     -11.901  -9.745  19.405  0.00  0.00    +0.035 A 
ATOM     21  C   UNL     1     -12.712  -9.669  18.272  0.00  0.00    +0.024 A 
ATOM     22  C   UNL     1     -12.473  -9.703  20.676  0.00  0.00    +0.024 A 
ATOM     25  C   UNL     1     -14.096  -9.552  18.411  0.00  0.00    +0.013 A 
ATOM     26  C   UNL     1     -13.856  -9.587  20.815  0.00  0.00    +0.013 A 
ATOM     27  C   UNL     1     -14.667  -9.511  19.683  0.00  0.00    +0.017 A 
BRANCH  27  31
ATOM      7  O   UNL     1     -16.871  -9.459  18.843  0.00  0.00    -0.292 OA
ATOM     31  C   UNL     1     -16.109  -9.390  19.828  0.00  0.00    +0.160 C 
ATOM     32  C   UNL     1     -16.728  -9.173  21.205  0.00  0.00    +0.091 C 
ENDBRANCH  27  31
ENDBRANCH   9  19
ENDBRANCH  13   8
BRANCH  14   3
ATOM      3  O   UNL     1      -3.612 -11.922  16.871  0.00  0.00    -0.442 OA
BRANCH   3  18
ATOM      5  O   UNL     1      -2.305 -10.261  15.996  0.00  0.00    -0.226 OA
ATOM     10  N   UNL     1      -3.858 -11.425  14.685  0.00  0.00    -0.251 N 
ATOM     18  C   UNL     1      -3.174 -11.112  15.844  0.00  0.00    +0.405 C 
ATOM     36  H   UNL     1      -4.548 -12.169  14.758  0.00  0.00    +0.158 HD
BRANCH  10  20
ATOM     20  C   UNL     1      -3.717 -10.839  13.407  0.00  0.00    +0.037 A 
ATOM     23  C   UNL     1      -2.476 -10.851  12.768  0.00  0.00    +0.027 A 
ATOM     24  C   UNL     1      -4.818 -10.252  12.784  0.00  0.00    +0.027 A 
ATOM     28  C   UNL     1      -2.338 -10.274  11.505  0.00  0.00    +0.047 A 
ATOM     29  C   UNL     1      -4.678  -9.675  11.520  0.00  0.00    +0.047 A 
ATOM     30  C   UNL     1      -3.439  -9.686  10.882  0.00  0.00    +0.120 A 
BRANCH  30   6
ATOM      6  O   UNL     1      -3.303  -9.126   9.649  0.00  0.00    -0.495 OA
ATOM     33  C   UNL     1      -4.472  -9.060   8.834  0.00  0.00    +0.277 C 
ENDBRANCH  30   6
ENDBRANCH  10  20
ENDBRANCH   3  18
ENDBRANCH  14   3
TORSDOF 7
ENDMDL
MODEL 3
REMARK VINA RESULT:      -7.0     16.572     19.677
REMARK  Name = 11884070
REMARK  9 active torsions:
REMARK  status: ('A' for Active; 'I' for Inactive)
REMARK    1  A    between atoms: O_3  and  C_14
REMARK    2  A    between atoms: O_3  and  C_18
REMARK    3  A    between atoms: O_6  and  C_30
REMARK    4  A    between atoms: O_6  and  C_33
REMARK    5  A    between atoms: N_8  and  C_13
REMARK    6  A    between atoms: N_9  and  C_19
REMARK    7  A    between atoms: N_10  and  C_20
REMARK    8  A    between atoms: C_27  and  C_31
REMARK    9  A    between atoms: C_31  and  C_32
REMARK                            x       y       z     vdW  Elec       q    Type
REMARK                         _______ _______ _______ _____ _____    ______ ____
ROOT
ATOM      1  O   UNL     1      -9.634  -9.246  15.260  0.00  0.00    -0.368 OA
ATOM      2  O   UNL     1     -10.460  -8.942  18.197  0.00  0.00    -0.368 OA
ATOM     11  C   UNL     1     -10.198  -7.961  17.171  0.00  0.00    +0.173 C 
ATOM     12  C   UNL     1      -9.051  -8.494  16.337  0.00  0.00    +0.192 C 
ATOM     13  C   UNL     1     -11.355  -7.903  16.201  0.00  0.00    +0.131 C 
ATOM     14  C   UNL     1      -8.324  -9.387  17.314  0.00  0.00    +0.235 C 
ATOM     15  C   UNL     1     -11.059  -9.072  15.277  0.00  0.00    +0.185 C 
ATOM     16  C   UNL     1      -9.463  -9.970  18.120  0.00  0.00    +0.207 C 
ENDROOT
BRANCH  13   8
ATOM      4  O   UNL     1     -13.250  -7.103  14.207  0.00  0.00    -0.252 OA
ATOM      8  N   UNL     1     -11.372  -6.655  15.478  0.00  0.00    -0.292 N 
ATOM      9  N   UNL     1     -12.102  -5.068  13.986  0.00  0.00    -0.269 N 
ATOM     17  C   UNL     1     -12.339  -6.340  14.516  0.00  0.00    +0.304 C 
ATOM     34  H   UNL     1     -10.691  -5.945  15.727  0.00  0.00    +0.151 HD
ATOM     35  H   UNL     1     -11.298  -4.563  14.351  0.00  0.00    +0.156 HD
BRANCH   9  19
ATOM     19  C   UNL     1     -12.847  -4.388  12.995  0.00  0.00    +0.035 A 
ATOM     21  C   UNL     1     -12.289  -4.159  11.738  0.00  0.00    +0.024 A 
ATOM     22  C   UNL     1     -14.139  -3.945  13.276  0.00  0.00    +0.024 A 
ATOM     25  C   UNL     1     -13.023  -3.487  10.760  0.00  0.00    +0.013 A 
ATOM     26  C   UNL     1     -14.874  -3.273  12.298  0.00  0.00    +0.013 A 
ATOM     27  C   UNL     1     -14.316  -3.045  11.041  0.00  0.00    +0.017 A 
BRANCH  27  31
ATOM      7  O   UNL     1     -14.839  -2.494   8.807  0.00  0.00    -0.292 OA
ATOM     31  C   UNL     1     -15.081  -2.345  10.021  0.00  0.00    +0.160 C 
ATOM     32  C   UNL     1     -16.211  -1.401  10.421  0.00  0.00    +0.091 C 
ENDBRANCH  27  31
ENDBRANCH   9  19
ENDBRANCH  13   8
BRANCH  14   3
ATOM      3  O   UNL     1      -7.547 -10.386  16.693  0.00  0.00    -0.442 OA
BRANCH   3  18
ATOM      5  O   UNL     1      -5.505  -9.410  16.364  0.00  0.00    -0.226 OA
ATOM     10  N   UNL     1      -6.766 -10.256  14.581  0.00  0.00    -0.251 N 
ATOM     18  C   UNL     1      -6.499  -9.960  15.904  0.00  0.00    +0.405 C 
ATOM     36  H   UNL     1      -7.651 -10.720  14.395  0.00  0.00    +0.158 HD
BRANCH  10  20
ATOM     20  C   UNL     1      -5.959  -9.993  13.451  0.00  0.00    +0.037 A 
ATOM     23  C   UNL     1      -4.689 -10.564  13.353  0.00  0.00    +0.027 A 
ATOM     24  C   UNL     1      -6.432  -9.165  12.434  0.00  0.00    +0.027 A 
ATOM     28  C   UNL     1      -3.894 -10.306  12.237  0.00  0.00    +0.047 A 
ATOM     29  C   UNL     1      -5.635  -8.907  11.317  0.00  0.00    +0.047 A 
ATOM     30  C   UNL     1      -4.366  -9.477  11.219  0.00  0.00    +0.120 A 
BRANCH  30   6
ATOM      6  O   UNL     1      -3.590  -9.228  10.130  0.00  0.00    -0.495 OA
ATOM     33  C   UNL     1      -4.251  -9.144   8.868  0.00  0.00    +0.277 C 
ENDBRANCH  30   6
ENDBRANCH  10  20
ENDBRANCH   3  18
ENDBRANCH  14   3
TORSDOF 7
ENDMDL
MODEL 4
REMARK VINA RESULT:      -6.9     18.127     20.342
REMARK  Name = 11884070
REMARK  9 active torsions:
REMARK  status: ('A' for Active; 'I' for Inactive)
REMARK    1  A    between atoms: O_3  and  C_14
REMARK    2  A    between atoms: O_3  and  C_18
REMARK    3  A    between atoms: O_6  and  C_30
REMARK    4  A    between atoms: O_6  and  C_33
REMARK    5  A    between atoms: N_8  and  C_13
REMARK    6  A    between atoms: N_9  and  C_19
REMARK    7  A    between atoms: N_10  and  C_20
REMARK    8  A    between atoms: C_27  and  C_31
REMARK    9  A    between atoms: C_31  and  C_32
REMARK                            x       y       z     vdW  Elec       q    Type
REMARK                         _______ _______ _______ _____ _____    ______ ____
ROOT
ATOM      1  O   UNL     1      -6.312 -11.215  16.763  0.00  0.00    -0.368 OA
ATOM      2  O   UNL     1      -5.882 -11.468  19.788  0.00  0.00    -0.368 OA
ATOM     11  C   UNL     1      -6.280 -10.348  18.970  0.00  0.00    +0.173 C 
ATOM     12  C   UNL     1      -5.502 -10.454  17.673  0.00  0.00    +0.192 C 
ATOM     13  C   UNL     1      -7.721 -10.505  18.541  0.00  0.00    +0.131 C 
ATOM     14  C   UNL     1      -4.267 -11.214  18.095  0.00  0.00    +0.235 C 
ATOM     15  C   UNL     1      -7.602 -11.441  17.350  0.00  0.00    +0.185 C 
ATOM     16  C   UNL     1      -4.819 -12.170  19.128  0.00  0.00    +0.207 C 
ENDROOT
BRANCH  13   8
ATOM      4  O   UNL     1     -10.084 -10.099  16.974  0.00  0.00    -0.252 OA
ATOM      8  N   UNL     1      -8.294  -9.238  18.157  0.00  0.00    -0.292 N 
ATOM      9  N   UNL     1      -9.774  -7.781  17.174  0.00  0.00    -0.269 N 
ATOM     17  C   UNL     1      -9.458  -9.127  17.387  0.00  0.00    +0.304 C 
ATOM     34  H   UNL     1      -7.872  -8.389  18.517  0.00  0.00    +0.151 HD
ATOM     35  H   UNL     1      -9.146  -7.094  17.586  0.00  0.00    +0.156 HD
BRANCH   9  19
ATOM     19  C   UNL     1     -10.866  -7.250  16.450  0.00  0.00    +0.035 A 
ATOM     21  C   UNL     1     -12.143  -7.784  16.622  0.00  0.00    +0.024 A 
ATOM     22  C   UNL     1     -10.666  -6.194  15.562  0.00  0.00    +0.024 A 
ATOM     25  C   UNL     1     -13.220  -7.261  15.907  0.00  0.00    +0.013 A 
ATOM     26  C   UNL     1     -11.743  -5.670  14.846  0.00  0.00    +0.013 A 
ATOM     27  C   UNL     1     -13.020  -6.204  15.019  0.00  0.00    +0.017 A 
BRANCH  27  31
ATOM      7  O   UNL     1     -15.315  -6.020  14.503  0.00  0.00    -0.292 OA
ATOM     31  C   UNL     1     -14.143  -5.658  14.274  0.00  0.00    +0.160 C 
ATOM     32  C   UNL     1     -13.909  -4.620  13.181  0.00  0.00    +0.091 C 
ENDBRANCH  27  31
ENDBRANCH   9  19
ENDBRANCH  13   8
BRANCH  14   3
ATOM      3  O   UNL     1      -3.632 -11.889  17.033  0.00  0.00    -0.442 OA
BRANCH   3  18
ATOM      5  O   UNL     1      -2.261 -10.289  16.142  0.00  0.00    -0.226 OA
ATOM     10  N   UNL     1      -3.840 -11.423  14.836  0.00  0.00    -0.251 N 
ATOM     18  C   UNL     1      -3.157 -11.113  15.996  0.00  0.00    +0.405 C 
ATOM     36  H   UNL     1      -4.555 -12.142  14.914  0.00  0.00    +0.158 HD
BRANCH  10  20
ATOM     20  C   UNL     1      -3.667 -10.865  13.549  0.00  0.00    +0.037 A 
ATOM     23  C   UNL     1      -2.411 -10.892  12.941  0.00  0.00    +0.027 A 
ATOM     24  C   UNL     1      -4.751 -10.290  12.887  0.00  0.00    +0.027 A 
ATOM     28  C   UNL     1      -2.242 -10.342  11.670  0.00  0.00    +0.047 A 
ATOM     29  C   UNL     1      -4.580  -9.741  11.615  0.00  0.00    +0.047 A 
ATOM     30  C   UNL     1      -3.325  -9.767  11.007  0.00  0.00    +0.120 A 
BRANCH  30   6
ATOM      6  O   UNL     1      -3.159  -9.234   9.766  0.00  0.00    -0.495 OA
ATOM     33  C   UNL     1      -4.339  -8.980   9.006  0.00  0.00    +0.277 C 
ENDBRANCH  30   6
ENDBRANCH  10  20
ENDBRANCH   3  18
ENDBRANCH  14   3
TORSDOF 7
ENDMDL
MODEL 5
REMARK VINA RESULT:      -6.8     31.287     35.943
REMARK  Name = 11884070
REMARK  9 active torsions:
REMARK  status: ('A' for Active; 'I' for Inactive)
REMARK    1  A    between atoms: O_3  and  C_14
REMARK    2  A    between atoms: O_3  and  C_18
REMARK    3  A    between atoms: O_6  and  C_30
REMARK    4  A    between atoms: O_6  and  C_33
REMARK    5  A    between atoms: N_8  and  C_13
REMARK    6  A    between atoms: N_9  and  C_19
REMARK    7  A    between atoms: N_10  and  C_20
REMARK    8  A    between atoms: C_27  and  C_31
REMARK    9  A    between atoms: C_31  and  C_32
REMARK                            x       y       z     vdW  Elec       q    Type
REMARK                         _______ _______ _______ _____ _____    ______ ____
ROOT
ATOM      1  O   UNL     1      21.057   5.114  22.663  0.00  0.00    -0.368 OA
ATOM      2  O   UNL     1      22.965   5.985  20.426  0.00  0.00    -0.368 OA
ATOM     11  C   UNL     1      21.657   5.378  20.384  0.00  0.00    +0.173 C 
ATOM     12  C   UNL     1      21.590   4.398  21.537  0.00  0.00    +0.192 C 
ATOM     13  C   UNL     1      20.598   6.403  20.719  0.00  0.00    +0.131 C 
ATOM     14  C   UNL     1      23.042   4.035  21.741  0.00  0.00    +0.235 C 
ATOM     15  C   UNL     1      20.634   6.419  22.237  0.00  0.00    +0.185 C 
ATOM     16  C   UNL     1      23.741   5.343  21.448  0.00  0.00    +0.207 C 
ENDROOT
BRANCH  13   8
ATOM      4  O   UNL     1      18.163   7.905  20.868  0.00  0.00    -0.252 OA
ATOM      8  N   UNL     1      19.303   5.998  20.229  0.00  0.00    -0.292 N 
ATOM      9  N   UNL     1      17.055   6.146  19.779  0.00  0.00    -0.269 N 
ATOM     17  C   UNL     1      18.158   6.796  20.341  0.00  0.00    +0.304 C 
ATOM     34  H   UNL     1      19.232   5.122  19.720  0.00  0.00    +0.151 HD
ATOM     35  H   UNL     1      17.221   5.223  19.384  0.00  0.00    +0.156 HD
BRANCH   9  19
ATOM     19  C   UNL     1      15.723   6.613  19.693  0.00  0.00    +0.035 A 
ATOM     21  C   UNL     1      14.900   6.584  20.819  0.00  0.00    +0.024 A 
ATOM     22  C   UNL     1      15.232   7.102  18.483  0.00  0.00    +0.024 A 
ATOM     25  C   UNL     1      13.585   7.045  20.734  0.00  0.00    +0.013 A 
ATOM     26  C   UNL     1      13.919   7.563  18.398  0.00  0.00    +0.013 A 
ATOM     27  C   UNL     1      13.095   7.534  19.524  0.00  0.00    +0.017 A 
BRANCH  27  31
ATOM      7  O   UNL     1      11.202   8.295  18.339  0.00  0.00    -0.292 OA
ATOM     31  C   UNL     1      11.725   8.014  19.436  0.00  0.00    +0.160 C 
ATOM     32  C   UNL     1      10.889   8.188  20.699  0.00  0.00    +0.091 C 
ENDBRANCH  27  31
ENDBRANCH   9  19
ENDBRANCH  13   8
BRANCH  14   3
ATOM      3  O   UNL     1      23.327   3.560  23.038  0.00  0.00    -0.442 OA
BRANCH   3  18
ATOM      5  O   UNL     1      23.849   1.444  22.344  0.00  0.00    -0.226 OA
ATOM     10  N   UNL     1      22.877   1.849  24.436  0.00  0.00    -0.251 N 
ATOM     18  C   UNL     1      23.392   2.192  23.201  0.00  0.00    +0.405 C 
ATOM     36  H   UNL     1      22.543   2.617  25.013  0.00  0.00    +0.158 HD
BRANCH  10  20
ATOM     20  C   UNL     1      22.756   0.558  25.000  0.00  0.00    +0.037 A 
ATOM     23  C   UNL     1      21.495   0.050  25.313  0.00  0.00    +0.027 A 
ATOM     24  C   UNL     1      23.897  -0.207  25.240  0.00  0.00    +0.027 A 
ATOM     28  C   UNL     1      21.376  -1.224  25.868  0.00  0.00    +0.047 A 
ATOM     29  C   UNL     1      23.777  -1.482  25.795  0.00  0.00    +0.047 A 
ATOM     30  C   UNL     1      22.517  -1.990  26.110  0.00  0.00    +0.120 A 
BRANCH  30   6
ATOM      6  O   UNL     1      22.399  -3.234  26.649  0.00  0.00    -0.495 OA
ATOM     33  C   UNL     1      21.427  -3.405  27.679  0.00  0.00    +0.277 C 
ENDBRANCH  30   6
ENDBRANCH  10  20
ENDBRANCH   3  18
ENDBRANCH  14   3
TORSDOF 7
ENDMDL
MODEL 6
REMARK VINA RESULT:      -6.6     20.055     21.530
REMARK  Name = 11884070
REMARK  9 active torsions:
REMARK  status: ('A' for Active; 'I' for Inactive)
REMARK    1  A    between atoms: O_3  and  C_14
REMARK    2  A    between atoms: O_3  and  C_18
REMARK    3  A    between atoms: O_6  and  C_30
REMARK    4  A    between atoms: O_6  and  C_33
REMARK    5  A    between atoms: N_8  and  C_13
REMARK    6  A    between atoms: N_9  and  C_19
REMARK    7  A    between atoms: N_10  and  C_20
REMARK    8  A    between atoms: C_27  and  C_31
REMARK    9  A    between atoms: C_31  and  C_32
REMARK                            x       y       z     vdW  Elec       q    Type
REMARK                         _______ _______ _______ _____ _____    ______ ____
ROOT
ATOM      1  O   UNL     1      -3.986 -12.143  14.627  0.00  0.00    -0.368 OA
ATOM      2  O   UNL     1      -2.169 -10.792  16.695  0.00  0.00    -0.368 OA
ATOM     11  C   UNL     1      -3.509 -10.487  16.255  0.00  0.00    +0.173 C 
ATOM     12  C   UNL     1      -3.561 -10.778  14.769  0.00  0.00    +0.192 C 
ATOM     13  C   UNL     1      -4.488 -11.471  16.851  0.00  0.00    +0.131 C 
ATOM     14  C   UNL     1      -2.122 -10.593  14.350  0.00  0.00    +0.235 C 
ATOM     15  C   UNL     1      -4.361 -12.660  15.914  0.00  0.00    +0.185 C 
ATOM     16  C   UNL     1      -1.370 -11.124  15.550  0.00  0.00    +0.207 C 
ENDROOT
BRANCH  13   8
ATOM      4  O   UNL     1      -6.518 -11.945  18.816  0.00  0.00    -0.252 OA
ATOM      8  N   UNL     1      -5.830 -10.942  16.850  0.00  0.00    -0.292 N 
ATOM      9  N   UNL     1      -7.974 -10.575  17.587  0.00  0.00    -0.269 N 
ATOM     17  C   UNL     1      -6.765 -11.224  17.853  0.00  0.00    +0.304 C 
ATOM     34  H   UNL     1      -6.088 -10.283  16.122  0.00  0.00    +0.151 HD
ATOM     35  H   UNL     1      -8.015 -10.013  16.740  0.00  0.00    +0.156 HD
BRANCH   9  19
ATOM     19  C   UNL     1      -9.162 -10.604  18.354  0.00  0.00    +0.035 A 
ATOM     21  C   UNL     1      -9.325 -11.567  19.350  0.00  0.00    +0.024 A 
ATOM     22  C   UNL     1     -10.171  -9.671  18.114  0.00  0.00    +0.024 A 
ATOM     25  C   UNL     1     -10.497 -11.597  20.107  0.00  0.00    +0.013 A 
ATOM     26  C   UNL     1     -11.343  -9.701  18.870  0.00  0.00    +0.013 A 
ATOM     27  C   UNL     1     -11.505 -10.664  19.866  0.00  0.00    +0.017 A 
BRANCH  27  31
ATOM      7  O   UNL     1     -12.996 -11.656  21.402  0.00  0.00    -0.292 OA
ATOM     31  C   UNL     1     -12.727 -10.694  20.655  0.00  0.00    +0.160 C 
ATOM     32  C   UNL     1     -13.717  -9.536  20.584  0.00  0.00    +0.091 C 
ENDBRANCH  27  31
ENDBRANCH   9  19
ENDBRANCH  13   8
BRANCH  14   3
ATOM      3  O   UNL     1      -1.787 -11.283  13.167  0.00  0.00    -0.442 OA
BRANCH   3  18
ATOM      5  O   UNL     1      -1.336  -9.774  11.508  0.00  0.00    -0.226 OA
ATOM     10  N   UNL     1      -3.233 -11.146  11.441  0.00  0.00    -0.251 N 
ATOM     18  C   UNL     1      -2.061 -10.645  11.974  0.00  0.00    +0.405 C 
ATOM     36  H   UNL     1      -3.696 -11.874  11.979  0.00  0.00    +0.158 HD
BRANCH  10  20
ATOM     20  C   UNL     1      -3.869 -10.772  10.236  0.00  0.00    +0.037 A 
ATOM     23  C   UNL     1      -4.292  -9.455  10.050  0.00  0.00    +0.027 A 
ATOM     24  C   UNL     1      -4.073 -11.718   9.232  0.00  0.00    +0.027 A 
ATOM     28  C   UNL     1      -4.918  -9.086   8.860  0.00  0.00    +0.047 A 
ATOM     29  C   UNL     1      -4.700 -11.348   8.041  0.00  0.00    +0.047 A 
ATOM     30  C   UNL     1      -5.123 -10.032   7.856  0.00  0.00    +0.120 A 
BRANCH  30   6
ATOM      6  O   UNL     1      -5.732  -9.670   6.694  0.00  0.00    -0.495 OA
ATOM     33  C   UNL     1      -6.502 -10.668   6.027  0.00  0.00    +0.277 C 
ENDBRANCH  30   6
ENDBRANCH  10  20
ENDBRANCH   3  18
ENDBRANCH  14   3
TORSDOF 7
ENDMDL
MODEL 7
REMARK VINA RESULT:      -6.5     18.476     20.329
REMARK  Name = 11884070
REMARK  9 active torsions:
REMARK  status: ('A' for Active; 'I' for Inactive)
REMARK    1  A    between atoms: O_3  and  C_14
REMARK    2  A    between atoms: O_3  and  C_18
REMARK    3  A    between atoms: O_6  and  C_30
REMARK    4  A    between atoms: O_6  and  C_33
REMARK    5  A    between atoms: N_8  and  C_13
REMARK    6  A    between atoms: N_9  and  C_19
REMARK    7  A    between atoms: N_10  and  C_20
REMARK    8  A    between atoms: C_27  and  C_31
REMARK    9  A    between atoms: C_31  and  C_32
REMARK                            x       y       z     vdW  Elec       q    Type
REMARK                         _______ _______ _______ _____ _____    ______ ____
ROOT
ATOM      1  O   UNL     1      -8.806  -8.393   9.861  0.00  0.00    -0.368 OA
ATOM      2  O   UNL     1      -6.777  -9.674   7.950  0.00  0.00    -0.368 OA
ATOM     11  C   UNL     1      -6.605  -8.991   9.210  0.00  0.00    +0.173 C 
ATOM     12  C   UNL     1      -7.621  -7.866   9.242  0.00  0.00    +0.192 C 
ATOM     13  C   UNL     1      -7.025  -9.890  10.349  0.00  0.00    +0.131 C 
ATOM     14  C   UNL     1      -7.836  -7.578   7.775  0.00  0.00    +0.235 C 
ATOM     15  C   UNL     1      -8.533  -9.711  10.362  0.00  0.00    +0.185 C 
ATOM     16  C   UNL     1      -7.740  -8.957   7.163  0.00  0.00    +0.207 C 
ENDROOT
BRANCH  13   8
ATOM      4  O   UNL     1      -6.950 -11.371  12.800  0.00  0.00    -0.252 OA
ATOM      8  N   UNL     1      -6.435  -9.466  11.596  0.00  0.00    -0.292 N 
ATOM      9  N   UNL     1      -5.799  -9.587  13.800  0.00  0.00    -0.269 N 
ATOM     17  C   UNL     1      -6.441 -10.255  12.753  0.00  0.00    +0.304 C 
ATOM     34  H   UNL     1      -5.935  -8.583  11.617  0.00  0.00    +0.151 HD
ATOM     35  H   UNL     1      -5.431  -8.661  13.594  0.00  0.00    +0.156 HD
BRANCH   9  19
ATOM     19  C   UNL     1      -5.596 -10.041  15.124  0.00  0.00    +0.035 A 
ATOM     21  C   UNL     1      -6.607  -9.895  16.073  0.00  0.00    +0.024 A 
ATOM     22  C   UNL     1      -4.385 -10.633  15.480  0.00  0.00    +0.024 A 
ATOM     25  C   UNL     1      -6.408 -10.342  17.380  0.00  0.00    +0.013 A 
ATOM     26  C   UNL     1      -4.184 -11.080  16.786  0.00  0.00    +0.013 A 
ATOM     27  C   UNL     1      -5.196 -10.934  17.736  0.00  0.00    +0.017 A 
BRANCH  27  31
ATOM      7  O   UNL     1      -5.832 -11.197  19.993  0.00  0.00    -0.292 OA
ATOM     31  C   UNL     1      -4.988 -11.401  19.098  0.00  0.00    +0.160 C 
ATOM     32  C   UNL     1      -3.716 -12.158  19.465  0.00  0.00    +0.091 C 
ENDBRANCH  27  31
ENDBRANCH   9  19
ENDBRANCH  13   8
BRANCH  14   3
ATOM      3  O   UNL     1      -9.072  -6.960   7.498  0.00  0.00    -0.442 OA
BRANCH   3  18
ATOM      5  O   UNL     1      -8.786  -4.902   8.455  0.00  0.00    -0.226 OA
ATOM     10  N   UNL     1     -10.646  -6.237   8.943  0.00  0.00    -0.251 N 
ATOM     18  C   UNL     1      -9.450  -5.923   8.326  0.00  0.00    +0.405 C 
ATOM     36  H   UNL     1     -11.050  -7.140   8.707  0.00  0.00    +0.158 HD
BRANCH  10  20
ATOM     20  C   UNL     1     -11.381  -5.457   9.864  0.00  0.00    +0.037 A 
ATOM     23  C   UNL     1     -11.413  -4.068   9.731  0.00  0.00    +0.027 A 
ATOM     24  C   UNL     1     -12.075  -6.075  10.904  0.00  0.00    +0.027 A 
ATOM     28  C   UNL     1     -12.140  -3.298  10.639  0.00  0.00    +0.047 A 
ATOM     29  C   UNL     1     -12.802  -5.303  11.812  0.00  0.00    +0.047 A 
ATOM     30  C   UNL     1     -12.834  -3.916  11.679  0.00  0.00    +0.120 A 
BRANCH  30   6
ATOM      6  O   UNL     1     -13.545  -3.163  12.563  0.00  0.00    -0.495 OA
ATOM     33  C   UNL     1     -14.785  -3.700  13.021  0.00  0.00    +0.277 C 
ENDBRANCH  30   6
ENDBRANCH  10  20
ENDBRANCH   3  18
ENDBRANCH  14   3
TORSDOF 7
ENDMDL
MODEL 8
REMARK VINA RESULT:      -6.5     24.176     29.494
REMARK  Name = 11884070
REMARK  9 active torsions:
REMARK  status: ('A' for Active; 'I' for Inactive)
REMARK    1  A    between atoms: O_3  and  C_14
REMARK    2  A    between atoms: O_3  and  C_18
REMARK    3  A    between atoms: O_6  and  C_30
REMARK    4  A    between atoms: O_6  and  C_33
REMARK    5  A    between atoms: N_8  and  C_13
REMARK    6  A    between atoms: N_9  and  C_19
REMARK    7  A    between atoms: N_10  and  C_20
REMARK    8  A    between atoms: C_27  and  C_31
REMARK    9  A    between atoms: C_31  and  C_32
REMARK                            x       y       z     vdW  Elec       q    Type
REMARK                         _______ _______ _______ _____ _____    ______ ____
ROOT
ATOM      1  O   UNL     1       4.727  11.265   3.969  0.00  0.00    -0.368 OA
ATOM      2  O   UNL     1       5.474  11.303   0.995  0.00  0.00    -0.368 OA
ATOM     11  C   UNL     1       4.583  10.452   1.746  0.00  0.00    +0.173 C 
ATOM     12  C   UNL     1       5.224  10.233   3.102  0.00  0.00    +0.192 C 
ATOM     13  C   UNL     1       3.305  11.192   2.066  0.00  0.00    +0.131 C 
ATOM     14  C   UNL     1       6.693  10.412   2.801  0.00  0.00    +0.235 C 
ATOM     15  C   UNL     1       3.699  12.002   3.289  0.00  0.00    +0.185 C 
ATOM     16  C   UNL     1       6.673  11.506   1.757  0.00  0.00    +0.207 C 
ENDROOT
BRANCH  13   8
ATOM      4  O   UNL     1       0.556  11.865   2.508  0.00  0.00    -0.252 OA
ATOM      8  N   UNL     1       2.230  10.277   2.365  0.00  0.00    -0.292 N 
ATOM      9  N   UNL     1       0.090   9.589   2.839  0.00  0.00    -0.269 N 
ATOM     17  C   UNL     1       0.908  10.690   2.568  0.00  0.00    +0.304 C 
ATOM     34  H   UNL     1       2.429   9.282   2.364  0.00  0.00    +0.151 HD
ATOM     35  H   UNL     1       0.542   8.677   2.854  0.00  0.00    +0.156 HD
BRANCH   9  19
ATOM     19  C   UNL     1      -1.300   9.583   3.099  0.00  0.00    +0.035 A 
ATOM     21  C   UNL     1      -2.198   9.953   2.099  0.00  0.00    +0.024 A 
ATOM     22  C   UNL     1      -1.772   9.208   4.357  0.00  0.00    +0.024 A 
ATOM     25  C   UNL     1      -3.569   9.948   2.356  0.00  0.00    +0.013 A 
ATOM     26  C   UNL     1      -3.143   9.203   4.614  0.00  0.00    +0.013 A 
ATOM     27  C   UNL     1      -4.041   9.573   3.614  0.00  0.00    +0.017 A 
BRANCH  27  31
ATOM      7  O   UNL     1      -6.106  10.627   4.049  0.00  0.00    -0.292 OA
ATOM     31  C   UNL     1      -5.471   9.568   3.881  0.00  0.00    +0.160 C 
ATOM     32  C   UNL     1      -6.232   8.249   3.964  0.00  0.00    +0.091 C 
ENDBRANCH  27  31
ENDBRANCH   9  19
ENDBRANCH  13   8
BRANCH  14   3
ATOM      3  O   UNL     1       7.459  10.770   3.929  0.00  0.00    -0.442 OA
BRANCH   3  18
ATOM      5  O   UNL     1       9.554   9.863   4.076  0.00  0.00    -0.226 OA
ATOM     10  N   UNL     1       7.729   8.931   5.208  0.00  0.00    -0.251 N 
ATOM     18  C   UNL     1       8.369   9.838   4.386  0.00  0.00    +0.405 C 
ATOM     36  H   UNL     1       6.731   9.077   5.348  0.00  0.00    +0.158 HD
BRANCH  10  20
ATOM     20  C   UNL     1       8.288   7.822   5.881  0.00  0.00    +0.037 A 
ATOM     23  C   UNL     1       8.649   7.932   7.225  0.00  0.00    +0.027 A 
ATOM     24  C   UNL     1       8.479   6.618   5.204  0.00  0.00    +0.027 A 
ATOM     28  C   UNL     1       9.200   6.836   7.890  0.00  0.00    +0.047 A 
ATOM     29  C   UNL     1       9.030   5.522   5.870  0.00  0.00    +0.047 A 
ATOM     30  C   UNL     1       9.391   5.632   7.213  0.00  0.00    +0.120 A 
BRANCH  30   6
ATOM      6  O   UNL     1       9.926   4.563   7.863  0.00  0.00    -0.495 OA
ATOM     33  C   UNL     1       9.482   4.328   9.199  0.00  0.00    +0.277 C 
ENDBRANCH  30   6
ENDBRANCH  10  20
ENDBRANCH   3  18
ENDBRANCH  14   3
TORSDOF 7
ENDMDL
MODEL 9
REMARK VINA RESULT:      -6.5     16.281     19.853
REMARK  Name = 11884070
REMARK  9 active torsions:
REMARK  status: ('A' for Active; 'I' for Inactive)
REMARK    1  A    between atoms: O_3  and  C_14
REMARK    2  A    between atoms: O_3  and  C_18
REMARK    3  A    between atoms: O_6  and  C_30
REMARK    4  A    between atoms: O_6  and  C_33
REMARK    5  A    between atoms: N_8  and  C_13
REMARK    6  A    between atoms: N_9  and  C_19
REMARK    7  A    between atoms: N_10  and  C_20
REMARK    8  A    between atoms: C_27  and  C_31
REMARK    9  A    between atoms: C_31  and  C_32
REMARK                            x       y       z     vdW  Elec       q    Type
REMARK                         _______ _______ _______ _____ _____    ______ ____
ROOT
ATOM      1  O   UNL     1     -11.556  -8.422  14.759  0.00  0.00    -0.368 OA
ATOM      2  O   UNL     1     -10.635  -6.995  17.312  0.00  0.00    -0.368 OA
ATOM     11  C   UNL     1     -10.607  -6.590  15.927  0.00  0.00    +0.173 C 
ATOM     12  C   UNL     1     -10.296  -7.830  15.113  0.00  0.00    +0.192 C 
ATOM     13  C   UNL     1     -11.994  -6.198  15.473  0.00  0.00    +0.131 C 
ATOM     14  C   UNL     1      -9.533  -8.684  16.097  0.00  0.00    +0.235 C 
ATOM     15  C   UNL     1     -12.621  -7.544  15.154  0.00  0.00    +0.185 C 
ATOM     16  C   UNL     1     -10.233  -8.370  17.401  0.00  0.00    +0.207 C 
ENDROOT
BRANCH  13   8
ATOM      4  O   UNL     1     -14.219  -5.320  13.895  0.00  0.00    -0.252 OA
ATOM      8  N   UNL     1     -11.943  -5.352  14.305  0.00  0.00    -0.292 N 
ATOM      9  N   UNL     1     -12.727  -4.151  12.511  0.00  0.00    -0.269 N 
ATOM     17  C   UNL     1     -13.083  -4.968  13.589  0.00  0.00    +0.304 C 
ATOM     34  H   UNL     1     -11.047  -4.964  14.029  0.00  0.00    +0.151 HD
ATOM     35  H   UNL     1     -11.736  -3.954  12.394  0.00  0.00    +0.156 HD
BRANCH   9  19
ATOM     19  C   UNL     1     -13.582  -3.559  11.551  0.00  0.00    +0.035 A 
ATOM     21  C   UNL     1     -14.759  -2.932  11.959  0.00  0.00    +0.024 A 
ATOM     22  C   UNL     1     -13.247  -3.604  10.198  0.00  0.00    +0.024 A 
ATOM     25  C   UNL     1     -15.603  -2.350  11.013  0.00  0.00    +0.013 A 
ATOM     26  C   UNL     1     -14.090  -3.021   9.252  0.00  0.00    +0.013 A 
ATOM     27  C   UNL     1     -15.268  -2.394   9.659  0.00  0.00    +0.017 A 
BRANCH  27  31
ATOM      7  O   UNL     1     -15.705  -1.328   7.601  0.00  0.00    -0.292 OA
ATOM     31  C   UNL     1     -16.147  -1.786   8.673  0.00  0.00    +0.160 C 
ATOM     32  C   UNL     1     -17.647  -1.695   8.933  0.00  0.00    +0.091 C 
ENDBRANCH  27  31
ENDBRANCH   9  19
ENDBRANCH  13   8
BRANCH  14   3
ATOM      3  O   UNL     1      -9.568 -10.060  15.795  0.00  0.00    -0.442 OA
BRANCH   3  18
ATOM      5  O   UNL     1      -8.370 -11.977  16.146  0.00  0.00    -0.226 OA
ATOM     10  N   UNL     1      -7.321  -9.900  15.887  0.00  0.00    -0.251 N 
ATOM     18  C   UNL     1      -8.395 -10.766  15.962  0.00  0.00    +0.405 C 
ATOM     36  H   UNL     1      -7.543  -8.920  15.727  0.00  0.00    +0.158 HD
BRANCH  10  20
ATOM     20  C   UNL     1      -5.946 -10.207  16.005  0.00  0.00    +0.037 A 
ATOM     23  C   UNL     1      -5.147 -10.273  14.863  0.00  0.00    +0.027 A 
ATOM     24  C   UNL     1      -5.389 -10.443  17.261  0.00  0.00    +0.027 A 
ATOM     28  C   UNL     1      -3.790 -10.575  14.979  0.00  0.00    +0.047 A 
ATOM     29  C   UNL     1      -4.031 -10.744  17.377  0.00  0.00    +0.047 A 
ATOM     30  C   UNL     1      -3.232 -10.811  16.236  0.00  0.00    +0.120 A 
BRANCH  30   6
ATOM      6  O   UNL     1      -1.907 -11.102  16.348  0.00  0.00    -0.495 OA
ATOM     33  C   UNL     1      -0.999 -10.283  15.614  0.00  0.00    +0.277 C 
ENDBRANCH  30   6
ENDBRANCH  10  20
ENDBRANCH   3  18
ENDBRANCH  14   3
TORSDOF 7
ENDMDL
MODEL 10
REMARK VINA RESULT:      -6.4     31.935     36.518
REMARK  Name = 11884070
REMARK  9 active torsions:
REMARK  status: ('A' for Active; 'I' for Inactive)
REMARK    1  A    between atoms: O_3  and  C_14
REMARK    2  A    between atoms: O_3  and  C_18
REMARK    3  A    between atoms: O_6  and  C_30
REMARK    4  A    between atoms: O_6  and  C_33
REMARK    5  A    between atoms: N_8  and  C_13
REMARK    6  A    between atoms: N_9  and  C_19
REMARK    7  A    between atoms: N_10  and  C_20
REMARK    8  A    between atoms: C_27  and  C_31
REMARK    9  A    between atoms: C_31  and  C_32
REMARK                            x       y       z     vdW  Elec       q    Type
REMARK                         _______ _______ _______ _____ _____    ______ ____
ROOT
ATOM      1  O   UNL     1      20.809   5.705  22.836  0.00  0.00    -0.368 OA
ATOM      2  O   UNL     1      22.833   5.919  20.542  0.00  0.00    -0.368 OA
ATOM     11  C   UNL     1      21.485   5.405  20.583  0.00  0.00    +0.173 C 
ATOM     12  C   UNL     1      21.317   4.718  21.923  0.00  0.00    +0.192 C 
ATOM     13  C   UNL     1      20.496   6.546  20.635  0.00  0.00    +0.131 C 
ATOM     14  C   UNL     1      22.733   4.317  22.264  0.00  0.00    +0.235 C 
ATOM     15  C   UNL     1      20.494   6.904  22.111  0.00  0.00    +0.185 C 
ATOM     16  C   UNL     1      23.533   5.475  21.714  0.00  0.00    +0.207 C 
ENDROOT
BRANCH  13   8
ATOM      4  O   UNL     1      18.062   8.046  20.821  0.00  0.00    -0.252 OA
ATOM      8  N   UNL     1      19.188   6.126  20.195  0.00  0.00    -0.292 N 
ATOM      9  N   UNL     1      16.927   6.258  19.810  0.00  0.00    -0.269 N 
ATOM     17  C   UNL     1      18.045   6.924  20.322  0.00  0.00    +0.304 C 
ATOM     34  H   UNL     1      19.104   5.238  19.710  0.00  0.00    +0.151 HD
ATOM     35  H   UNL     1      17.083   5.326  19.432  0.00  0.00    +0.156 HD
BRANCH   9  19
ATOM     19  C   UNL     1      15.592   6.720  19.753  0.00  0.00    +0.035 A 
ATOM     21  C   UNL     1      15.098   7.281  18.575  0.00  0.00    +0.024 A 
ATOM     22  C   UNL     1      14.770   6.618  20.875  0.00  0.00    +0.024 A 
ATOM     25  C   UNL     1      13.781   7.738  18.519  0.00  0.00    +0.013 A 
ATOM     26  C   UNL     1      13.453   7.075  20.819  0.00  0.00    +0.013 A 
ATOM     27  C   UNL     1      12.959   7.635  19.641  0.00  0.00    +0.017 A 
BRANCH  27  31
ATOM      7  O   UNL     1      11.014   8.318  18.493  0.00  0.00    -0.292 OA
ATOM     31  C   UNL     1      11.586   8.112  19.582  0.00  0.00    +0.160 C 
ATOM     32  C   UNL     1      10.807   8.373  20.867  0.00  0.00    +0.091 C 
ENDBRANCH  27  31
ENDBRANCH   9  19
ENDBRANCH  13   8
BRANCH  14   3
ATOM      3  O   UNL     1      22.949   4.131  23.645  0.00  0.00    -0.442 OA
BRANCH   3  18
ATOM      5  O   UNL     1      25.044   3.648  24.424  0.00  0.00    -0.226 OA
ATOM     10  N   UNL     1      23.538   1.961  23.821  0.00  0.00    -0.251 N 
ATOM     18  C   UNL     1      23.959   3.264  24.007  0.00  0.00    +0.405 C 
ATOM     36  H   UNL     1      22.593   1.841  23.463  0.00  0.00    +0.158 HD
BRANCH  10  20
ATOM     20  C   UNL     1      24.258   0.770  24.068  0.00  0.00    +0.037 A 
ATOM     23  C   UNL     1      23.912  -0.043  25.147  0.00  0.00    +0.027 A 
ATOM     24  C   UNL     1      25.314   0.408  23.231  0.00  0.00    +0.027 A 
ATOM     28  C   UNL     1      24.622  -1.219  25.389  0.00  0.00    +0.047 A 
ATOM     29  C   UNL     1      26.024  -0.769  23.474  0.00  0.00    +0.047 A 
ATOM     30  C   UNL     1      25.678  -1.581  24.554  0.00  0.00    +0.120 A 
BRANCH  30   6
ATOM      6  O   UNL     1      26.368  -2.730  24.790  0.00  0.00    -0.495 OA
ATOM     33  C   UNL     1      27.792  -2.654  24.733  0.00  0.00    +0.277 C 
ENDBRANCH  30   6
ENDBRANCH  10  20
ENDBRANCH   3  18
ENDBRANCH  14   3
TORSDOF 7
ENDMDL
