MODEL 1
REMARK VINA RESULT:      -7.1      0.000      0.000
REMARK  Name = 28960058
REMARK  7 active torsions:
REMARK  status: ('A' for Active; 'I' for Inactive)
REMARK    1  A    between atoms: O_3  and  C_22
REMARK    2  A    between atoms: N_6  and  C_15
REMARK    3  A    between atoms: C_9  and  C_13
REMARK    4  A    between atoms: C_10  and  C_16
REMARK    5  A    between atoms: C_13  and  C_15
REMARK    6  A    between atoms: C_16  and  C_22
REMARK    7  A    between atoms: C_19  and  C_23
REMARK                            x       y       z     vdW  Elec       q    Type
REMARK                         _______ _______ _______ _____ _____    ______ ____
ROOT
ATOM      2  O   UNL     1      -1.447  -9.918  12.347  0.00  0.00    -0.270 OA
ATOM      5  N   UNL     1      -2.701 -11.296  13.762  0.00  0.00    -0.297 N 
ATOM      9  C   UNL     1      -4.607 -11.602  15.328  0.00  0.00    +0.011 C 
ATOM     10  C   UNL     1      -3.596 -11.575  16.502  0.00  0.00    +0.006 C 
ATOM     11  C   UNL     1      -3.907 -12.088  14.044  0.00  0.00    +0.112 C 
ATOM     12  C   UNL     1      -2.332 -10.776  16.142  0.00  0.00    +0.023 C 
ATOM     14  C   UNL     1      -1.714 -11.277  14.839  0.00  0.00    +0.108 C 
ATOM     19  C   UNL     1      -2.452 -10.587  12.585  0.00  0.00    +0.247 C 
ENDROOT
BRANCH  19  23
ATOM      1  F   UNL     1      -6.321 -10.748   8.546  0.00  0.00    -0.205 F 
ATOM     23  C   UNL     1      -3.466 -10.628  11.526  0.00  0.00    +0.037 A 
ATOM     25  C   UNL     1      -3.486 -11.690  10.621  0.00  0.00    +0.016 A 
ATOM     26  C   UNL     1      -4.412  -9.608  11.424  0.00  0.00    +0.016 A 
ATOM     28  C   UNL     1      -4.449 -11.730   9.614  0.00  0.00    +0.039 A 
ATOM     29  C   UNL     1      -5.376  -9.648  10.417  0.00  0.00    +0.039 A 
ATOM     31  C   UNL     1      -5.394 -10.709   9.512  0.00  0.00    +0.123 A 
ENDBRANCH  19  23
BRANCH   9  13
ATOM     13  C   UNL     1      -5.308 -10.261  15.078  0.00  0.00    +0.020 C 
BRANCH  13  15
ATOM     15  C   UNL     1      -6.557 -10.451  14.230  0.00  0.00    +0.085 C 
BRANCH  15   6
ATOM      6  N   UNL     1      -7.729  -9.964  14.957  0.00  0.00    -0.299 NA
ATOM      7  N   UNL     1      -9.732  -9.994  16.993  0.00  0.00    -0.313 N 
ATOM      8  N   UNL     1     -12.019  -9.634  17.487  0.00  0.00    -0.240 NA
ATOM     17  C   UNL     1      -7.379  -9.653  16.349  0.00  0.00    +0.103 C 
ATOM     18  C   UNL     1      -8.806 -10.960  14.924  0.00  0.00    +0.103 C 
ATOM     20  C   UNL     1      -8.585  -9.088  17.105  0.00  0.00    +0.122 C 
ATOM     21  C   UNL     1     -10.059 -10.439  15.633  0.00  0.00    +0.122 C 
ATOM     24  C   UNL     1     -10.772  -9.915  17.927  0.00  0.00    +0.121 A 
ATOM     27  C   UNL     1     -10.449 -10.134  19.255  0.00  0.00    +0.043 A 
ATOM     30  C   UNL     1     -11.472 -10.059  20.195  0.00  0.00    +0.005 A 
ATOM     32  C   UNL     1     -12.988  -9.570  18.429  0.00  0.00    +0.113 A 
ATOM     33  C   UNL     1     -12.768  -9.772  19.782  0.00  0.00    +0.020 A 
ENDBRANCH  15   6
ENDBRANCH  13  15
ENDBRANCH   9  13
BRANCH  10  16
ATOM     16  C   UNL     1      -4.204 -11.063  17.807  0.00  0.00    +0.124 C 
BRANCH  16  22
ATOM      4  O   UNL     1      -3.356 -12.152  19.816  0.00  0.00    -0.251 OA
ATOM     22  C   UNL     1      -4.152 -12.104  18.890  0.00  0.00    +0.305 C 
BRANCH  22   3
ATOM      3  O   UNL     1      -5.141 -13.015  18.698  0.00  0.00    -0.481 OA
ATOM     34  H   UNL     1      -4.837 -13.777  18.161  0.00  0.00    +0.295 HD
ENDBRANCH  22   3
ENDBRANCH  16  22
ENDBRANCH  10  16
TORSDOF 7
ENDMDL
MODEL 2
REMARK VINA RESULT:      -7.0      0.634      1.601
REMARK  Name = 28960058
REMARK  7 active torsions:
REMARK  status: ('A' for Active; 'I' for Inactive)
REMARK    1  A    between atoms: O_3  and  C_22
REMARK    2  A    between atoms: N_6  and  C_15
REMARK    3  A    between atoms: C_9  and  C_13
REMARK    4  A    between atoms: C_10  and  C_16
REMARK    5  A    between atoms: C_13  and  C_15
REMARK    6  A    between atoms: C_16  and  C_22
REMARK    7  A    between atoms: C_19  and  C_23
REMARK                            x       y       z     vdW  Elec       q    Type
REMARK                         _______ _______ _______ _____ _____    ______ ____
ROOT
ATOM      2  O   UNL     1      -1.416  -9.969  12.190  0.00  0.00    -0.270 OA
ATOM      5  N   UNL     1      -2.724 -11.237  13.659  0.00  0.00    -0.297 N 
ATOM      9  C   UNL     1      -4.620 -11.395  15.258  0.00  0.00    +0.011 C 
ATOM     10  C   UNL     1      -3.591 -11.396  16.416  0.00  0.00    +0.006 C 
ATOM     11  C   UNL     1      -3.969 -11.951  13.978  0.00  0.00    +0.112 C 
ATOM     12  C   UNL     1      -2.289 -10.680  16.019  0.00  0.00    +0.023 C 
ATOM     14  C   UNL     1      -1.721 -11.247  14.721  0.00  0.00    +0.108 C 
ATOM     19  C   UNL     1      -2.453 -10.573  12.460  0.00  0.00    +0.247 C 
ENDROOT
BRANCH  19  23
ATOM      1  F   UNL     1      -6.386 -10.611   8.479  0.00  0.00    -0.205 F 
ATOM     23  C   UNL     1      -3.484 -10.584  11.416  0.00  0.00    +0.037 A 
ATOM     25  C   UNL     1      -4.426  -9.556  11.357  0.00  0.00    +0.016 A 
ATOM     26  C   UNL     1      -3.522 -11.619  10.483  0.00  0.00    +0.016 A 
ATOM     28  C   UNL     1      -5.407  -9.566  10.366  0.00  0.00    +0.039 A 
ATOM     29  C   UNL     1      -4.503 -11.629   9.491  0.00  0.00    +0.039 A 
ATOM     31  C   UNL     1      -5.445 -10.602   9.433  0.00  0.00    +0.123 A 
ENDBRANCH  19  23
BRANCH   9  13
ATOM     13  C   UNL     1      -5.247 -10.022  14.983  0.00  0.00    +0.020 C 
BRANCH  13  15
ATOM     15  C   UNL     1      -6.668 -10.171  14.459  0.00  0.00    +0.085 C 
BRANCH  15   6
ATOM      6  N   UNL     1      -7.571 -10.505  15.561  0.00  0.00    -0.299 NA
ATOM      7  N   UNL     1      -9.751 -10.097  17.359  0.00  0.00    -0.313 N 
ATOM      8  N   UNL     1     -10.508 -10.316  19.591  0.00  0.00    -0.240 NA
ATOM     17  C   UNL     1      -8.956 -10.595  15.082  0.00  0.00    +0.103 C 
ATOM     18  C   UNL     1      -7.476  -9.501  16.627  0.00  0.00    +0.103 C 
ATOM     20  C   UNL     1      -9.904 -11.000  16.214  0.00  0.00    +0.122 C 
ATOM     21  C   UNL     1      -8.374  -9.870  17.810  0.00  0.00    +0.122 C 
ATOM     24  C   UNL     1     -10.778  -9.998  18.306  0.00  0.00    +0.121 A 
ATOM     27  C   UNL     1     -12.017  -9.574  17.855  0.00  0.00    +0.043 A 
ATOM     30  C   UNL     1     -13.047  -9.472  18.784  0.00  0.00    +0.005 A 
ATOM     32  C   UNL     1     -11.534 -10.204  20.466  0.00  0.00    +0.113 A 
ATOM     33  C   UNL     1     -12.809  -9.790  20.116  0.00  0.00    +0.020 A 
ENDBRANCH  15   6
ENDBRANCH  13  15
ENDBRANCH   9  13
BRANCH  10  16
ATOM     16  C   UNL     1      -4.148 -10.817  17.716  0.00  0.00    +0.124 C 
BRANCH  16  22
ATOM      4  O   UNL     1      -5.418 -12.479  18.969  0.00  0.00    -0.251 OA
ATOM     22  C   UNL     1      -4.372 -11.886  18.750  0.00  0.00    +0.305 C 
BRANCH  22   3
ATOM      3  O   UNL     1      -3.218 -12.115  19.428  0.00  0.00    -0.481 OA
ATOM     34  H   UNL     1      -2.488 -11.542  19.111  0.00  0.00    +0.295 HD
ENDBRANCH  22   3
ENDBRANCH  16  22
ENDBRANCH  10  16
TORSDOF 7
ENDMDL
MODEL 3
REMARK VINA RESULT:      -6.9     27.302     30.436
REMARK  Name = 28960058
REMARK  7 active torsions:
REMARK  status: ('A' for Active; 'I' for Inactive)
REMARK    1  A    between atoms: O_3  and  C_22
REMARK    2  A    between atoms: N_6  and  C_15
REMARK    3  A    between atoms: C_9  and  C_13
REMARK    4  A    between atoms: C_10  and  C_16
REMARK    5  A    between atoms: C_13  and  C_15
REMARK    6  A    between atoms: C_16  and  C_22
REMARK    7  A    between atoms: C_19  and  C_23
REMARK                            x       y       z     vdW  Elec       q    Type
REMARK                         _______ _______ _______ _____ _____    ______ ____
ROOT
ATOM      2  O   UNL     1      13.625   8.484  15.156  0.00  0.00    -0.270 OA
ATOM      5  N   UNL     1      12.943   9.156  17.291  0.00  0.00    -0.297 N 
ATOM      9  C   UNL     1      13.365   9.297  19.736  0.00  0.00    +0.011 C 
ATOM     10  C   UNL     1      12.344   8.150  19.939  0.00  0.00    +0.006 C 
ATOM     11  C   UNL     1      13.039  10.066  18.442  0.00  0.00    +0.112 C 
ATOM     12  C   UNL     1      12.244   7.254  18.693  0.00  0.00    +0.023 C 
ATOM     14  C   UNL     1      11.966   8.080  17.440  0.00  0.00    +0.108 C 
ATOM     19  C   UNL     1      13.698   9.246  16.119  0.00  0.00    +0.247 C 
ENDROOT
BRANCH  19  23
ATOM      1  F   UNL     1      17.405  13.415  15.685  0.00  0.00    -0.205 F 
ATOM     23  C   UNL     1      14.670  10.339  16.006  0.00  0.00    +0.037 A 
ATOM     25  C   UNL     1      15.422  10.485  14.840  0.00  0.00    +0.016 A 
ATOM     26  C   UNL     1      14.841  11.233  17.062  0.00  0.00    +0.016 A 
ATOM     28  C   UNL     1      16.347  11.523  14.732  0.00  0.00    +0.039 A 
ATOM     29  C   UNL     1      15.766  12.272  16.954  0.00  0.00    +0.039 A 
ATOM     31  C   UNL     1      16.518  12.416  15.789  0.00  0.00    +0.123 A 
ENDBRANCH  19  23
BRANCH   9  13
ATOM     13  C   UNL     1      14.828   8.836  19.729  0.00  0.00    +0.020 C 
BRANCH  13  15
ATOM     15  C   UNL     1      15.535   9.255  21.011  0.00  0.00    +0.085 C 
BRANCH  15   6
ATOM      6  N   UNL     1      16.623   8.322  21.304  0.00  0.00    -0.299 NA
ATOM      7  N   UNL     1      19.159   7.068  20.912  0.00  0.00    -0.313 N 
ATOM      8  N   UNL     1      20.352   5.025  20.947  0.00  0.00    -0.240 NA
ATOM     17  C   UNL     1      17.865   9.053  21.587  0.00  0.00    +0.103 C 
ATOM     18  C   UNL     1      16.830   7.402  20.180  0.00  0.00    +0.103 C 
ATOM     20  C   UNL     1      18.998   8.089  21.952  0.00  0.00    +0.122 C 
ATOM     21  C   UNL     1      17.928   6.384  20.498  0.00  0.00    +0.122 C 
ATOM     24  C   UNL     1      20.367   6.369  20.808  0.00  0.00    +0.121 A 
ATOM     27  C   UNL     1      21.510   7.112  20.565  0.00  0.00    +0.043 A 
ATOM     30  C   UNL     1      22.718   6.430  20.460  0.00  0.00    +0.005 A 
ATOM     32  C   UNL     1      21.545   4.396  20.837  0.00  0.00    +0.113 A 
ATOM     33  C   UNL     1      22.745   5.047  20.597  0.00  0.00    +0.020 A 
ENDBRANCH  15   6
ENDBRANCH  13  15
ENDBRANCH   9  13
BRANCH  10  16
ATOM     16  C   UNL     1      12.624   7.309  21.184  0.00  0.00    +0.124 C 
BRANCH  16  22
ATOM      4  O   UNL     1      10.333   7.014  21.963  0.00  0.00    -0.251 OA
ATOM     22  C   UNL     1      11.407   6.542  21.622  0.00  0.00    +0.305 C 
BRANCH  22   3
ATOM      3  O   UNL     1      11.668   5.209  21.584  0.00  0.00    -0.481 OA
ATOM     34  H   UNL     1      10.952   4.685  22.003  0.00  0.00    +0.295 HD
ENDBRANCH  22   3
ENDBRANCH  16  22
ENDBRANCH  10  16
TORSDOF 7
ENDMDL
MODEL 4
REMARK VINA RESULT:      -6.9     28.062     31.341
REMARK  Name = 28960058
REMARK  7 active torsions:
REMARK  status: ('A' for Active; 'I' for Inactive)
REMARK    1  A    between atoms: O_3  and  C_22
REMARK    2  A    between atoms: N_6  and  C_15
REMARK    3  A    between atoms: C_9  and  C_13
REMARK    4  A    between atoms: C_10  and  C_16
REMARK    5  A    between atoms: C_13  and  C_15
REMARK    6  A    between atoms: C_16  and  C_22
REMARK    7  A    between atoms: C_19  and  C_23
REMARK                            x       y       z     vdW  Elec       q    Type
REMARK                         _______ _______ _______ _____ _____    ______ ____
ROOT
ATOM      2  O   UNL     1      14.660  13.498  21.119  0.00  0.00    -0.270 OA
ATOM      5  N   UNL     1      13.888  11.469  21.991  0.00  0.00    -0.297 N 
ATOM      9  C   UNL     1      13.397   9.050  21.694  0.00  0.00    +0.011 C 
ATOM     10  C   UNL     1      11.893   9.407  21.602  0.00  0.00    +0.006 C 
ATOM     11  C   UNL     1      14.141  10.119  22.517  0.00  0.00    +0.112 C 
ATOM     12  C   UNL     1      11.681  10.843  21.092  0.00  0.00    +0.023 C 
ATOM     14  C   UNL     1      12.478  11.847  21.921  0.00  0.00    +0.108 C 
ATOM     19  C   UNL     1      14.866  12.371  21.566  0.00  0.00    +0.247 C 
ENDROOT
BRANCH  19  23
ATOM      1  F   UNL     1      20.225  10.791  21.885  0.00  0.00    -0.205 F 
ATOM     23  C   UNL     1      16.271  11.956  21.650  0.00  0.00    +0.037 A 
ATOM     25  C   UNL     1      16.933  11.501  20.509  0.00  0.00    +0.016 A 
ATOM     26  C   UNL     1      16.945  12.018  22.869  0.00  0.00    +0.016 A 
ATOM     28  C   UNL     1      18.268  11.106  20.589  0.00  0.00    +0.039 A 
ATOM     29  C   UNL     1      18.281  11.624  22.949  0.00  0.00    +0.039 A 
ATOM     31  C   UNL     1      18.942  11.168  21.809  0.00  0.00    +0.123 A 
ENDBRANCH  19  23
BRANCH   9  13
ATOM     13  C   UNL     1      14.077   8.859  20.332  0.00  0.00    +0.020 C 
BRANCH  13  15
ATOM     15  C   UNL     1      14.511   7.413  20.141  0.00  0.00    +0.085 C 
BRANCH  15   6
ATOM      6  N   UNL     1      15.960   7.352  19.944  0.00  0.00    -0.299 NA
ATOM      7  N   UNL     1      18.609   6.371  20.362  0.00  0.00    -0.313 N 
ATOM      8  N   UNL     1      20.888   6.953  20.621  0.00  0.00    -0.240 NA
ATOM     17  C   UNL     1      16.354   6.035  19.428  0.00  0.00    +0.103 C 
ATOM     18  C   UNL     1      16.663   7.627  21.202  0.00  0.00    +0.103 C 
ATOM     20  C   UNL     1      17.862   5.977  19.164  0.00  0.00    +0.122 C 
ATOM     21  C   UNL     1      18.179   7.622  20.997  0.00  0.00    +0.122 C 
ATOM     24  C   UNL     1      19.949   5.989  20.501  0.00  0.00    +0.121 A 
ATOM     27  C   UNL     1      20.224   4.632  20.505  0.00  0.00    +0.043 A 
ATOM     30  C   UNL     1      21.551   4.238  20.641  0.00  0.00    +0.005 A 
ATOM     32  C   UNL     1      22.167   6.532  20.752  0.00  0.00    +0.113 A 
ATOM     33  C   UNL     1      22.547   5.199  20.767  0.00  0.00    +0.020 A 
ENDBRANCH  15   6
ENDBRANCH  13  15
ENDBRANCH   9  13
BRANCH  10  16
ATOM     16  C   UNL     1      11.090   8.414  20.762  0.00  0.00    +0.124 C 
BRANCH  16  22
ATOM      4  O   UNL     1      11.496   6.162  21.600  0.00  0.00    -0.251 OA
ATOM     22  C   UNL     1      10.789   7.155  21.528  0.00  0.00    +0.305 C 
BRANCH  22   3
ATOM      3  O   UNL     1       9.588   7.274  22.151  0.00  0.00    -0.481 OA
ATOM     34  H   UNL     1       9.676   7.679  23.040  0.00  0.00    +0.295 HD
ENDBRANCH  22   3
ENDBRANCH  16  22
ENDBRANCH  10  16
TORSDOF 7
ENDMDL
MODEL 5
REMARK VINA RESULT:      -6.8     27.299     30.299
REMARK  Name = 28960058
REMARK  7 active torsions:
REMARK  status: ('A' for Active; 'I' for Inactive)
REMARK    1  A    between atoms: O_3  and  C_22
REMARK    2  A    between atoms: N_6  and  C_15
REMARK    3  A    between atoms: C_9  and  C_13
REMARK    4  A    between atoms: C_10  and  C_16
REMARK    5  A    between atoms: C_13  and  C_15
REMARK    6  A    between atoms: C_16  and  C_22
REMARK    7  A    between atoms: C_19  and  C_23
REMARK                            x       y       z     vdW  Elec       q    Type
REMARK                         _______ _______ _______ _____ _____    ______ ____
ROOT
ATOM      2  O   UNL     1      10.168   8.579  21.942  0.00  0.00    -0.270 OA
ATOM      5  N   UNL     1      12.496   8.358  21.871  0.00  0.00    -0.297 N 
ATOM      9  C   UNL     1      14.655   8.729  20.697  0.00  0.00    +0.011 C 
ATOM     10  C   UNL     1      14.654   7.230  20.305  0.00  0.00    +0.006 C 
ATOM     11  C   UNL     1      13.844   8.933  21.990  0.00  0.00    +0.112 C 
ATOM     12  C   UNL     1      13.226   6.663  20.239  0.00  0.00    +0.023 C 
ATOM     14  C   UNL     1      12.463   6.937  21.532  0.00  0.00    +0.108 C 
ATOM     19  C   UNL     1      11.298   9.054  22.046  0.00  0.00    +0.247 C 
ENDROOT
BRANCH  19  23
ATOM      1  F   UNL     1      11.576  14.491  23.341  0.00  0.00    -0.205 F 
ATOM     23  C   UNL     1      11.370  10.480  22.385  0.00  0.00    +0.037 A 
ATOM     25  C   UNL     1      11.144  10.896  23.697  0.00  0.00    +0.016 A 
ATOM     26  C   UNL     1      11.667  11.418  21.397  0.00  0.00    +0.016 A 
ATOM     28  C   UNL     1      11.212  12.251  24.020  0.00  0.00    +0.039 A 
ATOM     29  C   UNL     1      11.736  12.773  21.720  0.00  0.00    +0.039 A 
ATOM     31  C   UNL     1      11.508  13.190  23.032  0.00  0.00    +0.123 A 
ENDBRANCH  19  23
BRANCH   9  13
ATOM     13  C   UNL     1      14.142   9.662  19.593  0.00  0.00    +0.020 C 
BRANCH  13  15
ATOM     15  C   UNL     1      15.022  10.898  19.475  0.00  0.00    +0.085 C 
BRANCH  15   6
ATOM      6  N   UNL     1      15.169  11.271  18.068  0.00  0.00    -0.299 NA
ATOM      7  N   UNL     1      14.307  12.242  15.525  0.00  0.00    -0.313 N 
ATOM      8  N   UNL     1      14.441  11.958  13.178  0.00  0.00    -0.240 NA
ATOM     17  C   UNL     1      14.873  12.696  17.879  0.00  0.00    +0.103 C 
ATOM     18  C   UNL     1      14.282  10.460  17.226  0.00  0.00    +0.103 C 
ATOM     20  C   UNL     1      15.078  13.111  16.419  0.00  0.00    +0.122 C 
ATOM     21  C   UNL     1      14.468  10.800  15.745  0.00  0.00    +0.122 C 
ATOM     24  C   UNL     1      13.996  12.679  14.232  0.00  0.00    +0.121 A 
ATOM     27  C   UNL     1      13.243  13.836  14.117  0.00  0.00    +0.043 A 
ATOM     30  C   UNL     1      12.927  14.282  12.838  0.00  0.00    +0.005 A 
ATOM     32  C   UNL     1      14.113  12.422  11.951  0.00  0.00    +0.113 A 
ATOM     33  C   UNL     1      13.366  13.568  11.730  0.00  0.00    +0.020 A 
ENDBRANCH  15   6
ENDBRANCH  13  15
ENDBRANCH   9  13
BRANCH  10  16
ATOM     16  C   UNL     1      15.405   6.949  19.004  0.00  0.00    +0.124 C 
BRANCH  16  22
ATOM      4  O   UNL     1      17.416   6.297  20.218  0.00  0.00    -0.251 OA
ATOM     22  C   UNL     1      16.678   6.187  19.251  0.00  0.00    +0.305 C 
BRANCH  22   3
ATOM      3  O   UNL     1      16.906   5.330  18.222  0.00  0.00    -0.481 OA
ATOM     34  H   UNL     1      17.668   4.739  18.401  0.00  0.00    +0.295 HD
ENDBRANCH  22   3
ENDBRANCH  16  22
ENDBRANCH  10  16
TORSDOF 7
ENDMDL
MODEL 6
REMARK VINA RESULT:      -6.7     27.753     30.883
REMARK  Name = 28960058
REMARK  7 active torsions:
REMARK  status: ('A' for Active; 'I' for Inactive)
REMARK    1  A    between atoms: O_3  and  C_22
REMARK    2  A    between atoms: N_6  and  C_15
REMARK    3  A    between atoms: C_9  and  C_13
REMARK    4  A    between atoms: C_10  and  C_16
REMARK    5  A    between atoms: C_13  and  C_15
REMARK    6  A    between atoms: C_16  and  C_22
REMARK    7  A    between atoms: C_19  and  C_23
REMARK                            x       y       z     vdW  Elec       q    Type
REMARK                         _______ _______ _______ _____ _____    ______ ____
ROOT
ATOM      2  O   UNL     1      10.671   7.956  20.189  0.00  0.00    -0.270 OA
ATOM      5  N   UNL     1      11.685   9.989  20.751  0.00  0.00    -0.297 N 
ATOM      9  C   UNL     1      13.620  11.240  21.682  0.00  0.00    +0.011 C 
ATOM     10  C   UNL     1      12.800  11.466  22.976  0.00  0.00    +0.006 C 
ATOM     11  C   UNL     1      12.668  11.048  20.485  0.00  0.00    +0.112 C 
ATOM     12  C   UNL     1      11.754  10.359  23.186  0.00  0.00    +0.023 C 
ATOM     14  C   UNL     1      10.874  10.190  21.950  0.00  0.00    +0.108 C 
ATOM     19  C   UNL     1      11.488   8.849  19.968  0.00  0.00    +0.247 C 
ENDROOT
BRANCH  19  23
ATOM      1  F   UNL     1      14.664   8.205  15.406  0.00  0.00    -0.205 F 
ATOM     23  C   UNL     1      12.321   8.680  18.772  0.00  0.00    +0.037 A 
ATOM     25  C   UNL     1      13.505   7.947  18.845  0.00  0.00    +0.016 A 
ATOM     26  C   UNL     1      11.928   9.251  17.562  0.00  0.00    +0.016 A 
ATOM     28  C   UNL     1      14.298   7.787  17.709  0.00  0.00    +0.039 A 
ATOM     29  C   UNL     1      12.720   9.091  16.425  0.00  0.00    +0.039 A 
ATOM     31  C   UNL     1      13.905   8.359  16.498  0.00  0.00    +0.123 A 
ENDBRANCH  19  23
BRANCH   9  13
ATOM     13  C   UNL     1      14.610  10.071  21.767  0.00  0.00    +0.020 C 
BRANCH  13  15
ATOM     15  C   UNL     1      16.042  10.561  21.601  0.00  0.00    +0.085 C 
BRANCH  15   6
ATOM      6  N   UNL     1      16.971   9.442  21.764  0.00  0.00    -0.299 NA
ATOM      7  N   UNL     1      19.217   7.803  21.115  0.00  0.00    -0.313 N 
ATOM      8  N   UNL     1      20.039   5.588  20.961  0.00  0.00    -0.240 NA
ATOM     17  C   UNL     1      18.337   9.934  21.982  0.00  0.00    +0.103 C 
ATOM     18  C   UNL     1      16.936   8.568  20.586  0.00  0.00    +0.103 C 
ATOM     20  C   UNL     1      19.309   8.773  22.210  0.00  0.00    +0.122 C 
ATOM     21  C   UNL     1      17.861   7.363  20.768  0.00  0.00    +0.122 C 
ATOM     24  C   UNL     1      20.276   6.917  20.883  0.00  0.00    +0.121 A 
ATOM     27  C   UNL     1      21.511   7.469  20.585  0.00  0.00    +0.043 A 
ATOM     30  C   UNL     1      22.573   6.600  20.353  0.00  0.00    +0.005 A 
ATOM     32  C   UNL     1      21.095   4.775  20.728  0.00  0.00    +0.113 A 
ATOM     33  C   UNL     1      22.369   5.227  20.424  0.00  0.00    +0.020 A 
ENDBRANCH  15   6
ENDBRANCH  13  15
ENDBRANCH   9  13
BRANCH  10  16
ATOM     16  C   UNL     1      13.674  11.623  24.221  0.00  0.00    +0.124 C 
BRANCH  16  22
ATOM      4  O   UNL     1      13.484  13.985  24.794  0.00  0.00    -0.251 OA
ATOM     22  C   UNL     1      13.259  12.811  25.045  0.00  0.00    +0.305 C 
BRANCH  22   3
ATOM      3  O   UNL     1      12.576  12.390  26.141  0.00  0.00    -0.481 OA
ATOM     34  H   UNL     1      12.135  11.527  25.989  0.00  0.00    +0.295 HD
ENDBRANCH  22   3
ENDBRANCH  16  22
ENDBRANCH  10  16
TORSDOF 7
ENDMDL
MODEL 7
REMARK VINA RESULT:      -6.6     29.072     31.862
REMARK  Name = 28960058
REMARK  7 active torsions:
REMARK  status: ('A' for Active; 'I' for Inactive)
REMARK    1  A    between atoms: O_3  and  C_22
REMARK    2  A    between atoms: N_6  and  C_15
REMARK    3  A    between atoms: C_9  and  C_13
REMARK    4  A    between atoms: C_10  and  C_16
REMARK    5  A    between atoms: C_13  and  C_15
REMARK    6  A    between atoms: C_16  and  C_22
REMARK    7  A    between atoms: C_19  and  C_23
REMARK                            x       y       z     vdW  Elec       q    Type
REMARK                         _______ _______ _______ _____ _____    ______ ____
ROOT
ATOM      2  O   UNL     1      22.213  10.043  23.165  0.00  0.00    -0.270 OA
ATOM      5  N   UNL     1      22.383   8.400  21.509  0.00  0.00    -0.297 N 
ATOM      9  C   UNL     1      21.476   6.374  20.391  0.00  0.00    +0.011 C 
ATOM     10  C   UNL     1      22.558   5.537  21.117  0.00  0.00    +0.006 C 
ATOM     11  C   UNL     1      21.961   7.826  20.223  0.00  0.00    +0.112 C 
ATOM     12  C   UNL     1      23.000   6.201  22.432  0.00  0.00    +0.023 C 
ATOM     14  C   UNL     1      23.426   7.649  22.204  0.00  0.00    +0.108 C 
ATOM     19  C   UNL     1      21.868   9.563  22.087  0.00  0.00    +0.247 C 
ENDROOT
BRANCH  19  23
ATOM      1  F   UNL     1      17.876  12.338  19.317  0.00  0.00    -0.205 F 
ATOM     23  C   UNL     1      20.822  10.290  21.360  0.00  0.00    +0.037 A 
ATOM     25  C   UNL     1      19.481   9.953  21.547  0.00  0.00    +0.016 A 
ATOM     26  C   UNL     1      21.167  11.319  20.485  0.00  0.00    +0.016 A 
ATOM     28  C   UNL     1      18.486  10.644  20.856  0.00  0.00    +0.039 A 
ATOM     29  C   UNL     1      20.171  12.011  19.794  0.00  0.00    +0.039 A 
ATOM     31  C   UNL     1      18.831  11.673  19.979  0.00  0.00    +0.123 A 
ENDBRANCH  19  23
BRANCH   9  13
ATOM     13  C   UNL     1      20.103   6.347  21.076  0.00  0.00    +0.020 C 
BRANCH  13  15
ATOM     15  C   UNL     1      19.058   5.711  20.170  0.00  0.00    +0.085 C 
BRANCH  15   6
ATOM      6  N   UNL     1      17.865   6.557  20.119  0.00  0.00    -0.299 NA
ATOM      7  N   UNL     1      15.085   7.162  20.365  0.00  0.00    -0.313 N 
ATOM      8  N   UNL     1      13.246   8.313  19.419  0.00  0.00    -0.240 NA
ATOM     17  C   UNL     1      17.238   6.643  21.444  0.00  0.00    +0.103 C 
ATOM     18  C   UNL     1      16.903   6.033  19.144  0.00  0.00    +0.103 C 
ATOM     20  C   UNL     1      16.021   7.572  21.416  0.00  0.00    +0.122 C 
ATOM     21  C   UNL     1      15.675   6.941  19.040  0.00  0.00    +0.122 C 
ATOM     24  C   UNL     1      13.747   7.569  20.430  0.00  0.00    +0.121 A 
ATOM     27  C   UNL     1      13.018   7.176  21.540  0.00  0.00    +0.043 A 
ATOM     30  C   UNL     1      11.687   7.574  21.618  0.00  0.00    +0.005 A 
ATOM     32  C   UNL     1      11.949   8.681  19.530  0.00  0.00    +0.113 A 
ATOM     33  C   UNL     1      11.135   8.340  20.599  0.00  0.00    +0.020 A 
ENDBRANCH  15   6
ENDBRANCH  13  15
ENDBRANCH   9  13
BRANCH  10  16
ATOM     16  C   UNL     1      22.134   4.089  21.362  0.00  0.00    +0.124 C 
BRANCH  16  22
ATOM      4  O   UNL     1      24.407   3.208  21.344  0.00  0.00    -0.251 OA
ATOM     22  C   UNL     1      23.233   3.122  21.017  0.00  0.00    +0.305 C 
BRANCH  22   3
ATOM      3  O   UNL     1      22.731   2.105  20.269  0.00  0.00    -0.481 OA
ATOM     34  H   UNL     1      23.407   1.419  20.084  0.00  0.00    +0.295 HD
ENDBRANCH  22   3
ENDBRANCH  16  22
ENDBRANCH  10  16
TORSDOF 7
ENDMDL
MODEL 8
REMARK VINA RESULT:      -6.6      3.394      7.308
REMARK  Name = 28960058
REMARK  7 active torsions:
REMARK  status: ('A' for Active; 'I' for Inactive)
REMARK    1  A    between atoms: O_3  and  C_22
REMARK    2  A    between atoms: N_6  and  C_15
REMARK    3  A    between atoms: C_9  and  C_13
REMARK    4  A    between atoms: C_10  and  C_16
REMARK    5  A    between atoms: C_13  and  C_15
REMARK    6  A    between atoms: C_16  and  C_22
REMARK    7  A    between atoms: C_19  and  C_23
REMARK                            x       y       z     vdW  Elec       q    Type
REMARK                         _______ _______ _______ _____ _____    ______ ____
ROOT
ATOM      2  O   UNL     1      -8.894 -11.691  17.768  0.00  0.00    -0.270 OA
ATOM      5  N   UNL     1      -6.870 -10.617  17.294  0.00  0.00    -0.297 N 
ATOM      9  C   UNL     1      -5.069 -10.040  15.682  0.00  0.00    +0.011 C 
ATOM     10  C   UNL     1      -4.170 -11.099  16.368  0.00  0.00    +0.006 C 
ATOM     11  C   UNL     1      -6.116  -9.514  16.682  0.00  0.00    +0.112 C 
ATOM     12  C   UNL     1      -5.006 -12.206  17.033  0.00  0.00    +0.023 C 
ATOM     14  C   UNL     1      -6.051 -11.617  17.976  0.00  0.00    +0.108 C 
ATOM     19  C   UNL     1      -8.259 -10.767  17.262  0.00  0.00    +0.247 C 
ENDROOT
BRANCH  19  23
ATOM      1  F   UNL     1     -11.272  -6.866  14.613  0.00  0.00    -0.205 F 
ATOM     23  C   UNL     1      -9.048  -9.744  16.567  0.00  0.00    +0.037 A 
ATOM     25  C   UNL     1      -9.392  -9.920  15.227  0.00  0.00    +0.016 A 
ATOM     26  C   UNL     1      -9.456  -8.597  17.247  0.00  0.00    +0.016 A 
ATOM     28  C   UNL     1     -10.142  -8.948  14.566  0.00  0.00    +0.039 A 
ATOM     29  C   UNL     1     -10.207  -7.624  16.587  0.00  0.00    +0.039 A 
ATOM     31  C   UNL     1     -10.549  -7.800  15.246  0.00  0.00    +0.123 A 
ENDBRANCH  19  23
BRANCH   9  13
ATOM     13  C   UNL     1      -5.757 -10.539  14.404  0.00  0.00    +0.020 C 
BRANCH  13  15
ATOM     15  C   UNL     1      -4.956 -10.150  13.170  0.00  0.00    +0.085 C 
BRANCH  15   6
ATOM      6  N   UNL     1      -5.843 -10.062  12.010  0.00  0.00    -0.299 NA
ATOM      7  N   UNL     1      -7.452  -8.745  10.053  0.00  0.00    -0.313 N 
ATOM      8  N   UNL     1      -9.473  -8.810   8.821  0.00  0.00    -0.240 NA
ATOM     17  C   UNL     1      -5.216  -9.275  10.941  0.00  0.00    +0.103 C 
ATOM     18  C   UNL     1      -7.126  -9.460  12.388  0.00  0.00    +0.103 C 
ATOM     20  C   UNL     1      -6.112  -9.223   9.700  0.00  0.00    +0.122 C 
ATOM     21  C   UNL     1      -8.085  -9.414  11.196  0.00  0.00    +0.122 C 
ATOM     24  C   UNL     1      -8.283  -8.214   9.059  0.00  0.00    +0.121 A 
ATOM     27  C   UNL     1      -7.824  -7.099   8.378  0.00  0.00    +0.043 A 
ATOM     30  C   UNL     1      -8.639  -6.561   7.387  0.00  0.00    +0.005 A 
ATOM     32  C   UNL     1     -10.238  -8.259   7.852  0.00  0.00    +0.113 A 
ATOM     33  C   UNL     1      -9.870  -7.145   7.113  0.00  0.00    +0.020 A 
ENDBRANCH  15   6
ENDBRANCH  13  15
ENDBRANCH   9  13
BRANCH  10  16
ATOM     16  C   UNL     1      -3.129 -11.704  15.426  0.00  0.00    +0.124 C 
BRANCH  16  22
ATOM      4  O   UNL     1      -1.557 -10.142  14.410  0.00  0.00    -0.251 OA
ATOM     22  C   UNL     1      -1.892 -10.852  15.346  0.00  0.00    +0.305 C 
BRANCH  22   3
ATOM      3  O   UNL     1      -1.173 -10.980  16.492  0.00  0.00    -0.481 OA
ATOM     34  H   UNL     1      -1.752 -11.043  17.281  0.00  0.00    +0.295 HD
ENDBRANCH  22   3
ENDBRANCH  16  22
ENDBRANCH  10  16
TORSDOF 7
ENDMDL
MODEL 9
REMARK VINA RESULT:      -6.6      2.932      8.323
REMARK  Name = 28960058
REMARK  7 active torsions:
REMARK  status: ('A' for Active; 'I' for Inactive)
REMARK    1  A    between atoms: O_3  and  C_22
REMARK    2  A    between atoms: N_6  and  C_15
REMARK    3  A    between atoms: C_9  and  C_13
REMARK    4  A    between atoms: C_10  and  C_16
REMARK    5  A    between atoms: C_13  and  C_15
REMARK    6  A    between atoms: C_16  and  C_22
REMARK    7  A    between atoms: C_19  and  C_23
REMARK                            x       y       z     vdW  Elec       q    Type
REMARK                         _______ _______ _______ _____ _____    ______ ____
ROOT
ATOM      2  O   UNL     1      -8.805 -11.511  18.196  0.00  0.00    -0.270 OA
ATOM      5  N   UNL     1      -6.853 -10.429  17.494  0.00  0.00    -0.297 N 
ATOM      9  C   UNL     1      -5.167  -9.969  15.727  0.00  0.00    +0.011 C 
ATOM     10  C   UNL     1      -4.192 -10.920  16.465  0.00  0.00    +0.006 C 
ATOM     11  C   UNL     1      -6.176  -9.373  16.727  0.00  0.00    +0.112 C 
ATOM     12  C   UNL     1      -4.947 -11.976  17.291  0.00  0.00    +0.023 C 
ATOM     14  C   UNL     1      -5.961 -11.324  18.227  0.00  0.00    +0.108 C 
ATOM     19  C   UNL     1      -8.235 -10.626  17.560  0.00  0.00    +0.247 C 
ENDROOT
BRANCH  19  23
ATOM      1  F   UNL     1     -11.533  -7.124  14.702  0.00  0.00    -0.205 F 
ATOM     23  C   UNL     1      -9.100  -9.708  16.810  0.00  0.00    +0.037 A 
ATOM     25  C   UNL     1      -9.551  -8.532  17.408  0.00  0.00    +0.016 A 
ATOM     26  C   UNL     1      -9.470 -10.011  15.500  0.00  0.00    +0.016 A 
ATOM     28  C   UNL     1     -10.374  -7.659  16.697  0.00  0.00    +0.039 A 
ATOM     29  C   UNL     1     -10.292  -9.138  14.788  0.00  0.00    +0.039 A 
ATOM     31  C   UNL     1     -10.744  -7.962  15.387  0.00  0.00    +0.123 A 
ENDBRANCH  19  23
BRANCH   9  13
ATOM     13  C   UNL     1      -5.905 -10.623  14.551  0.00  0.00    +0.020 C 
BRANCH  13  15
ATOM     15  C   UNL     1      -6.125  -9.622  13.425  0.00  0.00    +0.085 C 
BRANCH  15   6
ATOM      6  N   UNL     1      -5.434 -10.075  12.218  0.00  0.00    -0.299 NA
ATOM      7  N   UNL     1      -5.205 -10.828   9.473  0.00  0.00    -0.313 N 
ATOM      8  N   UNL     1      -4.224 -12.339   7.938  0.00  0.00    -0.240 NA
ATOM     17  C   UNL     1      -5.530  -9.062  11.159  0.00  0.00    +0.103 C 
ATOM     18  C   UNL     1      -5.998 -11.345  11.747  0.00  0.00    +0.103 C 
ATOM     20  C   UNL     1      -4.763  -9.499   9.908  0.00  0.00    +0.122 C 
ATOM     21  C   UNL     1      -5.246 -11.858  10.517  0.00  0.00    +0.122 C 
ATOM     24  C   UNL     1      -4.975 -11.236   8.153  0.00  0.00    +0.121 A 
ATOM     27  C   UNL     1      -5.542 -10.474   7.146  0.00  0.00    +0.043 A 
ATOM     30  C   UNL     1      -5.322 -10.868   5.830  0.00  0.00    +0.005 A 
ATOM     32  C   UNL     1      -4.032 -12.691   6.646  0.00  0.00    +0.113 A 
ATOM     33  C   UNL     1      -4.554 -11.996   5.567  0.00  0.00    +0.020 A 
ENDBRANCH  15   6
ENDBRANCH  13  15
ENDBRANCH   9  13
BRANCH  10  16
ATOM     16  C   UNL     1      -3.182 -11.587  15.533  0.00  0.00    +0.124 C 
BRANCH  16  22
ATOM      4  O   UNL     1      -1.466 -10.150  14.567  0.00  0.00    -0.251 OA
ATOM     22  C   UNL     1      -1.882 -10.833  15.491  0.00  0.00    +0.305 C 
BRANCH  22   3
ATOM      3  O   UNL     1      -1.209 -11.016  16.657  0.00  0.00    -0.481 OA
ATOM     34  H   UNL     1      -1.107 -11.967  16.874  0.00  0.00    +0.295 HD
ENDBRANCH  22   3
ENDBRANCH  16  22
ENDBRANCH  10  16
TORSDOF 7
ENDMDL
MODEL 10
REMARK VINA RESULT:      -6.5     27.994     31.123
REMARK  Name = 28960058
REMARK  7 active torsions:
REMARK  status: ('A' for Active; 'I' for Inactive)
REMARK    1  A    between atoms: O_3  and  C_22
REMARK    2  A    between atoms: N_6  and  C_15
REMARK    3  A    between atoms: C_9  and  C_13
REMARK    4  A    between atoms: C_10  and  C_16
REMARK    5  A    between atoms: C_13  and  C_15
REMARK    6  A    between atoms: C_16  and  C_22
REMARK    7  A    between atoms: C_19  and  C_23
REMARK                            x       y       z     vdW  Elec       q    Type
REMARK                         _______ _______ _______ _____ _____    ______ ____
ROOT
ATOM      2  O   UNL     1      11.671   6.554  21.858  0.00  0.00    -0.270 OA
ATOM      5  N   UNL     1      11.832   8.832  21.347  0.00  0.00    -0.297 N 
ATOM      9  C   UNL     1      12.840  11.063  21.772  0.00  0.00    +0.011 C 
ATOM     10  C   UNL     1      11.531  11.474  22.492  0.00  0.00    +0.006 C 
ATOM     11  C   UNL     1      12.545   9.962  20.736  0.00  0.00    +0.112 C 
ATOM     12  C   UNL     1      10.798  10.254  23.073  0.00  0.00    +0.023 C 
ATOM     14  C   UNL     1      10.577   9.183  22.008  0.00  0.00    +0.108 C 
ATOM     19  C   UNL     1      12.261   7.502  21.343  0.00  0.00    +0.247 C 
ENDROOT
BRANCH  19  23
ATOM      1  F   UNL     1      17.087   6.303  18.776  0.00  0.00    -0.205 F 
ATOM     23  C   UNL     1      13.527   7.188  20.670  0.00  0.00    +0.037 A 
ATOM     25  C   UNL     1      13.632   7.324  19.286  0.00  0.00    +0.016 A 
ATOM     26  C   UNL     1      14.623   6.754  21.414  0.00  0.00    +0.016 A 
ATOM     28  C   UNL     1      14.834   7.024  18.645  0.00  0.00    +0.039 A 
ATOM     29  C   UNL     1      15.826   6.455  20.774  0.00  0.00    +0.039 A 
ATOM     31  C   UNL     1      15.931   6.590  19.390  0.00  0.00    +0.123 A 
ENDBRANCH  19  23
BRANCH   9  13
ATOM     13  C   UNL     1      13.960  10.616  22.720  0.00  0.00    +0.020 C 
BRANCH  13  15
ATOM     15  C   UNL     1      14.987  11.724  22.908  0.00  0.00    +0.085 C 
BRANCH  15   6
ATOM      6  N   UNL     1      16.207  11.399  22.169  0.00  0.00    -0.299 NA
ATOM      7  N   UNL     1      18.621   9.975  21.621  0.00  0.00    -0.313 N 
ATOM      8  N   UNL     1      20.872  10.149  20.910  0.00  0.00    -0.240 NA
ATOM     17  C   UNL     1      16.158  10.017  21.678  0.00  0.00    +0.103 C 
ATOM     18  C   UNL     1      17.388  11.586  23.019  0.00  0.00    +0.103 C 
ATOM     20  C   UNL     1      17.406   9.682  20.854  0.00  0.00    +0.122 C 
ATOM     21  C   UNL     1      18.676  11.304  22.241  0.00  0.00    +0.122 C 
ATOM     24  C   UNL     1      19.829   9.365  21.264  0.00  0.00    +0.121 A 
ATOM     27  C   UNL     1      19.875   7.981  21.299  0.00  0.00    +0.043 A 
ATOM     30  C   UNL     1      21.070   7.361  20.946  0.00  0.00    +0.005 A 
ATOM     32  C   UNL     1      22.017   9.511  20.575  0.00  0.00    +0.113 A 
ATOM     33  C   UNL     1      22.165   8.133  20.577  0.00  0.00    +0.020 A 
ENDBRANCH  15   6
ENDBRANCH  13  15
ENDBRANCH   9  13
BRANCH  10  16
ATOM     16  C   UNL     1      11.746  12.536  23.570  0.00  0.00    +0.124 C 
BRANCH  16  22
ATOM      4  O   UNL     1      10.457  12.400  25.634  0.00  0.00    -0.251 OA
ATOM     22  C   UNL     1      10.536  12.688  24.449  0.00  0.00    +0.305 C 
BRANCH  22   3
ATOM      3  O   UNL     1       9.508  13.207  23.728  0.00  0.00    -0.481 OA
ATOM     34  H   UNL     1       9.810  13.916  23.121  0.00  0.00    +0.295 HD
ENDBRANCH  22   3
ENDBRANCH  16  22
ENDBRANCH  10  16
TORSDOF 7
ENDMDL
