MODEL 1
REMARK VINA RESULT:      -8.6      0.000      0.000
REMARK  Name = 44716314
REMARK  7 active torsions:
REMARK  status: ('A' for Active; 'I' for Inactive)
REMARK    1  A    between atoms: N_4  and  C_16
REMARK    2  A    between atoms: N_5  and  C_19
REMARK    3  A    between atoms: N_8  and  C_30
REMARK    4  A    between atoms: C_10  and  C_16
REMARK    5  A    between atoms: C_11  and  C_17
REMARK    6  A    between atoms: C_19  and  C_21
REMARK    7  A    between atoms: C_20  and  C_22
REMARK                            x       y       z     vdW  Elec       q    Type
REMARK                         _______ _______ _______ _____ _____    ______ ____
ROOT
ATOM      3  N   UNL     1      14.406   8.901  18.890  0.00  0.00    -0.297 NA
ATOM      9  C   UNL     1      11.855   8.468  18.615  0.00  0.00    +0.005 C 
ATOM     10  C   UNL     1      14.116   7.452  19.057  0.00  0.00    +0.078 C 
ATOM     11  C   UNL     1      12.124   9.579  19.648  0.00  0.00    +0.092 C 
ATOM     12  C   UNL     1      12.595   7.187  19.050  0.00  0.00    +0.025 C 
ATOM     13  C   UNL     1      12.484   8.932  17.290  0.00  0.00    +0.020 C 
ATOM     14  C   UNL     1      13.640   9.696  19.882  0.00  0.00    +0.097 C 
ATOM     15  C   UNL     1      13.959   9.301  17.533  0.00  0.00    +0.085 C 
ENDROOT
BRANCH  11  17
ATOM      2  O   UNL     1      10.591   8.406  21.054  0.00  0.00    -0.275 OA
ATOM      5  N   UNL     1      11.704  10.265  21.905  0.00  0.00    -0.311 N 
ATOM     17  C   UNL     1      11.388   9.332  20.932  0.00  0.00    +0.218 C 
ATOM     33  H   UNL     1      12.380  10.995  21.696  0.00  0.00    +0.149 HD
BRANCH   5  19
ATOM     19  C   UNL     1      11.115  10.262  23.225  0.00  0.00    +0.139 C 
BRANCH  19  21
ATOM      1  F   UNL     1      10.301  15.480  25.178  0.00  0.00    -0.205 F 
ATOM     21  C   UNL     1      10.898  11.653  23.745  0.00  0.00    -0.030 A 
ATOM     23  C   UNL     1      10.904  11.892  25.120  0.00  0.00    +0.008 A 
ATOM     24  C   UNL     1      10.691  12.707  22.855  0.00  0.00    +0.008 A 
ATOM     27  C   UNL     1      10.702  13.184  25.604  0.00  0.00    +0.038 A 
ATOM     28  C   UNL     1      10.489  13.999  23.339  0.00  0.00    +0.038 A 
ATOM     29  C   UNL     1      10.493  14.238  24.713  0.00  0.00    +0.123 A 
ENDBRANCH  19  21
ENDBRANCH   5  19
ENDBRANCH  11  17
BRANCH  10  16
ATOM     16  C   UNL     1      14.792   6.861  20.297  0.00  0.00    +0.164 C 
BRANCH  16   4
ATOM      4  N   UNL     1      16.200   6.427  20.003  0.00  0.00    -0.250 N 
ATOM      6  N   UNL     1      16.504   5.825  18.842  0.00  0.00    -0.065 NA
ATOM      7  N   UNL     1      17.806   5.561  18.863  0.00  0.00    -0.130 NA
ATOM     18  C   UNL     1      17.297   6.567  20.798  0.00  0.00    +0.138 A 
ATOM     20  C   UNL     1      18.306   6.009  20.054  0.00  0.00    +0.113 A 
BRANCH  20  22
ATOM     22  C   UNL     1      19.673   5.906  20.452  0.00  0.00    +0.005 A 
ATOM     25  C   UNL     1      20.326   4.675  20.397  0.00  0.00    +0.032 A 
ATOM     26  C   UNL     1      20.356   7.038  20.897  0.00  0.00    +0.010 A 
ATOM     30  C   UNL     1      21.662   4.575  20.786  0.00  0.00    +0.025 A 
ATOM     31  C   UNL     1      21.692   6.939  21.286  0.00  0.00    +0.002 A 
ATOM     32  C   UNL     1      22.344   5.707  21.230  0.00  0.00    +0.023 A 
BRANCH  30   8
ATOM      8  N   UNL     1      22.322   3.330  20.730  0.00  0.00    -0.358 N 
ATOM     34  H   UNL     1      22.340   2.804  19.867  0.00  0.00    +0.142 HD
ATOM     35  H   UNL     1      22.782   2.964  21.553  0.00  0.00    +0.142 HD
ENDBRANCH  30   8
ENDBRANCH  20  22
ENDBRANCH  16   4
ENDBRANCH  10  16
TORSDOF 7
ENDMDL
MODEL 2
REMARK VINA RESULT:      -8.1     28.260     31.844
REMARK  Name = 44716314
REMARK  7 active torsions:
REMARK  status: ('A' for Active; 'I' for Inactive)
REMARK    1  A    between atoms: N_4  and  C_16
REMARK    2  A    between atoms: N_5  and  C_19
REMARK    3  A    between atoms: N_8  and  C_30
REMARK    4  A    between atoms: C_10  and  C_16
REMARK    5  A    between atoms: C_11  and  C_17
REMARK    6  A    between atoms: C_19  and  C_21
REMARK    7  A    between atoms: C_20  and  C_22
REMARK                            x       y       z     vdW  Elec       q    Type
REMARK                         _______ _______ _______ _____ _____    ______ ____
ROOT
ATOM      3  N   UNL     1     -17.879   3.277  26.428  0.00  0.00    -0.297 NA
ATOM      9  C   UNL     1     -17.902   0.739  27.001  0.00  0.00    +0.005 C 
ATOM     10  C   UNL     1     -16.953   2.544  25.524  0.00  0.00    +0.078 C 
ATOM     11  C   UNL     1     -17.637   1.592  28.256  0.00  0.00    +0.092 C 
ATOM     12  C   UNL     1     -16.832   1.062  25.939  0.00  0.00    +0.025 C 
ATOM     13  C   UNL     1     -19.260   1.191  26.436  0.00  0.00    +0.020 C 
ATOM     14  C   UNL     1     -17.489   3.066  27.844  0.00  0.00    +0.097 C 
ATOM     15  C   UNL     1     -19.240   2.718  26.236  0.00  0.00    +0.085 C 
ENDROOT
BRANCH  11  17
ATOM      2  O   UNL     1     -16.368  -0.030  29.465  0.00  0.00    -0.275 OA
ATOM      5  N   UNL     1     -15.465   2.090  29.137  0.00  0.00    -0.311 N 
ATOM     17  C   UNL     1     -16.434   1.109  29.012  0.00  0.00    +0.218 C 
ATOM     33  H   UNL     1     -15.625   3.005  28.723  0.00  0.00    +0.149 HD
BRANCH   5  19
ATOM     19  C   UNL     1     -14.219   1.886  29.840  0.00  0.00    +0.139 C 
BRANCH  19  21
ATOM      1  F   UNL     1     -14.417   3.887  35.099  0.00  0.00    -0.205 F 
ATOM     21  C   UNL     1     -14.272   2.420  31.242  0.00  0.00    -0.030 A 
ATOM     23  C   UNL     1     -14.680   1.592  32.288  0.00  0.00    +0.008 A 
ATOM     24  C   UNL     1     -13.913   3.743  31.498  0.00  0.00    +0.008 A 
ATOM     27  C   UNL     1     -14.730   2.088  33.591  0.00  0.00    +0.038 A 
ATOM     28  C   UNL     1     -13.962   4.238  32.801  0.00  0.00    +0.038 A 
ATOM     29  C   UNL     1     -14.371   3.411  33.847  0.00  0.00    +0.123 A 
ENDBRANCH  19  21
ENDBRANCH   5  19
ENDBRANCH  11  17
BRANCH  10  16
ATOM     16  C   UNL     1     -15.584   3.220  25.417  0.00  0.00    +0.164 C 
BRANCH  16   4
ATOM      4  N   UNL     1     -15.395   3.873  24.077  0.00  0.00    -0.250 N 
ATOM      6  N   UNL     1     -16.214   3.586  23.052  0.00  0.00    -0.065 NA
ATOM      7  N   UNL     1     -15.811   4.305  22.011  0.00  0.00    -0.130 NA
ATOM     18  C   UNL     1     -14.447   4.783  23.722  0.00  0.00    +0.138 A 
ATOM     20  C   UNL     1     -14.729   5.043  22.404  0.00  0.00    +0.113 A 
BRANCH  20  22
ATOM     22  C   UNL     1     -14.011   5.945  21.562  0.00  0.00    +0.005 A 
ATOM     25  C   UNL     1     -14.703   6.827  20.732  0.00  0.00    +0.032 A 
ATOM     26  C   UNL     1     -12.616   5.944  21.570  0.00  0.00    +0.010 A 
ATOM     30  C   UNL     1     -14.001   7.708  19.911  0.00  0.00    +0.025 A 
ATOM     31  C   UNL     1     -11.914   6.826  20.748  0.00  0.00    +0.002 A 
ATOM     32  C   UNL     1     -12.606   7.707  19.918  0.00  0.00    +0.023 A 
BRANCH  30   8
ATOM      8  N   UNL     1     -14.701   8.600  19.071  0.00  0.00    -0.358 N 
ATOM     34  H   UNL     1     -14.488   8.637  18.082  0.00  0.00    +0.142 HD
ATOM     35  H   UNL     1     -15.420   9.198  19.455  0.00  0.00    +0.142 HD
ENDBRANCH  30   8
ENDBRANCH  20  22
ENDBRANCH  16   4
ENDBRANCH  10  16
TORSDOF 7
ENDMDL
MODEL 3
REMARK VINA RESULT:      -8.0     26.814     30.439
REMARK  Name = 44716314
REMARK  7 active torsions:
REMARK  status: ('A' for Active; 'I' for Inactive)
REMARK    1  A    between atoms: N_4  and  C_16
REMARK    2  A    between atoms: N_5  and  C_19
REMARK    3  A    between atoms: N_8  and  C_30
REMARK    4  A    between atoms: C_10  and  C_16
REMARK    5  A    between atoms: C_11  and  C_17
REMARK    6  A    between atoms: C_19  and  C_21
REMARK    7  A    between atoms: C_20  and  C_22
REMARK                            x       y       z     vdW  Elec       q    Type
REMARK                         _______ _______ _______ _____ _____    ______ ____
ROOT
ATOM      3  N   UNL     1     -17.214   5.020  22.607  0.00  0.00    -0.297 NA
ATOM      9  C   UNL     1     -16.680   3.295  24.480  0.00  0.00    +0.005 C 
ATOM     10  C   UNL     1     -15.746   4.961  22.839  0.00  0.00    +0.078 C 
ATOM     11  C   UNL     1     -17.744   4.308  24.943  0.00  0.00    +0.092 C 
ATOM     12  C   UNL     1     -15.412   4.059  24.048  0.00  0.00    +0.025 C 
ATOM     13  C   UNL     1     -17.244   2.598  23.230  0.00  0.00    +0.020 C 
ATOM     14  C   UNL     1     -17.918   5.388  23.861  0.00  0.00    +0.097 C 
ATOM     15  C   UNL     1     -17.666   3.666  22.204  0.00  0.00    +0.085 C 
ENDROOT
BRANCH  11  17
ATOM      2  O   UNL     1     -17.517   6.115  26.487  0.00  0.00    -0.275 OA
ATOM      5  N   UNL     1     -16.919   3.970  27.166  0.00  0.00    -0.311 N 
ATOM     17  C   UNL     1     -17.395   4.913  26.271  0.00  0.00    +0.218 C 
ATOM     33  H   UNL     1     -16.856   2.997  26.881  0.00  0.00    +0.149 HD
BRANCH   5  19
ATOM     19  C   UNL     1     -16.493   4.299  28.508  0.00  0.00    +0.139 C 
BRANCH  19  21
ATOM      1  F   UNL     1     -13.956  -0.047  31.034  0.00  0.00    -0.205 F 
ATOM     21  C   UNL     1     -15.817   3.140  29.181  0.00  0.00    -0.030 A 
ATOM     23  C   UNL     1     -14.610   3.332  29.855  0.00  0.00    +0.008 A 
ATOM     24  C   UNL     1     -16.395   1.872  29.133  0.00  0.00    +0.008 A 
ATOM     27  C   UNL     1     -13.982   2.256  30.481  0.00  0.00    +0.038 A 
ATOM     28  C   UNL     1     -15.766   0.795  29.759  0.00  0.00    +0.038 A 
ATOM     29  C   UNL     1     -14.559   0.987  30.432  0.00  0.00    +0.123 A 
ENDBRANCH  19  21
ENDBRANCH   5  19
ENDBRANCH  11  17
BRANCH  10  16
ATOM     16  C   UNL     1     -15.120   6.351  22.976  0.00  0.00    +0.164 C 
BRANCH  16   4
ATOM      4  N   UNL     1     -13.912   6.500  22.096  0.00  0.00    -0.250 N 
ATOM      6  N   UNL     1     -12.965   5.548  22.063  0.00  0.00    -0.065 NA
ATOM      7  N   UNL     1     -12.032   5.948  21.206  0.00  0.00    -0.130 NA
ATOM     18  C   UNL     1     -13.612   7.534  21.262  0.00  0.00    +0.138 A 
ATOM     20  C   UNL     1     -12.413   7.163  20.707  0.00  0.00    +0.113 A 
BRANCH  20  22
ATOM     22  C   UNL     1     -11.668   7.920  19.753  0.00  0.00    +0.005 A 
ATOM     25  C   UNL     1     -11.353   7.364  18.513  0.00  0.00    +0.032 A 
ATOM     26  C   UNL     1     -11.256   9.216  20.062  0.00  0.00    +0.010 A 
ATOM     30  C   UNL     1     -10.626   8.105  17.581  0.00  0.00    +0.025 A 
ATOM     31  C   UNL     1     -10.528   9.957  19.130  0.00  0.00    +0.002 A 
ATOM     32  C   UNL     1     -10.213   9.401  17.890  0.00  0.00    +0.023 A 
BRANCH  30   8
ATOM      8  N   UNL     1     -10.307   7.543  16.327  0.00  0.00    -0.358 N 
ATOM     34  H   UNL     1      -9.345   7.518  16.013  0.00  0.00    +0.142 HD
ATOM     35  H   UNL     1     -11.038   7.159  15.744  0.00  0.00    +0.142 HD
ENDBRANCH  30   8
ENDBRANCH  20  22
ENDBRANCH  16   4
ENDBRANCH  10  16
TORSDOF 7
ENDMDL
MODEL 4
REMARK VINA RESULT:      -7.8      1.677      2.343
REMARK  Name = 44716314
REMARK  7 active torsions:
REMARK  status: ('A' for Active; 'I' for Inactive)
REMARK    1  A    between atoms: N_4  and  C_16
REMARK    2  A    between atoms: N_5  and  C_19
REMARK    3  A    between atoms: N_8  and  C_30
REMARK    4  A    between atoms: C_10  and  C_16
REMARK    5  A    between atoms: C_11  and  C_17
REMARK    6  A    between atoms: C_19  and  C_21
REMARK    7  A    between atoms: C_20  and  C_22
REMARK                            x       y       z     vdW  Elec       q    Type
REMARK                         _______ _______ _______ _____ _____    ______ ____
ROOT
ATOM      3  N   UNL     1      12.560   7.016  19.599  0.00  0.00    -0.297 NA
ATOM      9  C   UNL     1      12.188   8.257  21.856  0.00  0.00    +0.005 C 
ATOM     10  C   UNL     1      13.859   7.192  20.302  0.00  0.00    +0.078 C 
ATOM     11  C   UNL     1      11.551   9.028  20.683  0.00  0.00    +0.092 C 
ATOM     12  C   UNL     1      13.690   8.057  21.569  0.00  0.00    +0.025 C 
ATOM     13  C   UNL     1      11.536   6.864  21.876  0.00  0.00    +0.020 C 
ATOM     14  C   UNL     1      11.921   8.334  19.361  0.00  0.00    +0.097 C 
ATOM     15  C   UNL     1      11.668   6.224  20.482  0.00  0.00    +0.085 C 
ENDROOT
BRANCH  11  17
ATOM      2  O   UNL     1      12.817  10.899  19.910  0.00  0.00    -0.275 OA
ATOM      5  N   UNL     1      11.288  11.210  21.637  0.00  0.00    -0.311 N 
ATOM     17  C   UNL     1      11.962  10.471  20.680  0.00  0.00    +0.218 C 
ATOM     33  H   UNL     1      10.598  10.753  22.227  0.00  0.00    +0.149 HD
BRANCH   5  19
ATOM     19  C   UNL     1      11.517  12.621  21.853  0.00  0.00    +0.139 C 
BRANCH  19  21
ATOM      1  F   UNL     1      13.336  13.684  27.075  0.00  0.00    -0.205 F 
ATOM     21  C   UNL     1      12.002  12.904  23.245  0.00  0.00    -0.030 A 
ATOM     23  C   UNL     1      12.040  14.216  23.717  0.00  0.00    +0.008 A 
ATOM     24  C   UNL     1      12.414  11.855  24.067  0.00  0.00    +0.008 A 
ATOM     27  C   UNL     1      12.491  14.480  25.010  0.00  0.00    +0.038 A 
ATOM     28  C   UNL     1      12.865  12.118  25.360  0.00  0.00    +0.038 A 
ATOM     29  C   UNL     1      12.904  13.431  25.832  0.00  0.00    +0.123 A 
ENDBRANCH  19  21
ENDBRANCH   5  19
ENDBRANCH  11  17
BRANCH  10  16
ATOM     16  C   UNL     1      14.952   7.738  19.380  0.00  0.00    +0.164 C 
BRANCH  16   4
ATOM      4  N   UNL     1      16.223   6.947  19.505  0.00  0.00    -0.250 N 
ATOM      6  N   UNL     1      16.511   5.969  18.630  0.00  0.00    -0.065 NA
ATOM      7  N   UNL     1      17.683   5.454  18.986  0.00  0.00    -0.130 NA
ATOM     18  C   UNL     1      17.201   7.085  20.442  0.00  0.00    +0.138 A 
ATOM     20  C   UNL     1      18.118   6.126  20.094  0.00  0.00    +0.113 A 
BRANCH  20  22
ATOM     22  C   UNL     1      19.345   5.862  20.776  0.00  0.00    +0.005 A 
ATOM     25  C   UNL     1      20.219   4.890  20.289  0.00  0.00    +0.032 A 
ATOM     26  C   UNL     1      19.668   6.576  21.929  0.00  0.00    +0.010 A 
ATOM     30  C   UNL     1      21.416   4.632  20.956  0.00  0.00    +0.025 A 
ATOM     31  C   UNL     1      20.866   6.319  22.596  0.00  0.00    +0.002 A 
ATOM     32  C   UNL     1      21.740   5.347  22.109  0.00  0.00    +0.023 A 
BRANCH  30   8
ATOM      8  N   UNL     1      22.300   3.648  20.465  0.00  0.00    -0.358 N 
ATOM     34  H   UNL     1      23.210   3.915  20.113  0.00  0.00    +0.142 HD
ATOM     35  H   UNL     1      22.026   2.675  20.468  0.00  0.00    +0.142 HD
ENDBRANCH  30   8
ENDBRANCH  20  22
ENDBRANCH  16   4
ENDBRANCH  10  16
TORSDOF 7
ENDMDL
MODEL 5
REMARK VINA RESULT:      -7.7      3.696      5.617
REMARK  Name = 44716314
REMARK  7 active torsions:
REMARK  status: ('A' for Active; 'I' for Inactive)
REMARK    1  A    between atoms: N_4  and  C_16
REMARK    2  A    between atoms: N_5  and  C_19
REMARK    3  A    between atoms: N_8  and  C_30
REMARK    4  A    between atoms: C_10  and  C_16
REMARK    5  A    between atoms: C_11  and  C_17
REMARK    6  A    between atoms: C_19  and  C_21
REMARK    7  A    between atoms: C_20  and  C_22
REMARK                            x       y       z     vdW  Elec       q    Type
REMARK                         _______ _______ _______ _____ _____    ______ ____
ROOT
ATOM      3  N   UNL     1      13.649   7.559  20.493  0.00  0.00    -0.297 NA
ATOM      9  C   UNL     1      11.325   8.637  20.036  0.00  0.00    +0.005 C 
ATOM     10  C   UNL     1      13.731   9.034  20.664  0.00  0.00    +0.078 C 
ATOM     11  C   UNL     1      11.753   7.721  18.874  0.00  0.00    +0.092 C 
ATOM     12  C   UNL     1      12.407   9.714  20.252  0.00  0.00    +0.025 C 
ATOM     13  C   UNL     1      11.290   7.762  21.301  0.00  0.00    +0.020 C 
ATOM     14  C   UNL     1      13.188   7.225  19.123  0.00  0.00    +0.097 C 
ATOM     15  C   UNL     1      12.644   7.044  21.456  0.00  0.00    +0.085 C 
ENDROOT
BRANCH  11  17
ATOM      2  O   UNL     1      10.557   8.517  16.967  0.00  0.00    -0.275 OA
ATOM      5  N   UNL     1      12.853   8.878  17.087  0.00  0.00    -0.311 N 
ATOM     17  C   UNL     1      11.633   8.413  17.548  0.00  0.00    +0.218 C 
ATOM     33  H   UNL     1      13.687   8.736  17.651  0.00  0.00    +0.149 HD
BRANCH   5  19
ATOM     19  C   UNL     1      13.013   9.561  15.824  0.00  0.00    +0.139 C 
BRANCH  19  21
ATOM      1  F   UNL     1      17.279  13.234  15.944  0.00  0.00    -0.205 F 
ATOM     21  C   UNL     1      14.150  10.541  15.856  0.00  0.00    -0.030 A 
ATOM     23  C   UNL     1      15.120  10.516  14.854  0.00  0.00    +0.008 A 
ATOM     24  C   UNL     1      14.237  11.475  16.888  0.00  0.00    +0.008 A 
ATOM     27  C   UNL     1      16.177  11.425  14.883  0.00  0.00    +0.038 A 
ATOM     28  C   UNL     1      15.294  12.384  16.918  0.00  0.00    +0.038 A 
ATOM     29  C   UNL     1      16.265  12.359  15.916  0.00  0.00    +0.123 A 
ENDBRANCH  19  21
ENDBRANCH   5  19
ENDBRANCH  11  17
BRANCH  10  16
ATOM     16  C   UNL     1      14.933   9.640  19.936  0.00  0.00    +0.164 C 
BRANCH  16   4
ATOM      4  N   UNL     1      16.222   9.314  20.636  0.00  0.00    -0.250 N 
ATOM      6  N   UNL     1      16.804  10.206  21.454  0.00  0.00    -0.065 NA
ATOM      7  N   UNL     1      17.914   9.646  21.923  0.00  0.00    -0.130 NA
ATOM     18  C   UNL     1      16.941   8.160  20.560  0.00  0.00    +0.138 A 
ATOM     20  C   UNL     1      18.012   8.393  21.385  0.00  0.00    +0.113 A 
BRANCH  20  22
ATOM     22  C   UNL     1      19.073   7.475  21.649  0.00  0.00    +0.005 A 
ATOM     25  C   UNL     1      19.431   6.526  20.691  0.00  0.00    +0.032 A 
ATOM     26  C   UNL     1      19.752   7.527  22.866  0.00  0.00    +0.010 A 
ATOM     30  C   UNL     1      20.467   5.630  20.950  0.00  0.00    +0.025 A 
ATOM     31  C   UNL     1      20.789   6.631  23.125  0.00  0.00    +0.002 A 
ATOM     32  C   UNL     1      21.146   5.682  22.167  0.00  0.00    +0.023 A 
BRANCH  30   8
ATOM      8  N   UNL     1      20.828   4.670  19.981  0.00  0.00    -0.358 N 
ATOM     34  H   UNL     1      20.477   4.747  19.036  0.00  0.00    +0.142 HD
ATOM     35  H   UNL     1      21.443   3.907  20.230  0.00  0.00    +0.142 HD
ENDBRANCH  30   8
ENDBRANCH  20  22
ENDBRANCH  16   4
ENDBRANCH  10  16
TORSDOF 7
ENDMDL
MODEL 6
REMARK VINA RESULT:      -7.6     28.397     30.018
REMARK  Name = 44716314
REMARK  7 active torsions:
REMARK  status: ('A' for Active; 'I' for Inactive)
REMARK    1  A    between atoms: N_4  and  C_16
REMARK    2  A    between atoms: N_5  and  C_19
REMARK    3  A    between atoms: N_8  and  C_30
REMARK    4  A    between atoms: C_10  and  C_16
REMARK    5  A    between atoms: C_11  and  C_17
REMARK    6  A    between atoms: C_19  and  C_21
REMARK    7  A    between atoms: C_20  and  C_22
REMARK                            x       y       z     vdW  Elec       q    Type
REMARK                         _______ _______ _______ _____ _____    ______ ____
ROOT
ATOM      3  N   UNL     1      -6.213 -12.327  17.664  0.00  0.00    -0.297 NA
ATOM      9  C   UNL     1      -6.811 -10.782  19.671  0.00  0.00    +0.005 C 
ATOM     10  C   UNL     1      -6.178 -10.903  17.237  0.00  0.00    +0.078 C 
ATOM     11  C   UNL     1      -7.875 -11.879  19.475  0.00  0.00    +0.092 C 
ATOM     12  C   UNL     1      -6.675  -9.974  18.365  0.00  0.00    +0.025 C 
ATOM     13  C   UNL     1      -5.471 -11.501  19.906  0.00  0.00    +0.020 C 
ATOM     14  C   UNL     1      -7.555 -12.671  18.196  0.00  0.00    +0.097 C 
ATOM     15  C   UNL     1      -5.225 -12.499  18.758  0.00  0.00    +0.085 C 
ENDROOT
BRANCH  11  17
ATOM      2  O   UNL     1      -9.781 -10.797  20.423  0.00  0.00    -0.275 OA
ATOM      5  N   UNL     1      -9.848 -11.443  18.187  0.00  0.00    -0.311 N 
ATOM     17  C   UNL     1      -9.261 -11.305  19.433  0.00  0.00    +0.218 C 
ATOM     33  H   UNL     1      -9.325 -11.884  17.435  0.00  0.00    +0.149 HD
BRANCH   5  19
ATOM     19  C   UNL     1     -11.189 -10.993  17.890  0.00  0.00    +0.139 C 
BRANCH  19  21
ATOM      1  F   UNL     1     -11.261  -5.683  16.018  0.00  0.00    -0.205 F 
ATOM     21  C   UNL     1     -11.208  -9.577  17.392  0.00  0.00    -0.030 A 
ATOM     23  C   UNL     1     -12.413  -8.990  17.005  0.00  0.00    +0.008 A 
ATOM     24  C   UNL     1     -10.020  -8.849  17.314  0.00  0.00    +0.008 A 
ATOM     27  C   UNL     1     -12.431  -7.675  16.541  0.00  0.00    +0.038 A 
ATOM     28  C   UNL     1     -10.038  -7.534  16.850  0.00  0.00    +0.038 A 
ATOM     29  C   UNL     1     -11.243  -6.947  16.463  0.00  0.00    +0.123 A 
ENDBRANCH  19  21
ENDBRANCH   5  19
ENDBRANCH  11  17
BRANCH  10  16
ATOM     16  C   UNL     1      -6.936 -10.667  15.928  0.00  0.00    +0.164 C 
BRANCH  16   4
ATOM      4  N   UNL     1      -5.995 -10.452  14.777  0.00  0.00    -0.250 N 
ATOM      6  N   UNL     1      -4.692 -10.756  14.890  0.00  0.00    -0.065 NA
ATOM      7  N   UNL     1      -4.115 -10.464  13.729  0.00  0.00    -0.130 NA
ATOM     18  C   UNL     1      -6.289  -9.958  13.543  0.00  0.00    +0.138 A 
ATOM     20  C   UNL     1      -5.080  -9.974  12.894  0.00  0.00    +0.113 A 
BRANCH  20  22
ATOM     22  C   UNL     1      -4.852  -9.547  11.550  0.00  0.00    +0.005 A 
ATOM     25  C   UNL     1      -5.862  -8.891  10.846  0.00  0.00    +0.032 A 
ATOM     26  C   UNL     1      -3.620  -9.786  10.943  0.00  0.00    +0.010 A 
ATOM     30  C   UNL     1      -5.638  -8.473   9.534  0.00  0.00    +0.025 A 
ATOM     31  C   UNL     1      -3.397  -9.369   9.631  0.00  0.00    +0.002 A 
ATOM     32  C   UNL     1      -4.406  -8.713   8.926  0.00  0.00    +0.023 A 
BRANCH  30   8
ATOM      8  N   UNL     1      -6.659  -7.811   8.821  0.00  0.00    -0.358 N 
ATOM     34  H   UNL     1      -7.145  -7.028   9.240  0.00  0.00    +0.142 HD
ATOM     35  H   UNL     1      -6.904  -8.114   7.887  0.00  0.00    +0.142 HD
ENDBRANCH  30   8
ENDBRANCH  20  22
ENDBRANCH  16   4
ENDBRANCH  10  16
TORSDOF 7
ENDMDL
MODEL 7
REMARK VINA RESULT:      -7.4     27.947     30.670
REMARK  Name = 44716314
REMARK  7 active torsions:
REMARK  status: ('A' for Active; 'I' for Inactive)
REMARK    1  A    between atoms: N_4  and  C_16
REMARK    2  A    between atoms: N_5  and  C_19
REMARK    3  A    between atoms: N_8  and  C_30
REMARK    4  A    between atoms: C_10  and  C_16
REMARK    5  A    between atoms: C_11  and  C_17
REMARK    6  A    between atoms: C_19  and  C_21
REMARK    7  A    between atoms: C_20  and  C_22
REMARK                            x       y       z     vdW  Elec       q    Type
REMARK                         _______ _______ _______ _____ _____    ______ ____
ROOT
ATOM      3  N   UNL     1      -5.646 -10.164  17.453  0.00  0.00    -0.297 NA
ATOM      9  C   UNL     1      -4.995 -12.673  17.224  0.00  0.00    +0.005 C 
ATOM     10  C   UNL     1      -6.777 -10.930  16.866  0.00  0.00    +0.078 C 
ATOM     11  C   UNL     1      -3.937 -11.761  16.574  0.00  0.00    +0.092 C 
ATOM     12  C   UNL     1      -6.367 -12.390  16.578  0.00  0.00    +0.025 C 
ATOM     13  C   UNL     1      -5.091 -12.259  18.703  0.00  0.00    +0.020 C 
ATOM     14  C   UNL     1      -4.435 -10.306  16.607  0.00  0.00    +0.097 C 
ATOM     15  C   UNL     1      -5.347 -10.743  18.787  0.00  0.00    +0.085 C 
ENDROOT
BRANCH  11  17
ATOM      2  O   UNL     1      -3.699 -13.372  14.828  0.00  0.00    -0.275 OA
ATOM      5  N   UNL     1      -3.194 -11.144  14.381  0.00  0.00    -0.311 N 
ATOM     17  C   UNL     1      -3.610 -12.198  15.177  0.00  0.00    +0.218 C 
ATOM     33  H   UNL     1      -3.155 -10.208  14.774  0.00  0.00    +0.149 HD
BRANCH   5  19
ATOM     19  C   UNL     1      -2.800 -11.303  13.000  0.00  0.00    +0.139 C 
BRANCH  19  21
ATOM      1  F   UNL     1      -5.595  -7.796   9.596  0.00  0.00    -0.205 F 
ATOM     21  C   UNL     1      -3.545 -10.368  12.093  0.00  0.00    -0.030 A 
ATOM     23  C   UNL     1      -2.936  -9.888  10.933  0.00  0.00    +0.008 A 
ATOM     24  C   UNL     1      -4.847  -9.979  12.409  0.00  0.00    +0.008 A 
ATOM     27  C   UNL     1      -3.628  -9.019  10.090  0.00  0.00    +0.038 A 
ATOM     28  C   UNL     1      -5.539  -9.110  11.566  0.00  0.00    +0.038 A 
ATOM     29  C   UNL     1      -4.929  -8.629  10.406  0.00  0.00    +0.123 A 
ENDBRANCH  19  21
ENDBRANCH   5  19
ENDBRANCH  11  17
BRANCH  10  16
ATOM     16  C   UNL     1      -7.364 -10.248  15.628  0.00  0.00    +0.164 C 
BRANCH  16   4
ATOM      4  N   UNL     1      -8.491  -9.323  15.991  0.00  0.00    -0.250 N 
ATOM      6  N   UNL     1      -8.617  -8.852  17.242  0.00  0.00    -0.065 NA
ATOM      7  N   UNL     1      -9.690  -8.069  17.264  0.00  0.00    -0.130 NA
ATOM     18  C   UNL     1      -9.478  -8.855  15.178  0.00  0.00    +0.138 A 
ATOM     20  C   UNL     1     -10.229  -8.061  16.008  0.00  0.00    +0.113 A 
BRANCH  20  22
ATOM     22  C   UNL     1     -11.397  -7.332  15.628  0.00  0.00    +0.005 A 
ATOM     25  C   UNL     1     -11.288  -6.241  14.765  0.00  0.00    +0.032 A 
ATOM     26  C   UNL     1     -12.645  -7.710  16.121  0.00  0.00    +0.010 A 
ATOM     30  C   UNL     1     -12.429  -5.529  14.394  0.00  0.00    +0.025 A 
ATOM     31  C   UNL     1     -13.786  -6.998  15.750  0.00  0.00    +0.002 A 
ATOM     32  C   UNL     1     -13.677  -5.907  14.887  0.00  0.00    +0.023 A 
BRANCH  30   8
ATOM      8  N   UNL     1     -12.320  -4.426  13.522  0.00  0.00    -0.358 N 
ATOM     34  H   UNL     1     -12.909  -3.615  13.655  0.00  0.00    +0.142 HD
ATOM     35  H   UNL     1     -11.648  -4.443  12.766  0.00  0.00    +0.142 HD
ENDBRANCH  30   8
ENDBRANCH  20  22
ENDBRANCH  16   4
ENDBRANCH  10  16
TORSDOF 7
ENDMDL
MODEL 8
REMARK VINA RESULT:      -7.4     28.079     30.768
REMARK  Name = 44716314
REMARK  7 active torsions:
REMARK  status: ('A' for Active; 'I' for Inactive)
REMARK    1  A    between atoms: N_4  and  C_16
REMARK    2  A    between atoms: N_5  and  C_19
REMARK    3  A    between atoms: N_8  and  C_30
REMARK    4  A    between atoms: C_10  and  C_16
REMARK    5  A    between atoms: C_11  and  C_17
REMARK    6  A    between atoms: C_19  and  C_21
REMARK    7  A    between atoms: C_20  and  C_22
REMARK                            x       y       z     vdW  Elec       q    Type
REMARK                         _______ _______ _______ _____ _____    ______ ____
ROOT
ATOM      3  N   UNL     1      -5.135 -10.015  11.719  0.00  0.00    -0.297 NA
ATOM      9  C   UNL     1      -4.310  -9.329   9.349  0.00  0.00    +0.005 C 
ATOM     10  C   UNL     1      -3.661  -9.820  11.732  0.00  0.00    +0.078 C 
ATOM     11  C   UNL     1      -5.168 -10.608   9.293  0.00  0.00    +0.092 C 
ATOM     12  C   UNL     1      -3.125  -9.561  10.307  0.00  0.00    +0.025 C 
ATOM     13  C   UNL     1      -5.191  -8.230   9.968  0.00  0.00    +0.020 C 
ATOM     14  C   UNL     1      -5.508 -11.052  10.726  0.00  0.00    +0.097 C 
ATOM     15  C   UNL     1      -5.761  -8.734  11.307  0.00  0.00    +0.085 C 
ENDROOT
BRANCH  11  17
ATOM      2  O   UNL     1      -3.968 -12.663   9.090  0.00  0.00    -0.275 OA
ATOM      5  N   UNL     1      -4.499 -11.473   7.161  0.00  0.00    -0.311 N 
ATOM     17  C   UNL     1      -4.484 -11.702   8.526  0.00  0.00    +0.218 C 
ATOM     33  H   UNL     1      -4.955 -10.640   6.799  0.00  0.00    +0.149 HD
BRANCH   5  19
ATOM     19  C   UNL     1      -3.889 -12.366   6.203  0.00  0.00    +0.139 C 
BRANCH  19  21
ATOM      1  F   UNL     1      -6.744 -12.524   1.353  0.00  0.00    -0.205 F 
ATOM     21  C   UNL     1      -4.650 -12.408   4.910  0.00  0.00    -0.030 A 
ATOM     23  C   UNL     1      -4.042 -12.909   3.759  0.00  0.00    +0.008 A 
ATOM     24  C   UNL     1      -5.966 -11.947   4.860  0.00  0.00    +0.008 A 
ATOM     27  C   UNL     1      -4.749 -12.948   2.557  0.00  0.00    +0.038 A 
ATOM     28  C   UNL     1      -6.673 -11.986   3.659  0.00  0.00    +0.038 A 
ATOM     29  C   UNL     1      -6.065 -12.486   2.506  0.00  0.00    +0.123 A 
ENDBRANCH  19  21
ENDBRANCH   5  19
ENDBRANCH  11  17
BRANCH  10  16
ATOM     16  C   UNL     1      -2.925 -10.974  12.417  0.00  0.00    +0.164 C 
BRANCH  16   4
ATOM      4  N   UNL     1      -3.003 -10.866  13.913  0.00  0.00    -0.250 N 
ATOM      6  N   UNL     1      -1.928 -10.505  14.633  0.00  0.00    -0.065 NA
ATOM      7  N   UNL     1      -2.293 -10.494  15.910  0.00  0.00    -0.130 NA
ATOM     18  C   UNL     1      -4.085 -11.095  14.709  0.00  0.00    +0.138 A 
ATOM     20  C   UNL     1      -3.610 -10.853  15.973  0.00  0.00    +0.113 A 
BRANCH  20  22
ATOM     22  C   UNL     1      -4.368 -10.957  17.179  0.00  0.00    +0.005 A 
ATOM     25  C   UNL     1      -5.599 -10.310  17.288  0.00  0.00    +0.032 A 
ATOM     26  C   UNL     1      -3.877 -11.706  18.249  0.00  0.00    +0.010 A 
ATOM     30  C   UNL     1      -6.339 -10.412  18.466  0.00  0.00    +0.025 A 
ATOM     31  C   UNL     1      -4.617 -11.808  19.427  0.00  0.00    +0.002 A 
ATOM     32  C   UNL     1      -5.848 -11.160  19.535  0.00  0.00    +0.023 A 
BRANCH  30   8
ATOM      8  N   UNL     1      -7.584  -9.757  18.576  0.00  0.00    -0.358 N 
ATOM     34  H   UNL     1      -8.367 -10.060  18.013  0.00  0.00    +0.142 HD
ATOM     35  H   UNL     1      -7.695  -8.988  19.223  0.00  0.00    +0.142 HD
ENDBRANCH  30   8
ENDBRANCH  20  22
ENDBRANCH  16   4
ENDBRANCH  10  16
TORSDOF 7
ENDMDL
MODEL 9
REMARK VINA RESULT:      -7.4     26.916     29.868
REMARK  Name = 44716314
REMARK  7 active torsions:
REMARK  status: ('A' for Active; 'I' for Inactive)
REMARK    1  A    between atoms: N_4  and  C_16
REMARK    2  A    between atoms: N_5  and  C_19
REMARK    3  A    between atoms: N_8  and  C_30
REMARK    4  A    between atoms: C_10  and  C_16
REMARK    5  A    between atoms: C_11  and  C_17
REMARK    6  A    between atoms: C_19  and  C_21
REMARK    7  A    between atoms: C_20  and  C_22
REMARK                            x       y       z     vdW  Elec       q    Type
REMARK                         _______ _______ _______ _____ _____    ______ ____
ROOT
ATOM      3  N   UNL     1      -7.023  -9.939   9.749  0.00  0.00    -0.297 NA
ATOM      9  C   UNL     1      -4.851  -8.871  10.707  0.00  0.00    +0.005 C 
ATOM     10  C   UNL     1      -7.181  -9.687  11.206  0.00  0.00    +0.078 C 
ATOM     11  C   UNL     1      -4.541 -10.161   9.924  0.00  0.00    +0.092 C 
ATOM     12  C   UNL     1      -5.857  -9.196  11.830  0.00  0.00    +0.025 C 
ATOM     13  C   UNL     1      -5.553  -7.915   9.727  0.00  0.00    +0.020 C 
ATOM     14  C   UNL     1      -5.862 -10.829   9.504  0.00  0.00    +0.097 C 
ATOM     15  C   UNL     1      -6.754  -8.637   9.089  0.00  0.00    +0.085 C 
ENDROOT
BRANCH  11  17
ATOM      2  O   UNL     1      -3.810 -12.317  10.645  0.00  0.00    -0.275 OA
ATOM      5  N   UNL     1      -2.775 -10.425  11.521  0.00  0.00    -0.311 N 
ATOM     17  C   UNL     1      -3.679 -11.099  10.718  0.00  0.00    +0.218 C 
ATOM     33  H   UNL     1      -2.753  -9.409  11.506  0.00  0.00    +0.149 HD
BRANCH   5  19
ATOM     19  C   UNL     1      -1.845 -11.097  12.401  0.00  0.00    +0.139 C 
BRANCH  19  21
ATOM      1  F   UNL     1      -3.635 -11.111  17.739  0.00  0.00    -0.205 F 
ATOM     21  C   UNL     1      -2.322 -11.101  13.824  0.00  0.00    -0.030 A 
ATOM     23  C   UNL     1      -3.535 -11.707  14.151  0.00  0.00    +0.008 A 
ATOM     24  C   UNL     1      -1.553 -10.498  14.819  0.00  0.00    +0.008 A 
ATOM     27  C   UNL     1      -3.979 -11.711  15.474  0.00  0.00    +0.038 A 
ATOM     28  C   UNL     1      -1.996 -10.501  16.141  0.00  0.00    +0.038 A 
ATOM     29  C   UNL     1      -3.210 -11.107  16.469  0.00  0.00    +0.123 A 
ENDBRANCH  19  21
ENDBRANCH   5  19
ENDBRANCH  11  17
BRANCH  10  16
ATOM     16  C   UNL     1      -7.746 -10.900  11.950  0.00  0.00    +0.164 C 
BRANCH  16   4
ATOM      4  N   UNL     1      -7.901 -10.621  13.419  0.00  0.00    -0.250 N 
ATOM      6  N   UNL     1      -8.679  -9.614  13.848  0.00  0.00    -0.065 NA
ATOM      7  N   UNL     1      -8.625  -9.610  15.175  0.00  0.00    -0.130 NA
ATOM     18  C   UNL     1      -7.329 -11.290  14.457  0.00  0.00    +0.138 A 
ATOM     20  C   UNL     1      -7.802 -10.630  15.564  0.00  0.00    +0.113 A 
BRANCH  20  22
ATOM     22  C   UNL     1      -7.490 -10.952  16.920  0.00  0.00    +0.005 A 
ATOM     25  C   UNL     1      -7.860 -12.190  17.447  0.00  0.00    +0.032 A 
ATOM     26  C   UNL     1      -6.815 -10.028  17.717  0.00  0.00    +0.010 A 
ATOM     30  C   UNL     1      -7.555 -12.503  18.771  0.00  0.00    +0.025 A 
ATOM     31  C   UNL     1      -6.510 -10.341  19.042  0.00  0.00    +0.002 A 
ATOM     32  C   UNL     1      -6.880 -11.579  19.568  0.00  0.00    +0.023 A 
BRANCH  30   8
ATOM      8  N   UNL     1      -7.929 -13.754  19.304  0.00  0.00    -0.358 N 
ATOM     34  H   UNL     1      -8.875 -14.093  19.185  0.00  0.00    +0.142 HD
ATOM     35  H   UNL     1      -7.251 -14.316  19.802  0.00  0.00    +0.142 HD
ENDBRANCH  30   8
ENDBRANCH  20  22
ENDBRANCH  16   4
ENDBRANCH  10  16
TORSDOF 7
ENDMDL
MODEL 10
REMARK VINA RESULT:      -7.3     13.691     18.363
REMARK  Name = 44716314
REMARK  7 active torsions:
REMARK  status: ('A' for Active; 'I' for Inactive)
REMARK    1  A    between atoms: N_4  and  C_16
REMARK    2  A    between atoms: N_5  and  C_19
REMARK    3  A    between atoms: N_8  and  C_30
REMARK    4  A    between atoms: C_10  and  C_16
REMARK    5  A    between atoms: C_11  and  C_17
REMARK    6  A    between atoms: C_19  and  C_21
REMARK    7  A    between atoms: C_20  and  C_22
REMARK                            x       y       z     vdW  Elec       q    Type
REMARK                         _______ _______ _______ _____ _____    ______ ____
ROOT
ATOM      3  N   UNL     1      10.836   7.107   7.207  0.00  0.00    -0.297 NA
ATOM      9  C   UNL     1       9.423   5.250   6.056  0.00  0.00    +0.005 C 
ATOM     10  C   UNL     1       9.476   7.623   6.899  0.00  0.00    +0.078 C 
ATOM     11  C   UNL     1      10.773   5.448   5.341  0.00  0.00    +0.092 C 
ATOM     12  C   UNL     1       8.667   6.594   6.081  0.00  0.00    +0.025 C 
ATOM     13  C   UNL     1       9.743   4.879   7.515  0.00  0.00    +0.020 C 
ATOM     14  C   UNL     1      11.506   6.648   5.965  0.00  0.00    +0.097 C 
ATOM     15  C   UNL     1      10.687   5.939   8.111  0.00  0.00    +0.085 C 
ENDROOT
BRANCH  11  17
ATOM      2  O   UNL     1      10.436   6.727   3.353  0.00  0.00    -0.275 OA
ATOM      5  N   UNL     1      10.621   4.413   3.186  0.00  0.00    -0.311 N 
ATOM     17  C   UNL     1      10.597   5.621   3.861  0.00  0.00    +0.218 C 
ATOM     33  H   UNL     1      10.761   3.551   3.708  0.00  0.00    +0.149 HD
BRANCH   5  19
ATOM     19  C   UNL     1      10.452   4.303   1.755  0.00  0.00    +0.139 C 
BRANCH  19  21
ATOM      1  F   UNL     1      15.380   3.772  -0.916  0.00  0.00    -0.205 F 
ATOM     21  C   UNL     1      11.766   4.161   1.043  0.00  0.00    -0.030 A 
ATOM     23  C   UNL     1      11.892   4.587  -0.279  0.00  0.00    +0.008 A 
ATOM     24  C   UNL     1      12.861   3.604   1.704  0.00  0.00    +0.008 A 
ATOM     27  C   UNL     1      13.113   4.456  -0.941  0.00  0.00    +0.038 A 
ATOM     28  C   UNL     1      14.081   3.472   1.042  0.00  0.00    +0.038 A 
ATOM     29  C   UNL     1      14.208   3.897  -0.281  0.00  0.00    +0.123 A 
ENDBRANCH  19  21
ENDBRANCH   5  19
ENDBRANCH  11  17
BRANCH  10  16
ATOM     16  C   UNL     1       9.511   8.993   6.217  0.00  0.00    +0.164 C 
BRANCH  16   4
ATOM      4  N   UNL     1       9.615  10.105   7.221  0.00  0.00    -0.250 N 
ATOM      6  N   UNL     1       9.875  11.363   6.828  0.00  0.00    -0.065 NA
ATOM      7  N   UNL     1       9.905  12.120   7.920  0.00  0.00    -0.130 NA
ATOM     18  C   UNL     1       9.471  10.022   8.573  0.00  0.00    +0.138 A 
ATOM     20  C   UNL     1       9.660  11.313   8.996  0.00  0.00    +0.113 A 
BRANCH  20  22
ATOM     22  C   UNL     1       9.610  11.759  10.352  0.00  0.00    +0.005 A 
ATOM     25  C   UNL     1      10.769  11.763  11.128  0.00  0.00    +0.032 A 
ATOM     26  C   UNL     1       8.403  12.191  10.900  0.00  0.00    +0.010 A 
ATOM     30  C   UNL     1      10.720  12.199  12.452  0.00  0.00    +0.025 A 
ATOM     31  C   UNL     1       8.353  12.627  12.224  0.00  0.00    +0.002 A 
ATOM     32  C   UNL     1       9.512  12.631  13.000  0.00  0.00    +0.023 A 
BRANCH  30   8
ATOM      8  N   UNL     1      11.892  12.203  13.238  0.00  0.00    -0.358 N 
ATOM     34  H   UNL     1      11.832  12.355  14.236  0.00  0.00    +0.142 HD
ATOM     35  H   UNL     1      12.792  12.048  12.804  0.00  0.00    +0.142 HD
ENDBRANCH  30   8
ENDBRANCH  20  22
ENDBRANCH  16   4
ENDBRANCH  10  16
TORSDOF 7
ENDMDL
