MODEL 1
REMARK VINA RESULT:      -5.3      0.000      0.000
REMARK  Name = 45783417
REMARK  11 active torsions:
REMARK  status: ('A' for Active; 'I' for Inactive)
REMARK    1  A    between atoms: O_2  and  C_19
REMARK    2  A    between atoms: O_2  and  C_23
REMARK    3  A    between atoms: O_3  and  C_24
REMARK    4  A    between atoms: O_3  and  C_25
REMARK    5  A    between atoms: N_4  and  C_12
REMARK    6  A    between atoms: C_8  and  C_14
REMARK    7  A    between atoms: C_12  and  C_13
REMARK    8  A    between atoms: C_13  and  C_15
REMARK    9  A    between atoms: C_13  and  C_16
REMARK   10  A    between atoms: C_17  and  C_18
REMARK   11  A    between atoms: C_23  and  C_24
REMARK                            x       y       z     vdW  Elec       q    Type
REMARK                         _______ _______ _______ _____ _____    ______ ____
ROOT
ATOM      1  O   UNL     1      14.418   9.273  22.721  0.00  0.00    -0.336 OA
ATOM      5  N   UNL     1      15.854   9.712  21.060  0.00  0.00    -0.190 NA
ATOM      6  N   UNL     1      14.830   8.030  22.224  0.00  0.00    -0.056 NA
ATOM     14  C   UNL     1      15.068  10.208  21.981  0.00  0.00    +0.245 A 
ATOM     17  C   UNL     1      15.675   8.372  21.248  0.00  0.00    +0.207 A 
ENDROOT
BRANCH  17  18
ATOM      7  N   UNL     1      16.369   5.918  18.531  0.00  0.00    -0.221 NA
ATOM     18  C   UNL     1      16.355   7.401  20.440  0.00  0.00    +0.084 A 
ATOM     19  C   UNL     1      15.767   6.835  19.320  0.00  0.00    +0.226 A 
ATOM     20  C   UNL     1      17.644   6.999  20.771  0.00  0.00    +0.018 A 
ATOM     21  C   UNL     1      18.298   6.058  19.983  0.00  0.00    +0.021 A 
ATOM     22  C   UNL     1      17.622   5.552  18.883  0.00  0.00    +0.114 A 
BRANCH  19   2
ATOM      2  O   UNL     1      14.496   7.199  18.954  0.00  0.00    -0.474 OA
BRANCH   2  23
ATOM     23  C   UNL     1      14.283   7.471  17.574  0.00  0.00    +0.258 C 
BRANCH  23  24
ATOM     24  C   UNL     1      14.219   8.972  17.370  0.00  0.00    +0.200 C 
BRANCH  24   3
ATOM      3  O   UNL     1      13.306   9.530  18.307  0.00  0.00    -0.380 OA
ATOM     25  C   UNL     1      13.575  10.905  18.542  0.00  0.00    +0.194 C 
ENDBRANCH  24   3
ENDBRANCH  23  24
ENDBRANCH   2  23
ENDBRANCH  19   2
ENDBRANCH  17  18
BRANCH  14   8
ATOM      4  N   UNL     1      13.458  11.849  22.936  0.00  0.00    -0.291 NA
ATOM      8  C   UNL     1      14.790  11.656  22.327  0.00  0.00    +0.146 C 
ATOM      9  C   UNL     1      15.779  12.220  23.364  0.00  0.00    +0.030 C 
ATOM     10  C   UNL     1      13.572  13.008  23.822  0.00  0.00    +0.085 C 
ATOM     11  C   UNL     1      14.910  12.761  24.490  0.00  0.00    +0.017 C 
BRANCH   4  12
ATOM     12  C   UNL     1      12.395  12.013  21.953  0.00  0.00    +0.088 C 
BRANCH  12  13
ATOM     13  C   UNL     1      11.218  11.053  22.193  0.00  0.00    -0.003 C 
ATOM     15  C   UNL     1      11.353   9.832  21.279  0.00  0.00    +0.008 C 
ATOM     16  C   UNL     1      11.120  10.596  23.650  0.00  0.00    +0.008 C 
ENDBRANCH  12  13
ENDBRANCH   4  12
ENDBRANCH  14   8
TORSDOF 8
ENDMDL
MODEL 2
REMARK VINA RESULT:      -5.0     27.255     29.105
REMARK  Name = 45783417
REMARK  11 active torsions:
REMARK  status: ('A' for Active; 'I' for Inactive)
REMARK    1  A    between atoms: O_2  and  C_19
REMARK    2  A    between atoms: O_2  and  C_23
REMARK    3  A    between atoms: O_3  and  C_24
REMARK    4  A    between atoms: O_3  and  C_25
REMARK    5  A    between atoms: N_4  and  C_12
REMARK    6  A    between atoms: C_8  and  C_14
REMARK    7  A    between atoms: C_12  and  C_13
REMARK    8  A    between atoms: C_13  and  C_15
REMARK    9  A    between atoms: C_13  and  C_16
REMARK   10  A    between atoms: C_17  and  C_18
REMARK   11  A    between atoms: C_23  and  C_24
REMARK                            x       y       z     vdW  Elec       q    Type
REMARK                         _______ _______ _______ _____ _____    ______ ____
ROOT
ATOM      1  O   UNL     1      -2.102 -10.298  14.552  0.00  0.00    -0.336 OA
ATOM      5  N   UNL     1      -4.142 -11.203  14.738  0.00  0.00    -0.190 NA
ATOM      6  N   UNL     1      -2.420 -10.266  15.916  0.00  0.00    -0.056 NA
ATOM     14  C   UNL     1      -3.169 -10.865  13.931  0.00  0.00    +0.245 A 
ATOM     17  C   UNL     1      -3.637 -10.817  15.945  0.00  0.00    +0.207 A 
ENDROOT
BRANCH  17  18
ATOM      7  N   UNL     1      -6.396 -10.649  18.444  0.00  0.00    -0.221 NA
ATOM     18  C   UNL     1      -4.375 -10.992  17.162  0.00  0.00    +0.084 A 
ATOM     19  C   UNL     1      -5.664 -10.507  17.317  0.00  0.00    +0.226 A 
ATOM     20  C   UNL     1      -3.802 -11.667  18.234  0.00  0.00    +0.018 A 
ATOM     21  C   UNL     1      -4.523 -11.834  19.411  0.00  0.00    +0.021 A 
ATOM     22  C   UNL     1      -5.806 -11.311  19.464  0.00  0.00    +0.114 A 
BRANCH  19   2
ATOM      2  O   UNL     1      -6.272  -9.834  16.288  0.00  0.00    -0.474 OA
BRANCH   2  23
ATOM     23  C   UNL     1      -7.533 -10.333  15.855  0.00  0.00    +0.258 C 
BRANCH  23  24
ATOM     24  C   UNL     1      -8.518  -9.185  15.775  0.00  0.00    +0.200 C 
BRANCH  24   3
ATOM      3  O   UNL     1      -8.617  -8.567  17.051  0.00  0.00    -0.380 OA
ATOM     25  C   UNL     1      -9.919  -8.046  17.280  0.00  0.00    +0.194 C 
ENDBRANCH  24   3
ENDBRANCH  23  24
ENDBRANCH   2  23
ENDBRANCH  19   2
ENDBRANCH  17  18
BRANCH  14   8
ATOM      4  N   UNL     1      -4.213 -10.404  11.718  0.00  0.00    -0.291 NA
ATOM      8  C   UNL     1      -3.072 -11.018  12.427  0.00  0.00    +0.146 C 
ATOM      9  C   UNL     1      -1.828 -10.327  11.838  0.00  0.00    +0.030 C 
ATOM     10  C   UNL     1      -3.711  -9.987  10.410  0.00  0.00    +0.085 C 
ATOM     11  C   UNL     1      -2.364  -9.389  10.767  0.00  0.00    +0.017 C 
BRANCH   4  12
ATOM     12  C   UNL     1      -5.364 -11.291  11.607  0.00  0.00    +0.088 C 
BRANCH  12  13
ATOM     13  C   UNL     1      -6.685 -10.587  11.960  0.00  0.00    -0.003 C 
ATOM     15  C   UNL     1      -6.393  -9.202  12.543  0.00  0.00    +0.008 C 
ATOM     16  C   UNL     1      -7.619 -10.451  10.755  0.00  0.00    +0.008 C 
ENDBRANCH  12  13
ENDBRANCH   4  12
ENDBRANCH  14   8
TORSDOF 8
ENDMDL
MODEL 3
REMARK VINA RESULT:      -5.0     27.754     29.151
REMARK  Name = 45783417
REMARK  11 active torsions:
REMARK  status: ('A' for Active; 'I' for Inactive)
REMARK    1  A    between atoms: O_2  and  C_19
REMARK    2  A    between atoms: O_2  and  C_23
REMARK    3  A    between atoms: O_3  and  C_24
REMARK    4  A    between atoms: O_3  and  C_25
REMARK    5  A    between atoms: N_4  and  C_12
REMARK    6  A    between atoms: C_8  and  C_14
REMARK    7  A    between atoms: C_12  and  C_13
REMARK    8  A    between atoms: C_13  and  C_15
REMARK    9  A    between atoms: C_13  and  C_16
REMARK   10  A    between atoms: C_17  and  C_18
REMARK   11  A    between atoms: C_23  and  C_24
REMARK                            x       y       z     vdW  Elec       q    Type
REMARK                         _______ _______ _______ _____ _____    ______ ____
ROOT
ATOM      1  O   UNL     1      -4.909 -12.319  16.351  0.00  0.00    -0.336 OA
ATOM      5  N   UNL     1      -4.637 -10.207  15.656  0.00  0.00    -0.190 NA
ATOM      6  N   UNL     1      -4.339 -12.399  15.074  0.00  0.00    -0.056 NA
ATOM     14  C   UNL     1      -5.050 -10.994  16.617  0.00  0.00    +0.245 A 
ATOM     17  C   UNL     1      -4.209 -11.114  14.731  0.00  0.00    +0.207 A 
ENDROOT
BRANCH  17  18
ATOM      7  N   UNL     1      -3.985  -9.909  11.212  0.00  0.00    -0.221 NA
ATOM     18  C   UNL     1      -3.658 -10.703  13.472  0.00  0.00    +0.084 A 
ATOM     19  C   UNL     1      -4.459 -10.303  12.414  0.00  0.00    +0.226 A 
ATOM     20  C   UNL     1      -2.280 -10.697  13.283  0.00  0.00    +0.018 A 
ATOM     21  C   UNL     1      -1.753 -10.297  12.060  0.00  0.00    +0.021 A 
ATOM     22  C   UNL     1      -2.641  -9.916  11.066  0.00  0.00    +0.114 A 
BRANCH  19   2
ATOM      2  O   UNL     1      -5.824 -10.293  12.552  0.00  0.00    -0.474 OA
BRANCH   2  23
ATOM     23  C   UNL     1      -6.504  -9.131  12.093  0.00  0.00    +0.258 C 
BRANCH  23  24
ATOM     24  C   UNL     1      -7.671  -9.552  11.224  0.00  0.00    +0.200 C 
BRANCH  24   3
ATOM      3  O   UNL     1      -7.850  -8.594  10.188  0.00  0.00    -0.380 OA
ATOM     25  C   UNL     1      -6.729  -8.552   9.317  0.00  0.00    +0.194 C 
ENDBRANCH  24   3
ENDBRANCH  23  24
ENDBRANCH   2  23
ENDBRANCH  19   2
ENDBRANCH  17  18
BRANCH  14   8
ATOM      4  N   UNL     1      -7.127 -10.550  17.917  0.00  0.00    -0.291 NA
ATOM      8  C   UNL     1      -5.652 -10.635  17.959  0.00  0.00    +0.146 C 
ATOM      9  C   UNL     1      -5.353 -11.685  19.045  0.00  0.00    +0.030 C 
ATOM     10  C   UNL     1      -7.600 -10.907  19.254  0.00  0.00    +0.085 C 
ATOM     11  C   UNL     1      -6.713 -12.087  19.596  0.00  0.00    +0.017 C 
BRANCH   4  12
ATOM     12  C   UNL     1      -7.615  -9.245  17.492  0.00  0.00    +0.088 C 
BRANCH  12  13
ATOM     13  C   UNL     1      -8.943  -9.335  16.722  0.00  0.00    -0.003 C 
ATOM     15  C   UNL     1      -9.754  -8.054  16.939  0.00  0.00    +0.008 C 
ATOM     16  C   UNL     1      -8.739  -9.565  15.223  0.00  0.00    +0.008 C 
ENDBRANCH  12  13
ENDBRANCH   4  12
ENDBRANCH  14   8
TORSDOF 8
ENDMDL
MODEL 4
REMARK VINA RESULT:      -4.9     15.689     18.973
REMARK  Name = 45783417
REMARK  11 active torsions:
REMARK  status: ('A' for Active; 'I' for Inactive)
REMARK    1  A    between atoms: O_2  and  C_19
REMARK    2  A    between atoms: O_2  and  C_23
REMARK    3  A    between atoms: O_3  and  C_24
REMARK    4  A    between atoms: O_3  and  C_25
REMARK    5  A    between atoms: N_4  and  C_12
REMARK    6  A    between atoms: C_8  and  C_14
REMARK    7  A    between atoms: C_12  and  C_13
REMARK    8  A    between atoms: C_13  and  C_15
REMARK    9  A    between atoms: C_13  and  C_16
REMARK   10  A    between atoms: C_17  and  C_18
REMARK   11  A    between atoms: C_23  and  C_24
REMARK                            x       y       z     vdW  Elec       q    Type
REMARK                         _______ _______ _______ _____ _____    ______ ____
ROOT
ATOM      1  O   UNL     1      11.227   6.839   3.538  0.00  0.00    -0.336 OA
ATOM      5  N   UNL     1      10.781   4.674   3.183  0.00  0.00    -0.190 NA
ATOM      6  N   UNL     1      11.615   6.573   2.219  0.00  0.00    -0.056 NA
ATOM     14  C   UNL     1      10.748   5.668   4.033  0.00  0.00    +0.245 A 
ATOM     17  C   UNL     1      11.320   5.277   2.084  0.00  0.00    +0.207 A 
ENDROOT
BRANCH  17  18
ATOM      7  N   UNL     1      12.857   2.951  -0.389  0.00  0.00    -0.221 NA
ATOM     18  C   UNL     1      11.555   4.555   0.867  0.00  0.00    +0.084 A 
ATOM     19  C   UNL     1      12.599   3.652   0.737  0.00  0.00    +0.226 A 
ATOM     20  C   UNL     1      10.723   4.748  -0.230  0.00  0.00    +0.018 A 
ATOM     21  C   UNL     1      10.955   4.045  -1.406  0.00  0.00    +0.021 A 
ATOM     22  C   UNL     1      12.027   3.165  -1.434  0.00  0.00    +0.114 A 
BRANCH  19   2
ATOM      2  O   UNL     1      13.448   3.428   1.791  0.00  0.00    -0.474 OA
BRANCH   2  23
ATOM     23  C   UNL     1      14.836   3.624   1.545  0.00  0.00    +0.258 C 
BRANCH  23  24
ATOM     24  C   UNL     1      15.101   5.105   1.364  0.00  0.00    +0.200 C 
BRANCH  24   3
ATOM      3  O   UNL     1      15.568   5.335   0.040  0.00  0.00    -0.380 OA
ATOM     25  C   UNL     1      16.269   4.210  -0.469  0.00  0.00    +0.194 C 
ENDBRANCH  24   3
ENDBRANCH  23  24
ENDBRANCH   2  23
ENDBRANCH  19   2
ENDBRANCH  17  18
BRANCH  14   8
ATOM      4  N   UNL     1      10.758   6.858   6.219  0.00  0.00    -0.291 NA
ATOM      8  C   UNL     1      10.256   5.691   5.465  0.00  0.00    +0.146 C 
ATOM      9  C   UNL     1       8.723   5.790   5.565  0.00  0.00    +0.030 C 
ATOM     10  C   UNL     1       9.745   7.163   7.230  0.00  0.00    +0.085 C 
ATOM     11  C   UNL     1       8.459   7.005   6.443  0.00  0.00    +0.017 C 
BRANCH   4  12
ATOM     12  C   UNL     1      12.072   6.639   6.808  0.00  0.00    +0.088 C 
BRANCH  12  13
ATOM     13  C   UNL     1      13.115   7.656   6.314  0.00  0.00    -0.003 C 
ATOM     15  C   UNL     1      12.885   9.006   7.000  0.00  0.00    +0.008 C 
ATOM     16  C   UNL     1      14.552   7.192   6.562  0.00  0.00    +0.008 C 
ENDBRANCH  12  13
ENDBRANCH   4  12
ENDBRANCH  14   8
TORSDOF 8
ENDMDL
MODEL 5
REMARK VINA RESULT:      -4.9     28.029     29.993
REMARK  Name = 45783417
REMARK  11 active torsions:
REMARK  status: ('A' for Active; 'I' for Inactive)
REMARK    1  A    between atoms: O_2  and  C_19
REMARK    2  A    between atoms: O_2  and  C_23
REMARK    3  A    between atoms: O_3  and  C_24
REMARK    4  A    between atoms: O_3  and  C_25
REMARK    5  A    between atoms: N_4  and  C_12
REMARK    6  A    between atoms: C_8  and  C_14
REMARK    7  A    between atoms: C_12  and  C_13
REMARK    8  A    between atoms: C_13  and  C_15
REMARK    9  A    between atoms: C_13  and  C_16
REMARK   10  A    between atoms: C_17  and  C_18
REMARK   11  A    between atoms: C_23  and  C_24
REMARK                            x       y       z     vdW  Elec       q    Type
REMARK                         _______ _______ _______ _____ _____    ______ ____
ROOT
ATOM      1  O   UNL     1      -4.658 -10.060  15.965  0.00  0.00    -0.336 OA
ATOM      5  N   UNL     1      -6.591 -11.053  15.425  0.00  0.00    -0.190 NA
ATOM      6  N   UNL     1      -5.634  -9.487  16.790  0.00  0.00    -0.056 NA
ATOM     14  C   UNL     1      -5.306 -10.971  15.193  0.00  0.00    +0.245 A 
ATOM     17  C   UNL     1      -6.746 -10.124  16.413  0.00  0.00    +0.207 A 
ENDROOT
BRANCH  17  18
ATOM      7  N   UNL     1      -9.824 -10.512  18.476  0.00  0.00    -0.221 NA
ATOM     18  C   UNL     1      -8.026  -9.855  16.999  0.00  0.00    +0.084 A 
ATOM     19  C   UNL     1      -8.621 -10.725  17.900  0.00  0.00    +0.226 A 
ATOM     20  C   UNL     1      -8.712  -8.690  16.672  0.00  0.00    +0.018 A 
ATOM     21  C   UNL     1      -9.952  -8.434  17.245  0.00  0.00    +0.021 A 
ATOM     22  C   UNL     1     -10.460  -9.369  18.134  0.00  0.00    +0.114 A 
BRANCH  19   2
ATOM      2  O   UNL     1      -7.985 -11.887  18.253  0.00  0.00    -0.474 OA
BRANCH   2  23
ATOM     23  C   UNL     1      -7.624 -12.026  19.623  0.00  0.00    +0.258 C 
BRANCH  23  24
ATOM     24  C   UNL     1      -6.176 -11.611  19.797  0.00  0.00    +0.200 C 
BRANCH  24   3
ATOM      3  O   UNL     1      -5.367 -12.354  18.895  0.00  0.00    -0.380 OA
ATOM     25  C   UNL     1      -4.012 -11.931  18.939  0.00  0.00    +0.194 C 
ENDBRANCH  24   3
ENDBRANCH  23  24
ENDBRANCH   2  23
ENDBRANCH  19   2
ENDBRANCH  17  18
BRANCH  14   8
ATOM      4  N   UNL     1      -3.562 -10.863  13.419  0.00  0.00    -0.291 NA
ATOM      8  C   UNL     1      -4.458 -11.740  14.201  0.00  0.00    +0.146 C 
ATOM      9  C   UNL     1      -3.519 -12.753  14.881  0.00  0.00    +0.030 C 
ATOM     10  C   UNL     1      -2.390 -11.669  13.077  0.00  0.00    +0.085 C 
ATOM     11  C   UNL     1      -2.126 -12.405  14.375  0.00  0.00    +0.017 C 
BRANCH   4  12
ATOM     12  C   UNL     1      -4.201 -10.294  12.240  0.00  0.00    +0.088 C 
BRANCH  12  13
ATOM     13  C   UNL     1      -3.380 -10.521  10.959  0.00  0.00    -0.003 C 
ATOM     15  C   UNL     1      -4.152 -11.439  10.008  0.00  0.00    +0.008 C 
ATOM     16  C   UNL     1      -3.033  -9.214  10.243  0.00  0.00    +0.008 C 
ENDBRANCH  12  13
ENDBRANCH   4  12
ENDBRANCH  14   8
TORSDOF 8
ENDMDL
MODEL 6
REMARK VINA RESULT:      -4.8     26.990     29.077
REMARK  Name = 45783417
REMARK  11 active torsions:
REMARK  status: ('A' for Active; 'I' for Inactive)
REMARK    1  A    between atoms: O_2  and  C_19
REMARK    2  A    between atoms: O_2  and  C_23
REMARK    3  A    between atoms: O_3  and  C_24
REMARK    4  A    between atoms: O_3  and  C_25
REMARK    5  A    between atoms: N_4  and  C_12
REMARK    6  A    between atoms: C_8  and  C_14
REMARK    7  A    between atoms: C_12  and  C_13
REMARK    8  A    between atoms: C_13  and  C_15
REMARK    9  A    between atoms: C_13  and  C_16
REMARK   10  A    between atoms: C_17  and  C_18
REMARK   11  A    between atoms: C_23  and  C_24
REMARK                            x       y       z     vdW  Elec       q    Type
REMARK                         _______ _______ _______ _____ _____    ______ ____
ROOT
ATOM      1  O   UNL     1      -5.992 -11.851  14.958  0.00  0.00    -0.336 OA
ATOM      5  N   UNL     1      -4.931  -9.922  14.553  0.00  0.00    -0.190 NA
ATOM      6  N   UNL     1      -5.954 -11.713  13.565  0.00  0.00    -0.056 NA
ATOM     14  C   UNL     1      -5.369 -10.755  15.462  0.00  0.00    +0.245 A 
ATOM     17  C   UNL     1      -5.313 -10.552  13.405  0.00  0.00    +0.207 A 
ENDROOT
BRANCH  17  18
ATOM      7  N   UNL     1      -3.712  -9.957  10.093  0.00  0.00    -0.221 NA
ATOM     18  C   UNL     1      -5.041  -9.993  12.112  0.00  0.00    +0.084 A 
ATOM     19  C   UNL     1      -4.004 -10.453  11.315  0.00  0.00    +0.226 A 
ATOM     20  C   UNL     1      -5.827  -8.957  11.621  0.00  0.00    +0.018 A 
ATOM     21  C   UNL     1      -5.559  -8.421  10.367  0.00  0.00    +0.021 A 
ATOM     22  C   UNL     1      -4.499  -8.952   9.649  0.00  0.00    +0.114 A 
BRANCH  19   2
ATOM      2  O   UNL     1      -3.200 -11.472  11.756  0.00  0.00    -0.474 OA
BRANCH   2  23
ATOM     23  C   UNL     1      -1.902 -11.109  12.214  0.00  0.00    +0.258 C 
BRANCH  23  24
ATOM     24  C   UNL     1      -1.783 -11.452  13.685  0.00  0.00    +0.200 C 
BRANCH  24   3
ATOM      3  O   UNL     1      -1.718 -10.249  14.440  0.00  0.00    -0.380 OA
ATOM     25  C   UNL     1      -1.085 -10.453  15.695  0.00  0.00    +0.194 C 
ENDBRANCH  24   3
ENDBRANCH  23  24
ENDBRANCH   2  23
ENDBRANCH  19   2
ENDBRANCH  17  18
BRANCH  14   8
ATOM      4  N   UNL     1      -6.538 -11.037  17.642  0.00  0.00    -0.291 NA
ATOM      8  C   UNL     1      -5.275 -10.665  16.971  0.00  0.00    +0.146 C 
ATOM      9  C   UNL     1      -4.223 -11.623  17.560  0.00  0.00    +0.030 C 
ATOM     10  C   UNL     1      -6.167 -11.587  18.945  0.00  0.00    +0.085 C 
ATOM     11  C   UNL     1      -4.972 -12.451  18.593  0.00  0.00    +0.017 C 
BRANCH   4  12
ATOM     12  C   UNL     1      -7.474  -9.927  17.761  0.00  0.00    +0.088 C 
BRANCH  12  13
ATOM     13  C   UNL     1      -8.784 -10.177  16.995  0.00  0.00    -0.003 C 
ATOM     15  C   UNL     1      -8.765  -9.404  15.674  0.00  0.00    +0.008 C 
ATOM     16  C   UNL     1      -9.029 -11.662  16.718  0.00  0.00    +0.008 C 
ENDBRANCH  12  13
ENDBRANCH   4  12
ENDBRANCH  14   8
TORSDOF 8
ENDMDL
MODEL 7
REMARK VINA RESULT:      -4.8     14.986     17.772
REMARK  Name = 45783417
REMARK  11 active torsions:
REMARK  status: ('A' for Active; 'I' for Inactive)
REMARK    1  A    between atoms: O_2  and  C_19
REMARK    2  A    between atoms: O_2  and  C_23
REMARK    3  A    between atoms: O_3  and  C_24
REMARK    4  A    between atoms: O_3  and  C_25
REMARK    5  A    between atoms: N_4  and  C_12
REMARK    6  A    between atoms: C_8  and  C_14
REMARK    7  A    between atoms: C_12  and  C_13
REMARK    8  A    between atoms: C_13  and  C_15
REMARK    9  A    between atoms: C_13  and  C_16
REMARK   10  A    between atoms: C_17  and  C_18
REMARK   11  A    between atoms: C_23  and  C_24
REMARK                            x       y       z     vdW  Elec       q    Type
REMARK                         _______ _______ _______ _____ _____    ______ ____
ROOT
ATOM      1  O   UNL     1       9.365   7.013   2.241  0.00  0.00    -0.336 OA
ATOM      5  N   UNL     1      10.684   5.947   3.704  0.00  0.00    -0.190 NA
ATOM      6  N   UNL     1      10.450   6.525   1.503  0.00  0.00    -0.056 NA
ATOM     14  C   UNL     1       9.581   6.629   3.526  0.00  0.00    +0.245 A 
ATOM     17  C   UNL     1      11.183   5.908   2.434  0.00  0.00    +0.207 A 
ENDROOT
BRANCH  17  18
ATOM      7  N   UNL     1      14.818   5.339   1.845  0.00  0.00    -0.221 NA
ATOM     18  C   UNL     1      12.419   5.248   2.130  0.00  0.00    +0.084 A 
ATOM     19  C   UNL     1      13.631   5.920   2.126  0.00  0.00    +0.226 A 
ATOM     20  C   UNL     1      12.429   3.890   1.829  0.00  0.00    +0.018 A 
ATOM     21  C   UNL     1      13.630   3.255   1.537  0.00  0.00    +0.021 A 
ATOM     22  C   UNL     1      14.788   4.019   1.558  0.00  0.00    +0.114 A 
BRANCH  19   2
ATOM      2  O   UNL     1      13.673   7.260   2.415  0.00  0.00    -0.474 OA
BRANCH   2  23
ATOM     23  C   UNL     1      14.520   7.655   3.489  0.00  0.00    +0.258 C 
BRANCH  23  24
ATOM     24  C   UNL     1      13.787   7.447   4.799  0.00  0.00    +0.200 C 
BRANCH  24   3
ATOM      3  O   UNL     1      14.709   7.577   5.873  0.00  0.00    -0.380 OA
ATOM     25  C   UNL     1      15.954   8.100   5.433  0.00  0.00    +0.194 C 
ENDBRANCH  24   3
ENDBRANCH  23  24
ENDBRANCH   2  23
ENDBRANCH  19   2
ENDBRANCH  17  18
BRANCH  14   8
ATOM      4  N   UNL     1       9.068   7.109   5.915  0.00  0.00    -0.291 NA
ATOM      8  C   UNL     1       8.533   7.039   4.539  0.00  0.00    +0.146 C 
ATOM      9  C   UNL     1       7.962   8.443   4.269  0.00  0.00    +0.030 C 
ATOM     10  C   UNL     1       8.278   8.122   6.614  0.00  0.00    +0.085 C 
ATOM     11  C   UNL     1       8.166   9.212   5.567  0.00  0.00    +0.017 C 
BRANCH   4  12
ATOM     12  C   UNL     1       9.050   5.826   6.604  0.00  0.00    +0.088 C 
BRANCH  12  13
ATOM     13  C   UNL     1       9.867   5.846   7.907  0.00  0.00    -0.003 C 
ATOM     15  C   UNL     1       9.724   4.503   8.627  0.00  0.00    +0.008 C 
ATOM     16  C   UNL     1      11.349   6.146   7.667  0.00  0.00    +0.008 C 
ENDBRANCH  12  13
ENDBRANCH   4  12
ENDBRANCH  14   8
TORSDOF 8
ENDMDL
MODEL 8
REMARK VINA RESULT:      -4.8     27.718     29.321
REMARK  Name = 45783417
REMARK  11 active torsions:
REMARK  status: ('A' for Active; 'I' for Inactive)
REMARK    1  A    between atoms: O_2  and  C_19
REMARK    2  A    between atoms: O_2  and  C_23
REMARK    3  A    between atoms: O_3  and  C_24
REMARK    4  A    between atoms: O_3  and  C_25
REMARK    5  A    between atoms: N_4  and  C_12
REMARK    6  A    between atoms: C_8  and  C_14
REMARK    7  A    between atoms: C_12  and  C_13
REMARK    8  A    between atoms: C_13  and  C_15
REMARK    9  A    between atoms: C_13  and  C_16
REMARK   10  A    between atoms: C_17  and  C_18
REMARK   11  A    between atoms: C_23  and  C_24
REMARK                            x       y       z     vdW  Elec       q    Type
REMARK                         _______ _______ _______ _____ _____    ______ ____
ROOT
ATOM      1  O   UNL     1      -6.935 -12.094  13.910  0.00  0.00    -0.336 OA
ATOM      5  N   UNL     1      -5.879 -10.130  14.124  0.00  0.00    -0.190 NA
ATOM      6  N   UNL     1      -6.088 -11.984  12.800  0.00  0.00    -0.056 NA
ATOM     14  C   UNL     1      -6.750 -10.961  14.637  0.00  0.00    +0.245 A 
ATOM     17  C   UNL     1      -5.499 -10.801  12.998  0.00  0.00    +0.207 A 
ENDROOT
BRANCH  17  18
ATOM      7  N   UNL     1      -2.224  -9.973  11.426  0.00  0.00    -0.221 NA
ATOM     18  C   UNL     1      -4.531 -10.259  12.089  0.00  0.00    +0.084 A 
ATOM     19  C   UNL     1      -3.170 -10.463  12.256  0.00  0.00    +0.226 A 
ATOM     20  C   UNL     1      -4.945  -9.502  10.999  0.00  0.00    +0.018 A 
ATOM     21  C   UNL     1      -4.002  -8.981  10.121  0.00  0.00    +0.021 A 
ATOM     22  C   UNL     1      -2.665  -9.243  10.377  0.00  0.00    +0.114 A 
BRANCH  19   2
ATOM      2  O   UNL     1      -2.712 -11.202  13.317  0.00  0.00    -0.474 OA
BRANCH   2  23
ATOM     23  C   UNL     1      -1.809 -12.259  13.017  0.00  0.00    +0.258 C 
BRANCH  23  24
ATOM     24  C   UNL     1      -2.050 -13.404  13.980  0.00  0.00    +0.200 C 
BRANCH  24   3
ATOM      3  O   UNL     1      -1.828 -14.635  13.304  0.00  0.00    -0.380 OA
ATOM     25  C   UNL     1      -2.590 -14.720  12.109  0.00  0.00    +0.194 C 
ENDBRANCH  24   3
ENDBRANCH  23  24
ENDBRANCH   2  23
ENDBRANCH  19   2
ENDBRANCH  17  18
BRANCH  14   8
ATOM      4  N   UNL     1      -6.761 -10.355  17.052  0.00  0.00    -0.291 NA
ATOM      8  C   UNL     1      -7.564 -10.835  15.908  0.00  0.00    +0.146 C 
ATOM      9  C   UNL     1      -8.712  -9.817  15.781  0.00  0.00    +0.030 C 
ATOM     10  C   UNL     1      -7.682  -9.629  17.927  0.00  0.00    +0.085 C 
ATOM     11  C   UNL     1      -8.507  -8.840  16.930  0.00  0.00    +0.017 C 
BRANCH   4  12
ATOM     12  C   UNL     1      -6.065 -11.424  17.754  0.00  0.00    +0.088 C 
BRANCH  12  13
ATOM     13  C   UNL     1      -4.617 -11.047  18.113  0.00  0.00    -0.003 C 
ATOM     15  C   UNL     1      -4.073 -12.025  19.157  0.00  0.00    +0.008 C 
ATOM     16  C   UNL     1      -3.694 -11.031  16.893  0.00  0.00    +0.008 C 
ENDBRANCH  12  13
ENDBRANCH   4  12
ENDBRANCH  14   8
TORSDOF 8
ENDMDL
MODEL 9
REMARK VINA RESULT:      -4.8     15.793     18.932
REMARK  Name = 45783417
REMARK  11 active torsions:
REMARK  status: ('A' for Active; 'I' for Inactive)
REMARK    1  A    between atoms: O_2  and  C_19
REMARK    2  A    between atoms: O_2  and  C_23
REMARK    3  A    between atoms: O_3  and  C_24
REMARK    4  A    between atoms: O_3  and  C_25
REMARK    5  A    between atoms: N_4  and  C_12
REMARK    6  A    between atoms: C_8  and  C_14
REMARK    7  A    between atoms: C_12  and  C_13
REMARK    8  A    between atoms: C_13  and  C_15
REMARK    9  A    between atoms: C_13  and  C_16
REMARK   10  A    between atoms: C_17  and  C_18
REMARK   11  A    between atoms: C_23  and  C_24
REMARK                            x       y       z     vdW  Elec       q    Type
REMARK                         _______ _______ _______ _____ _____    ______ ____
ROOT
ATOM      1  O   UNL     1      10.898   4.538   3.956  0.00  0.00    -0.336 OA
ATOM      5  N   UNL     1      11.892   5.799   2.394  0.00  0.00    -0.190 NA
ATOM      6  N   UNL     1      10.919   3.766   2.788  0.00  0.00    -0.056 NA
ATOM     14  C   UNL     1      11.490   5.719   3.637  0.00  0.00    +0.245 A 
ATOM     17  C   UNL     1      11.520   4.577   1.913  0.00  0.00    +0.207 A 
ENDROOT
BRANCH  17  18
ATOM      7  N   UNL     1      13.222   3.237  -1.120  0.00  0.00    -0.221 NA
ATOM     18  C   UNL     1      11.762   4.199   0.551  0.00  0.00    +0.084 A 
ATOM     19  C   UNL     1      12.951   3.609   0.151  0.00  0.00    +0.226 A 
ATOM     20  C   UNL     1      10.788   4.418  -0.417  0.00  0.00    +0.018 A 
ATOM     21  C   UNL     1      11.028   4.048  -1.736  0.00  0.00    +0.021 A 
ATOM     22  C   UNL     1      12.251   3.466  -2.032  0.00  0.00    +0.114 A 
BRANCH  19   2
ATOM      2  O   UNL     1      13.943   3.373   1.068  0.00  0.00    -0.474 OA
BRANCH   2  23
ATOM     23  C   UNL     1      15.246   3.837   0.734  0.00  0.00    +0.258 C 
BRANCH  23  24
ATOM     24  C   UNL     1      15.297   5.341   0.918  0.00  0.00    +0.200 C 
BRANCH  24   3
ATOM      3  O   UNL     1      16.382   5.865   0.162  0.00  0.00    -0.380 OA
ATOM     25  C   UNL     1      16.558   7.255   0.396  0.00  0.00    +0.194 C 
ENDBRANCH  24   3
ENDBRANCH  23  24
ENDBRANCH   2  23
ENDBRANCH  19   2
ENDBRANCH  17  18
BRANCH  14   8
ATOM      4  N   UNL     1      11.474   6.141   6.090  0.00  0.00    -0.291 NA
ATOM      8  C   UNL     1      11.594   6.744   4.747  0.00  0.00    +0.146 C 
ATOM      9  C   UNL     1      12.953   7.468   4.763  0.00  0.00    +0.030 C 
ATOM     10  C   UNL     1      12.252   6.987   6.994  0.00  0.00    +0.085 C 
ATOM     11  C   UNL     1      13.494   7.268   6.171  0.00  0.00    +0.017 C 
BRANCH   4  12
ATOM     12  C   UNL     1      10.094   5.990   6.531  0.00  0.00    +0.088 C 
BRANCH  12  13
ATOM     13  C   UNL     1       9.911   6.332   8.020  0.00  0.00    -0.003 C 
ATOM     15  C   UNL     1       8.816   7.391   8.175  0.00  0.00    +0.008 C 
ATOM     16  C   UNL     1       9.564   5.106   8.867  0.00  0.00    +0.008 C 
ENDBRANCH  12  13
ENDBRANCH   4  12
ENDBRANCH  14   8
TORSDOF 8
ENDMDL
MODEL 10
REMARK VINA RESULT:      -4.8     16.788     19.801
REMARK  Name = 45783417
REMARK  11 active torsions:
REMARK  status: ('A' for Active; 'I' for Inactive)
REMARK    1  A    between atoms: O_2  and  C_19
REMARK    2  A    between atoms: O_2  and  C_23
REMARK    3  A    between atoms: O_3  and  C_24
REMARK    4  A    between atoms: O_3  and  C_25
REMARK    5  A    between atoms: N_4  and  C_12
REMARK    6  A    between atoms: C_8  and  C_14
REMARK    7  A    between atoms: C_12  and  C_13
REMARK    8  A    between atoms: C_13  and  C_15
REMARK    9  A    between atoms: C_13  and  C_16
REMARK   10  A    between atoms: C_17  and  C_18
REMARK   11  A    between atoms: C_23  and  C_24
REMARK                            x       y       z     vdW  Elec       q    Type
REMARK                         _______ _______ _______ _____ _____    ______ ____
ROOT
ATOM      1  O   UNL     1      10.457   4.295   3.568  0.00  0.00    -0.336 OA
ATOM      5  N   UNL     1      11.543   5.872   2.407  0.00  0.00    -0.190 NA
ATOM      6  N   UNL     1      11.381   3.619   2.762  0.00  0.00    -0.056 NA
ATOM     14  C   UNL     1      10.619   5.617   3.297  0.00  0.00    +0.245 A 
ATOM     17  C   UNL     1      11.984   4.616   2.108  0.00  0.00    +0.207 A 
ENDROOT
BRANCH  17  18
ATOM      7  N   UNL     1      13.705   3.983  -1.136  0.00  0.00    -0.221 NA
ATOM     18  C   UNL     1      13.025   4.391   1.149  0.00  0.00    +0.084 A 
ATOM     19  C   UNL     1      12.756   4.198  -0.198  0.00  0.00    +0.226 A 
ATOM     20  C   UNL     1      14.354   4.362   1.556  0.00  0.00    +0.018 A 
ATOM     21  C   UNL     1      15.359   4.145   0.621  0.00  0.00    +0.021 A 
ATOM     22  C   UNL     1      14.985   3.962  -0.702  0.00  0.00    +0.114 A 
BRANCH  19   2
ATOM      2  O   UNL     1      11.461   4.217  -0.648  0.00  0.00    -0.474 OA
BRANCH   2  23
ATOM     23  C   UNL     1      11.205   3.555  -1.882  0.00  0.00    +0.258 C 
BRANCH  23  24
ATOM     24  C   UNL     1      10.231   4.385  -2.694  0.00  0.00    +0.200 C 
BRANCH  24   3
ATOM      3  O   UNL     1       9.232   3.531  -3.237  0.00  0.00    -0.380 OA
ATOM     25  C   UNL     1       9.778   2.622  -4.182  0.00  0.00    +0.194 C 
ENDBRANCH  24   3
ENDBRANCH  23  24
ENDBRANCH   2  23
ENDBRANCH  19   2
ENDBRANCH  17  18
BRANCH  14   8
ATOM      4  N   UNL     1      10.480   7.481   4.942  0.00  0.00    -0.291 NA
ATOM      8  C   UNL     1       9.723   6.576   4.053  0.00  0.00    +0.146 C 
ATOM      9  C   UNL     1       8.933   7.513   3.120  0.00  0.00    +0.030 C 
ATOM     10  C   UNL     1       9.701   8.715   5.035  0.00  0.00    +0.085 C 
ATOM     11  C   UNL     1       9.262   8.919   3.599  0.00  0.00    +0.017 C 
BRANCH   4  12
ATOM     12  C   UNL     1      10.754   6.904   6.251  0.00  0.00    +0.088 C 
BRANCH  12  13
ATOM     13  C   UNL     1       9.514   6.240   6.873  0.00  0.00    -0.003 C 
ATOM     15  C   UNL     1       9.878   4.845   7.387  0.00  0.00    +0.008 C 
ATOM     16  C   UNL     1       8.913   7.067   8.011  0.00  0.00    +0.008 C 
ENDBRANCH  12  13
ENDBRANCH   4  12
ENDBRANCH  14   8
TORSDOF 8
ENDMDL
