MODEL 1
REMARK VINA RESULT:      -7.5      0.000      0.000
REMARK  Name = 11879575
REMARK  10 active torsions:
REMARK  status: ('A' for Active; 'I' for Inactive)
REMARK    1  A    between atoms: O_3  and  C_19
REMARK    2  A    between atoms: O_3  and  C_22
REMARK    3  A    between atoms: N_6  and  C_15
REMARK    4  A    between atoms: N_7  and  C_16
REMARK    5  A    between atoms: N_11  and  C_21
REMARK    6  A    between atoms: N_12  and  C_27
REMARK    7  A    between atoms: N_12  and  C_34
REMARK    8  A    between atoms: N_12  and  C_35
REMARK    9  A    between atoms: C_32  and  C_33
REMARK   10  A    between atoms: C_33  and  C_36
REMARK                            x       y       z     vdW  Elec       q    Type
REMARK                         _______ _______ _______ _____ _____    ______ ____
ROOT
ATOM      1  O   UNL     1      -4.906 -10.576  17.954  0.00  0.00    -0.370 OA
ATOM      2  O   UNL     1      -6.364 -11.772  15.437  0.00  0.00    -0.370 OA
ATOM     13  C   UNL     1      -5.272 -10.850  15.614  0.00  0.00    +0.176 C 
ATOM     14  C   UNL     1      -5.595 -10.003  16.831  0.00  0.00    +0.172 C 
ATOM     15  C   UNL     1      -4.014 -11.606  15.994  0.00  0.00    +0.171 C 
ATOM     16  C   UNL     1      -7.090 -10.151  17.003  0.00  0.00    +0.131 C 
ATOM     17  C   UNL     1      -4.103 -11.680  17.514  0.00  0.00    +0.190 C 
ATOM     18  C   UNL     1      -7.343 -11.545  16.459  0.00  0.00    +0.185 C 
ENDROOT
BRANCH  16   7
ATOM      4  O   UNL     1      -9.927  -9.758  16.931  0.00  0.00    -0.252 OA
ATOM      7  N   UNL     1      -7.804  -9.156  16.240  0.00  0.00    -0.292 N 
ATOM     11  N   UNL     1      -9.605  -7.984  15.428  0.00  0.00    -0.269 N 
ATOM     20  C   UNL     1      -9.199  -9.029  16.261  0.00  0.00    +0.304 C 
ATOM     37  H   UNL     1      -7.268  -8.473  15.714  0.00  0.00    +0.151 HD
ATOM     38  H   UNL     1      -8.871  -7.478  14.940  0.00  0.00    +0.156 HD
BRANCH  11  21
ATOM     21  C   UNL     1     -10.923  -7.537  15.176  0.00  0.00    +0.035 A 
ATOM     25  C   UNL     1     -11.632  -8.035  14.082  0.00  0.00    +0.024 A 
ATOM     26  C   UNL     1     -11.515  -6.599  16.020  0.00  0.00    +0.024 A 
ATOM     29  C   UNL     1     -12.930  -7.594  13.832  0.00  0.00    +0.013 A 
ATOM     30  C   UNL     1     -12.815  -6.157  15.771  0.00  0.00    +0.013 A 
ATOM     32  C   UNL     1     -13.523  -6.655  14.677  0.00  0.00    +0.017 A 
BRANCH  32  33
ATOM      5  O   UNL     1     -15.834  -6.546  15.137  0.00  0.00    -0.292 OA
ATOM     33  C   UNL     1     -14.878  -6.195  14.417  0.00  0.00    +0.160 C 
ATOM     36  C   UNL     1     -15.162  -5.266  13.242  0.00  0.00    +0.091 C 
ENDBRANCH  32  33
ENDBRANCH  11  21
ENDBRANCH  16   7
BRANCH  15   6
ATOM      6  N   UNL     1      -2.799 -10.974  15.472  0.00  0.00    -0.187 N 
ATOM      8  N   UNL     1      -1.922 -10.376  16.291  0.00  0.00    -0.041 NA
ATOM      9  N   UNL     1      -1.227 -10.228  14.177  0.00  0.00    -0.071 NA
ATOM     10  N   UNL     1      -0.963  -9.922  15.493  0.00  0.00    -0.020 NA
ATOM     19  C   UNL     1      -2.368 -10.880  14.188  0.00  0.00    +0.342 A 
BRANCH  19   3
ATOM      3  O   UNL     1      -3.007 -11.367  13.142  0.00  0.00    -0.423 OA
BRANCH   3  22
ATOM     22  C   UNL     1      -3.556 -10.558  12.156  0.00  0.00    +0.134 A 
ATOM     23  C   UNL     1      -4.919 -10.261  12.179  0.00  0.00    +0.069 A 
ATOM     24  C   UNL     1      -2.747 -10.043  11.144  0.00  0.00    +0.046 A 
ATOM     27  C   UNL     1      -5.472  -9.448  11.189  0.00  0.00    +0.033 A 
ATOM     28  C   UNL     1      -3.300  -9.229  10.155  0.00  0.00    +0.005 A 
ATOM     31  C   UNL     1      -4.662  -8.932  10.177  0.00  0.00    +0.023 A 
BRANCH  27  12
ATOM     12  N   UNL     1      -6.850  -9.149  11.210  0.00  0.00    -0.336 N 
ATOM     34  C   UNL     1      -7.614  -9.295  12.434  0.00  0.00    +0.129 C 
ATOM     35  C   UNL     1      -7.524  -8.705  10.006  0.00  0.00    +0.129 C 
ENDBRANCH  27  12
ENDBRANCH   3  22
ENDBRANCH  19   3
ENDBRANCH  15   6
TORSDOF 7
ENDMDL
MODEL 2
REMARK VINA RESULT:      -7.5     27.978     31.738
REMARK  Name = 11879575
REMARK  10 active torsions:
REMARK  status: ('A' for Active; 'I' for Inactive)
REMARK    1  A    between atoms: O_3  and  C_19
REMARK    2  A    between atoms: O_3  and  C_22
REMARK    3  A    between atoms: N_6  and  C_15
REMARK    4  A    between atoms: N_7  and  C_16
REMARK    5  A    between atoms: N_11  and  C_21
REMARK    6  A    between atoms: N_12  and  C_27
REMARK    7  A    between atoms: N_12  and  C_34
REMARK    8  A    between atoms: N_12  and  C_35
REMARK    9  A    between atoms: C_32  and  C_33
REMARK   10  A    between atoms: C_33  and  C_36
REMARK                            x       y       z     vdW  Elec       q    Type
REMARK                         _______ _______ _______ _____ _____    ______ ____
ROOT
ATOM      1  O   UNL     1      15.104   7.804  22.290  0.00  0.00    -0.370 OA
ATOM      2  O   UNL     1      16.572   9.653  20.210  0.00  0.00    -0.370 OA
ATOM     13  C   UNL     1      15.671   8.536  20.092  0.00  0.00    +0.176 C 
ATOM     14  C   UNL     1      16.015   7.564  21.204  0.00  0.00    +0.172 C 
ATOM     15  C   UNL     1      14.253   8.983  20.395  0.00  0.00    +0.171 C 
ATOM     16  C   UNL     1      17.423   7.941  21.608  0.00  0.00    +0.131 C 
ATOM     17  C   UNL     1      14.154   8.808  21.906  0.00  0.00    +0.190 C 
ATOM     18  C   UNL     1      17.455   9.430  21.318  0.00  0.00    +0.185 C 
ENDROOT
BRANCH  16   7
ATOM      4  O   UNL     1      19.537   6.276  22.588  0.00  0.00    -0.252 OA
ATOM      7  N   UNL     1      18.400   7.233  20.818  0.00  0.00    -0.292 N 
ATOM     11  N   UNL     1      20.200   5.879  20.372  0.00  0.00    -0.269 N 
ATOM     20  C   UNL     1      19.406   6.436  21.377  0.00  0.00    +0.304 C 
ATOM     37  H   UNL     1      18.315   7.261  19.806  0.00  0.00    +0.151 HD
ATOM     38  H   UNL     1      19.956   6.115  19.413  0.00  0.00    +0.156 HD
BRANCH  11  21
ATOM     21  C   UNL     1      21.314   5.020  20.521  0.00  0.00    +0.035 A 
ATOM     25  C   UNL     1      21.121   3.676  20.840  0.00  0.00    +0.024 A 
ATOM     26  C   UNL     1      22.606   5.517  20.352  0.00  0.00    +0.024 A 
ATOM     29  C   UNL     1      22.219   2.829  20.988  0.00  0.00    +0.013 A 
ATOM     30  C   UNL     1      23.705   4.670  20.500  0.00  0.00    +0.013 A 
ATOM     32  C   UNL     1      23.511   3.326  20.818  0.00  0.00    +0.017 A 
BRANCH  32  33
ATOM      5  O   UNL     1      25.798   2.787  20.608  0.00  0.00    -0.292 OA
ATOM     33  C   UNL     1      24.656   2.443  20.973  0.00  0.00    +0.160 C 
ATOM     36  C   UNL     1      24.482   1.059  21.588  0.00  0.00    +0.091 C 
ENDBRANCH  32  33
ENDBRANCH  11  21
ENDBRANCH  16   7
BRANCH  15   6
ATOM      6  N   UNL     1      13.254   8.245  19.617  0.00  0.00    -0.187 N 
ATOM      8  N   UNL     1      12.975   6.961  19.886  0.00  0.00    -0.041 NA
ATOM      9  N   UNL     1      11.731   7.679  18.181  0.00  0.00    -0.071 NA
ATOM     10  N   UNL     1      12.043   6.621  19.005  0.00  0.00    -0.020 NA
ATOM     19  C   UNL     1      12.492   8.674  18.578  0.00  0.00    +0.342 A 
BRANCH  19   3
ATOM      3  O   UNL     1      12.528   9.890  18.070  0.00  0.00    -0.423 OA
BRANCH   3  22
ATOM     22  C   UNL     1      13.531  10.311  17.206  0.00  0.00    +0.134 A 
ATOM     23  C   UNL     1      14.410  11.321  17.598  0.00  0.00    +0.069 A 
ATOM     24  C   UNL     1      13.660   9.724  15.947  0.00  0.00    +0.046 A 
ATOM     27  C   UNL     1      15.417  11.744  16.731  0.00  0.00    +0.033 A 
ATOM     28  C   UNL     1      14.668  10.147  15.081  0.00  0.00    +0.005 A 
ATOM     31  C   UNL     1      15.547  11.157  15.472  0.00  0.00    +0.023 A 
BRANCH  27  12
ATOM     12  N   UNL     1      16.305  12.767  17.127  0.00  0.00    -0.336 N 
ATOM     34  C   UNL     1      16.630  12.955  18.527  0.00  0.00    +0.129 C 
ATOM     35  C   UNL     1      16.892  13.651  16.140  0.00  0.00    +0.129 C 
ENDBRANCH  27  12
ENDBRANCH   3  22
ENDBRANCH  19   3
ENDBRANCH  15   6
TORSDOF 7
ENDMDL
MODEL 3
REMARK VINA RESULT:      -7.5     27.959     31.537
REMARK  Name = 11879575
REMARK  10 active torsions:
REMARK  status: ('A' for Active; 'I' for Inactive)
REMARK    1  A    between atoms: O_3  and  C_19
REMARK    2  A    between atoms: O_3  and  C_22
REMARK    3  A    between atoms: N_6  and  C_15
REMARK    4  A    between atoms: N_7  and  C_16
REMARK    5  A    between atoms: N_11  and  C_21
REMARK    6  A    between atoms: N_12  and  C_27
REMARK    7  A    between atoms: N_12  and  C_34
REMARK    8  A    between atoms: N_12  and  C_35
REMARK    9  A    between atoms: C_32  and  C_33
REMARK   10  A    between atoms: C_33  and  C_36
REMARK                            x       y       z     vdW  Elec       q    Type
REMARK                         _______ _______ _______ _____ _____    ______ ____
ROOT
ATOM      1  O   UNL     1      15.700  12.503  23.329  0.00  0.00    -0.370 OA
ATOM      2  O   UNL     1      14.829  11.018  20.696  0.00  0.00    -0.370 OA
ATOM     13  C   UNL     1      14.420  10.931  22.074  0.00  0.00    +0.176 C 
ATOM     14  C   UNL     1      15.662  11.126  22.923  0.00  0.00    +0.172 C 
ATOM     15  C   UNL     1      13.527  12.106  22.423  0.00  0.00    +0.171 C 
ATOM     16  C   UNL     1      16.808  10.825  21.983  0.00  0.00    +0.131 C 
ATOM     17  C   UNL     1      14.521  13.174  22.863  0.00  0.00    +0.190 C 
ATOM     18  C   UNL     1      16.244  11.247  20.638  0.00  0.00    +0.185 C 
ENDROOT
BRANCH  16   7
ATOM      4  O   UNL     1      19.410   9.674  21.650  0.00  0.00    -0.252 OA
ATOM      7  N   UNL     1      17.137   9.421  21.993  0.00  0.00    -0.292 N 
ATOM     11  N   UNL     1      18.454   7.542  21.879  0.00  0.00    -0.269 N 
ATOM     20  C   UNL     1      18.441   8.938  21.824  0.00  0.00    +0.304 C 
ATOM     37  H   UNL     1      16.401   8.753  22.199  0.00  0.00    +0.151 HD
ATOM     38  H   UNL     1      17.560   7.083  22.028  0.00  0.00    +0.156 HD
BRANCH  11  21
ATOM     21  C   UNL     1      19.568   6.678  21.753  0.00  0.00    +0.035 A 
ATOM     25  C   UNL     1      20.495   6.579  22.790  0.00  0.00    +0.024 A 
ATOM     26  C   UNL     1      19.739   5.927  20.591  0.00  0.00    +0.024 A 
ATOM     29  C   UNL     1      21.592   5.728  22.666  0.00  0.00    +0.013 A 
ATOM     30  C   UNL     1      20.837   5.076  20.465  0.00  0.00    +0.013 A 
ATOM     32  C   UNL     1      21.764   4.976  21.503  0.00  0.00    +0.017 A 
BRANCH  32  33
ATOM      5  O   UNL     1      24.077   4.528  21.388  0.00  0.00    -0.292 OA
ATOM     33  C   UNL     1      22.909   4.089  21.373  0.00  0.00    +0.160 C 
ATOM     36  C   UNL     1      22.705   2.588  21.209  0.00  0.00    +0.091 C 
ENDBRANCH  32  33
ENDBRANCH  11  21
ENDBRANCH  16   7
BRANCH  15   6
ATOM      6  N   UNL     1      12.507  11.760  23.417  0.00  0.00    -0.187 N 
ATOM      8  N   UNL     1      12.643  12.113  24.703  0.00  0.00    -0.041 NA
ATOM      9  N   UNL     1      10.734  10.999  24.408  0.00  0.00    -0.071 NA
ATOM     10  N   UNL     1      11.556  11.646  25.303  0.00  0.00    -0.020 NA
ATOM     19  C   UNL     1      11.342  11.083  23.246  0.00  0.00    +0.342 A 
BRANCH  19   3
ATOM      3  O   UNL     1      10.914  10.597  22.097  0.00  0.00    -0.423 OA
BRANCH   3  22
ATOM     22  C   UNL     1      11.160   9.290  21.699  0.00  0.00    +0.134 A 
ATOM     23  C   UNL     1      12.025   9.037  20.633  0.00  0.00    +0.069 A 
ATOM     24  C   UNL     1      10.543   8.230  22.363  0.00  0.00    +0.046 A 
ATOM     27  C   UNL     1      12.272   7.724  20.233  0.00  0.00    +0.033 A 
ATOM     28  C   UNL     1      10.790   6.917  21.962  0.00  0.00    +0.005 A 
ATOM     31  C   UNL     1      11.655   6.664  20.897  0.00  0.00    +0.023 A 
BRANCH  27  12
ATOM     12  N   UNL     1      13.144   7.468  19.154  0.00  0.00    -0.336 N 
ATOM     34  C   UNL     1      12.714   7.704  17.790  0.00  0.00    +0.129 C 
ATOM     35  C   UNL     1      14.478   6.953  19.395  0.00  0.00    +0.129 C 
ENDBRANCH  27  12
ENDBRANCH   3  22
ENDBRANCH  19   3
ENDBRANCH  15   6
TORSDOF 7
ENDMDL
MODEL 4
REMARK VINA RESULT:      -7.2     28.947     32.151
REMARK  Name = 11879575
REMARK  10 active torsions:
REMARK  status: ('A' for Active; 'I' for Inactive)
REMARK    1  A    between atoms: O_3  and  C_19
REMARK    2  A    between atoms: O_3  and  C_22
REMARK    3  A    between atoms: N_6  and  C_15
REMARK    4  A    between atoms: N_7  and  C_16
REMARK    5  A    between atoms: N_11  and  C_21
REMARK    6  A    between atoms: N_12  and  C_27
REMARK    7  A    between atoms: N_12  and  C_34
REMARK    8  A    between atoms: N_12  and  C_35
REMARK    9  A    between atoms: C_32  and  C_33
REMARK   10  A    between atoms: C_33  and  C_36
REMARK                            x       y       z     vdW  Elec       q    Type
REMARK                         _______ _______ _______ _____ _____    ______ ____
ROOT
ATOM      1  O   UNL     1      22.932   7.245  21.140  0.00  0.00    -0.370 OA
ATOM      2  O   UNL     1      21.415   4.982  22.712  0.00  0.00    -0.370 OA
ATOM     13  C   UNL     1      22.110   5.028  21.452  0.00  0.00    +0.176 C 
ATOM     14  C   UNL     1      21.824   6.383  20.832  0.00  0.00    +0.172 C 
ATOM     15  C   UNL     1      23.608   5.021  21.688  0.00  0.00    +0.171 C 
ATOM     16  C   UNL     1      20.576   6.862  21.541  0.00  0.00    +0.131 C 
ATOM     17  C   UNL     1      23.939   6.502  21.841  0.00  0.00    +0.190 C 
ATOM     18  C   UNL     1      20.712   6.217  22.908  0.00  0.00    +0.185 C 
ENDROOT
BRANCH  16   7
ATOM      4  O   UNL     1      18.023   8.160  21.515  0.00  0.00    -0.252 OA
ATOM      7  N   UNL     1      19.386   6.409  20.865  0.00  0.00    -0.292 N 
ATOM     11  N   UNL     1      17.200   6.430  20.159  0.00  0.00    -0.269 N 
ATOM     20  C   UNL     1      18.171   7.106  20.902  0.00  0.00    +0.304 C 
ATOM     37  H   UNL     1      19.447   5.580  20.281  0.00  0.00    +0.151 HD
ATOM     38  H   UNL     1      17.488   5.563  19.712  0.00  0.00    +0.156 HD
BRANCH  11  21
ATOM     21  C   UNL     1      15.852   6.803  19.950  0.00  0.00    +0.035 A 
ATOM     25  C   UNL     1      15.413   7.146  18.671  0.00  0.00    +0.024 A 
ATOM     26  C   UNL     1      14.961   6.829  21.022  0.00  0.00    +0.024 A 
ATOM     29  C   UNL     1      14.085   7.514  18.464  0.00  0.00    +0.013 A 
ATOM     30  C   UNL     1      13.631   7.198  20.816  0.00  0.00    +0.013 A 
ATOM     32  C   UNL     1      13.193   7.540  19.537  0.00  0.00    +0.017 A 
BRANCH  32  33
ATOM      5  O   UNL     1      11.317   7.981  18.175  0.00  0.00    -0.292 OA
ATOM     33  C   UNL     1      11.807   7.926  19.321  0.00  0.00    +0.160 C 
ATOM     36  C   UNL     1      10.914   8.278  20.505  0.00  0.00    +0.091 C 
ENDBRANCH  32  33
ENDBRANCH  11  21
ENDBRANCH  16   7
BRANCH  15   6
ATOM      6  N   UNL     1      24.341   4.328  20.625  0.00  0.00    -0.187 N 
ATOM      8  N   UNL     1      25.156   4.995  19.795  0.00  0.00    -0.041 NA
ATOM      9  N   UNL     1      25.141   2.825  19.281  0.00  0.00    -0.071 NA
ATOM     10  N   UNL     1      25.643   4.071  18.976  0.00  0.00    -0.020 NA
ATOM     19  C   UNL     1      24.338   3.008  20.305  0.00  0.00    +0.342 A 
BRANCH  19   3
ATOM      3  O   UNL     1      23.637   2.083  20.932  0.00  0.00    -0.423 OA
BRANCH   3  22
ATOM     22  C   UNL     1      24.098   1.441  22.074  0.00  0.00    +0.134 A 
ATOM     23  C   UNL     1      23.454   1.646  23.295  0.00  0.00    +0.069 A 
ATOM     24  C   UNL     1      25.202   0.593  22.001  0.00  0.00    +0.046 A 
ATOM     27  C   UNL     1      23.917   1.002  24.443  0.00  0.00    +0.033 A 
ATOM     28  C   UNL     1      25.664  -0.052  23.149  0.00  0.00    +0.005 A 
ATOM     31  C   UNL     1      25.021   0.152  24.370  0.00  0.00    +0.023 A 
BRANCH  27  12
ATOM     12  N   UNL     1      23.268   1.210  25.678  0.00  0.00    -0.336 N 
ATOM     34  C   UNL     1      22.517   0.138  26.303  0.00  0.00    +0.129 C 
ATOM     35  C   UNL     1      23.333   2.502  26.332  0.00  0.00    +0.129 C 
ENDBRANCH  27  12
ENDBRANCH   3  22
ENDBRANCH  19   3
ENDBRANCH  15   6
TORSDOF 7
ENDMDL
MODEL 5
REMARK VINA RESULT:      -7.0     27.955     31.441
REMARK  Name = 11879575
REMARK  10 active torsions:
REMARK  status: ('A' for Active; 'I' for Inactive)
REMARK    1  A    between atoms: O_3  and  C_19
REMARK    2  A    between atoms: O_3  and  C_22
REMARK    3  A    between atoms: N_6  and  C_15
REMARK    4  A    between atoms: N_7  and  C_16
REMARK    5  A    between atoms: N_11  and  C_21
REMARK    6  A    between atoms: N_12  and  C_27
REMARK    7  A    between atoms: N_12  and  C_34
REMARK    8  A    between atoms: N_12  and  C_35
REMARK    9  A    between atoms: C_32  and  C_33
REMARK   10  A    between atoms: C_33  and  C_36
REMARK                            x       y       z     vdW  Elec       q    Type
REMARK                         _______ _______ _______ _____ _____    ______ ____
ROOT
ATOM      1  O   UNL     1      12.754   7.094  19.485  0.00  0.00    -0.370 OA
ATOM      2  O   UNL     1      13.539   9.881  20.715  0.00  0.00    -0.370 OA
ATOM     13  C   UNL     1      13.912   9.178  19.515  0.00  0.00    +0.176 C 
ATOM     14  C   UNL     1      13.997   7.705  19.867  0.00  0.00    +0.172 C 
ATOM     15  C   UNL     1      12.793   9.267  18.495  0.00  0.00    +0.171 C 
ATOM     16  C   UNL     1      14.149   7.689  21.372  0.00  0.00    +0.131 C 
ATOM     17  C   UNL     1      11.920   8.066  18.839  0.00  0.00    +0.190 C 
ATOM     18  C   UNL     1      13.395   8.939  21.787  0.00  0.00    +0.185 C 
ENDROOT
BRANCH  16   7
ATOM      4  O   UNL     1      16.251   5.924  20.553  0.00  0.00    -0.252 OA
ATOM      7  N   UNL     1      15.536   7.763  21.758  0.00  0.00    -0.292 N 
ATOM     11  N   UNL     1      17.755   7.177  21.847  0.00  0.00    -0.269 N 
ATOM     20  C   UNL     1      16.506   6.857  21.310  0.00  0.00    +0.304 C 
ATOM     37  H   UNL     1      15.839   8.548  22.328  0.00  0.00    +0.151 HD
ATOM     38  H   UNL     1      17.795   7.986  22.462  0.00  0.00    +0.156 HD
BRANCH  11  21
ATOM     21  C   UNL     1      18.986   6.509  21.641  0.00  0.00    +0.035 A 
ATOM     25  C   UNL     1      19.990   6.581  22.607  0.00  0.00    +0.024 A 
ATOM     26  C   UNL     1      19.195   5.780  20.471  0.00  0.00    +0.024 A 
ATOM     29  C   UNL     1      21.202   5.924  22.403  0.00  0.00    +0.013 A 
ATOM     30  C   UNL     1      20.409   5.122  20.267  0.00  0.00    +0.013 A 
ATOM     32  C   UNL     1      21.412   5.194  21.233  0.00  0.00    +0.017 A 
BRANCH  32  33
ATOM      5  O   UNL     1      22.782   3.275  21.166  0.00  0.00    -0.292 OA
ATOM     33  C   UNL     1      22.677   4.509  21.021  0.00  0.00    +0.160 C 
ATOM     36  C   UNL     1      23.919   5.295  20.615  0.00  0.00    +0.091 C 
ENDBRANCH  32  33
ENDBRANCH  11  21
ENDBRANCH  16   7
BRANCH  15   6
ATOM      6  N   UNL     1      13.290   9.300  17.118  0.00  0.00    -0.187 N 
ATOM      8  N   UNL     1      13.261   8.206  16.343  0.00  0.00    -0.041 NA
ATOM      9  N   UNL     1      14.135   9.922  15.219  0.00  0.00    -0.071 NA
ATOM     10  N   UNL     1      13.778   8.593  15.183  0.00  0.00    -0.020 NA
ATOM     19  C   UNL     1      13.824  10.339  16.425  0.00  0.00    +0.342 A 
BRANCH  19   3
ATOM      3  O   UNL     1      13.992  11.556  16.905  0.00  0.00    -0.423 OA
BRANCH   3  22
ATOM     22  C   UNL     1      15.239  12.054  17.260  0.00  0.00    +0.134 A 
ATOM     23  C   UNL     1      15.748  11.813  18.537  0.00  0.00    +0.069 A 
ATOM     24  C   UNL     1      15.981  12.797  16.342  0.00  0.00    +0.046 A 
ATOM     27  C   UNL     1      17.000  12.313  18.894  0.00  0.00    +0.033 A 
ATOM     28  C   UNL     1      17.234  13.297  16.700  0.00  0.00    +0.005 A 
ATOM     31  C   UNL     1      17.743  13.055  17.976  0.00  0.00    +0.023 A 
BRANCH  27  12
ATOM     12  N   UNL     1      17.514  12.070  20.185  0.00  0.00    -0.336 N 
ATOM     34  C   UNL     1      17.107  10.894  20.928  0.00  0.00    +0.129 C 
ATOM     35  C   UNL     1      18.446  13.001  20.791  0.00  0.00    +0.129 C 
ENDBRANCH  27  12
ENDBRANCH   3  22
ENDBRANCH  19   3
ENDBRANCH  15   6
TORSDOF 7
ENDMDL
MODEL 6
REMARK VINA RESULT:      -6.9     23.967     27.925
REMARK  Name = 11879575
REMARK  10 active torsions:
REMARK  status: ('A' for Active; 'I' for Inactive)
REMARK    1  A    between atoms: O_3  and  C_19
REMARK    2  A    between atoms: O_3  and  C_22
REMARK    3  A    between atoms: N_6  and  C_15
REMARK    4  A    between atoms: N_7  and  C_16
REMARK    5  A    between atoms: N_11  and  C_21
REMARK    6  A    between atoms: N_12  and  C_27
REMARK    7  A    between atoms: N_12  and  C_34
REMARK    8  A    between atoms: N_12  and  C_35
REMARK    9  A    between atoms: C_32  and  C_33
REMARK   10  A    between atoms: C_33  and  C_36
REMARK                            x       y       z     vdW  Elec       q    Type
REMARK                         _______ _______ _______ _____ _____    ______ ____
ROOT
ATOM      1  O   UNL     1       8.622   7.385   6.508  0.00  0.00    -0.370 OA
ATOM      2  O   UNL     1      10.853   5.743   7.999  0.00  0.00    -0.370 OA
ATOM     13  C   UNL     1      10.876   6.840   7.067  0.00  0.00    +0.176 C 
ATOM     14  C   UNL     1       9.751   6.609   6.076  0.00  0.00    +0.172 C 
ATOM     15  C   UNL     1      10.504   8.128   7.777  0.00  0.00    +0.171 C 
ATOM     16  C   UNL     1       9.447   5.131   6.193  0.00  0.00    +0.131 C 
ATOM     17  C   UNL     1       8.984   8.157   7.662  0.00  0.00    +0.190 C 
ATOM     18  C   UNL     1       9.793   4.844   7.643  0.00  0.00    +0.185 C 
ENDROOT
BRANCH  16   7
ATOM      4  O   UNL     1       9.974   5.695   3.435  0.00  0.00    -0.252 OA
ATOM      7  N   UNL     1      10.269   4.356   5.297  0.00  0.00    -0.292 N 
ATOM     11  N   UNL     1      11.314   3.770   3.338  0.00  0.00    -0.269 N 
ATOM     20  C   UNL     1      10.478   4.702   3.956  0.00  0.00    +0.304 C 
ATOM     37  H   UNL     1      10.774   3.559   5.672  0.00  0.00    +0.151 HD
ATOM     38  H   UNL     1      11.645   3.000   3.914  0.00  0.00    +0.156 HD
BRANCH  11  21
ATOM     21  C   UNL     1      11.763   3.761   1.996  0.00  0.00    +0.035 A 
ATOM     25  C   UNL     1      10.856   3.962   0.955  0.00  0.00    +0.024 A 
ATOM     26  C   UNL     1      13.112   3.551   1.714  0.00  0.00    +0.024 A 
ATOM     29  C   UNL     1      11.298   3.953  -0.367  0.00  0.00    +0.013 A 
ATOM     30  C   UNL     1      13.555   3.542   0.391  0.00  0.00    +0.013 A 
ATOM     32  C   UNL     1      12.648   3.743  -0.650  0.00  0.00    +0.017 A 
BRANCH  32  33
ATOM      5  O   UNL     1      14.109   4.388  -2.386  0.00  0.00    -0.292 OA
ATOM     33  C   UNL     1      13.109   3.733  -2.029  0.00  0.00    +0.160 C 
ATOM     36  C   UNL     1      12.368   2.916  -3.082  0.00  0.00    +0.091 C 
ENDBRANCH  32  33
ENDBRANCH  11  21
ENDBRANCH  16   7
BRANCH  15   6
ATOM      6  N   UNL     1      11.192   9.295   7.220  0.00  0.00    -0.187 N 
ATOM      8  N   UNL     1      10.538  10.443   6.991  0.00  0.00    -0.041 NA
ATOM      9  N   UNL     1      12.680  10.648   6.408  0.00  0.00    -0.071 NA
ATOM     10  N   UNL     1      11.453  11.266   6.496  0.00  0.00    -0.020 NA
ATOM     19  C   UNL     1      12.496   9.429   6.862  0.00  0.00    +0.342 A 
BRANCH  19   3
ATOM      3  O   UNL     1      13.406   8.479   6.963  0.00  0.00    -0.423 OA
BRANCH   3  22
ATOM     22  C   UNL     1      14.331   8.221   5.960  0.00  0.00    +0.134 A 
ATOM     23  C   UNL     1      13.896   7.812   4.699  0.00  0.00    +0.069 A 
ATOM     24  C   UNL     1      15.694   8.371   6.214  0.00  0.00    +0.046 A 
ATOM     27  C   UNL     1      14.826   7.552   3.692  0.00  0.00    +0.033 A 
ATOM     28  C   UNL     1      16.624   8.111   5.205  0.00  0.00    +0.005 A 
ATOM     31  C   UNL     1      16.190   7.702   3.945  0.00  0.00    +0.023 A 
BRANCH  27  12
ATOM     12  N   UNL     1      14.387   7.136   2.417  0.00  0.00    -0.336 N 
ATOM     34  C   UNL     1      12.982   7.207   2.066  0.00  0.00    +0.129 C 
ATOM     35  C   UNL     1      15.332   6.621   1.447  0.00  0.00    +0.129 C 
ENDBRANCH  27  12
ENDBRANCH   3  22
ENDBRANCH  19   3
ENDBRANCH  15   6
TORSDOF 7
ENDMDL
MODEL 7
REMARK VINA RESULT:      -6.7      2.856      7.518
REMARK  Name = 11879575
REMARK  10 active torsions:
REMARK  status: ('A' for Active; 'I' for Inactive)
REMARK    1  A    between atoms: O_3  and  C_19
REMARK    2  A    between atoms: O_3  and  C_22
REMARK    3  A    between atoms: N_6  and  C_15
REMARK    4  A    between atoms: N_7  and  C_16
REMARK    5  A    between atoms: N_11  and  C_21
REMARK    6  A    between atoms: N_12  and  C_27
REMARK    7  A    between atoms: N_12  and  C_34
REMARK    8  A    between atoms: N_12  and  C_35
REMARK    9  A    between atoms: C_32  and  C_33
REMARK   10  A    between atoms: C_33  and  C_36
REMARK                            x       y       z     vdW  Elec       q    Type
REMARK                         _______ _______ _______ _____ _____    ______ ____
ROOT
ATOM      1  O   UNL     1      -4.920 -13.048  16.890  0.00  0.00    -0.370 OA
ATOM      2  O   UNL     1      -4.002 -10.050  17.149  0.00  0.00    -0.370 OA
ATOM     13  C   UNL     1      -5.281 -10.710  17.191  0.00  0.00    +0.176 C 
ATOM     14  C   UNL     1      -5.235 -11.839  16.180  0.00  0.00    +0.172 C 
ATOM     15  C   UNL     1      -5.463 -11.399  18.530  0.00  0.00    +0.171 C 
ATOM     16  C   UNL     1      -4.100 -11.465  15.252  0.00  0.00    +0.131 C 
ATOM     17  C   UNL     1      -4.845 -12.772  18.296  0.00  0.00    +0.190 C 
ATOM     18  C   UNL     1      -3.172 -10.693  16.173  0.00  0.00    +0.185 C 
ENDROOT
BRANCH  16   7
ATOM      4  O   UNL     1      -4.195 -12.177  12.480  0.00  0.00    -0.252 OA
ATOM      7  N   UNL     1      -4.564 -10.639  14.166  0.00  0.00    -0.292 N 
ATOM     11  N   UNL     1      -5.078 -10.055  12.004  0.00  0.00    -0.269 N 
ATOM     20  C   UNL     1      -4.579 -11.064  12.832  0.00  0.00    +0.304 C 
ATOM     37  H   UNL     1      -4.960  -9.730  14.384  0.00  0.00    +0.151 HD
ATOM     38  H   UNL     1      -5.351  -9.187  12.457  0.00  0.00    +0.156 HD
BRANCH  11  21
ATOM     21  C   UNL     1      -5.252 -10.090  10.601  0.00  0.00    +0.035 A 
ATOM     25  C   UNL     1      -6.318 -10.799  10.047  0.00  0.00    +0.024 A 
ATOM     26  C   UNL     1      -4.358  -9.415   9.770  0.00  0.00    +0.024 A 
ATOM     29  C   UNL     1      -6.490 -10.834   8.664  0.00  0.00    +0.013 A 
ATOM     30  C   UNL     1      -4.529  -9.450   8.386  0.00  0.00    +0.013 A 
ATOM     32  C   UNL     1      -5.595 -10.159   7.833  0.00  0.00    +0.017 A 
BRANCH  32  33
ATOM      5  O   UNL     1      -6.447  -9.331   5.795  0.00  0.00    -0.292 OA
ATOM     33  C   UNL     1      -5.774 -10.196   6.390  0.00  0.00    +0.160 C 
ATOM     36  C   UNL     1      -5.137 -11.308   5.564  0.00  0.00    +0.091 C 
ENDBRANCH  32  33
ENDBRANCH  11  21
ENDBRANCH  16   7
BRANCH  15   6
ATOM      6  N   UNL     1      -6.861 -11.413  18.968  0.00  0.00    -0.187 N 
ATOM      8  N   UNL     1      -7.343 -12.414  19.718  0.00  0.00    -0.041 NA
ATOM      9  N   UNL     1      -8.945 -10.918  19.311  0.00  0.00    -0.071 NA
ATOM     10  N   UNL     1      -8.617 -12.105  19.925  0.00  0.00    -0.020 NA
ATOM     19  C   UNL     1      -7.843 -10.507  18.725  0.00  0.00    +0.342 A 
BRANCH  19   3
ATOM      3  O   UNL     1      -7.692  -9.405  18.015  0.00  0.00    -0.423 OA
BRANCH   3  22
ATOM     22  C   UNL     1      -8.613  -9.000  17.058  0.00  0.00    +0.134 A 
ATOM     23  C   UNL     1      -8.617  -9.598  15.798  0.00  0.00    +0.069 A 
ATOM     24  C   UNL     1      -9.533  -7.995  17.356  0.00  0.00    +0.046 A 
ATOM     27  C   UNL     1      -9.541  -9.191  14.835  0.00  0.00    +0.033 A 
ATOM     28  C   UNL     1     -10.457  -7.588  16.393  0.00  0.00    +0.005 A 
ATOM     31  C   UNL     1     -10.462  -8.186  15.133  0.00  0.00    +0.023 A 
BRANCH  27  12
ATOM     12  N   UNL     1      -9.544  -9.795  13.561  0.00  0.00    -0.336 N 
ATOM     34  C   UNL     1     -10.652  -9.581  12.650  0.00  0.00    +0.129 C 
ATOM     35  C   UNL     1      -8.446 -10.647  13.150  0.00  0.00    +0.129 C 
ENDBRANCH  27  12
ENDBRANCH   3  22
ENDBRANCH  19   3
ENDBRANCH  15   6
TORSDOF 7
ENDMDL
MODEL 8
REMARK VINA RESULT:      -6.7     20.405     24.261
REMARK  Name = 11879575
REMARK  10 active torsions:
REMARK  status: ('A' for Active; 'I' for Inactive)
REMARK    1  A    between atoms: O_3  and  C_19
REMARK    2  A    between atoms: O_3  and  C_22
REMARK    3  A    between atoms: N_6  and  C_15
REMARK    4  A    between atoms: N_7  and  C_16
REMARK    5  A    between atoms: N_11  and  C_21
REMARK    6  A    between atoms: N_12  and  C_27
REMARK    7  A    between atoms: N_12  and  C_34
REMARK    8  A    between atoms: N_12  and  C_35
REMARK    9  A    between atoms: C_32  and  C_33
REMARK   10  A    between atoms: C_33  and  C_36
REMARK                            x       y       z     vdW  Elec       q    Type
REMARK                         _______ _______ _______ _____ _____    ______ ____
ROOT
ATOM      1  O   UNL     1     -14.419   3.912  33.749  0.00  0.00    -0.370 OA
ATOM      2  O   UNL     1     -15.796   5.771  31.618  0.00  0.00    -0.370 OA
ATOM     13  C   UNL     1     -14.886   4.659  31.533  0.00  0.00    +0.176 C 
ATOM     14  C   UNL     1     -13.931   4.772  32.707  0.00  0.00    +0.172 C 
ATOM     15  C   UNL     1     -15.633   3.360  31.769  0.00  0.00    +0.171 C 
ATOM     16  C   UNL     1     -14.031   6.220  33.132  0.00  0.00    +0.131 C 
ATOM     17  C   UNL     1     -15.573   3.199  33.284  0.00  0.00    +0.190 C 
ATOM     18  C   UNL     1     -15.462   6.568  32.763  0.00  0.00    +0.185 C 
ENDROOT
BRANCH  16   7
ATOM      4  O   UNL     1     -12.643   8.516  34.135  0.00  0.00    -0.252 OA
ATOM      7  N   UNL     1     -13.091   7.042  32.411  0.00  0.00    -0.292 N 
ATOM     11  N   UNL     1     -11.601   8.752  32.045  0.00  0.00    -0.269 N 
ATOM     20  C   UNL     1     -12.452   8.152  32.977  0.00  0.00    +0.304 C 
ATOM     37  H   UNL     1     -12.829   6.766  31.469  0.00  0.00    +0.151 HD
ATOM     38  H   UNL     1     -11.560   8.324  31.124  0.00  0.00    +0.156 HD
BRANCH  11  21
ATOM     21  C   UNL     1     -10.781   9.891  32.225  0.00  0.00    +0.035 A 
ATOM     25  C   UNL     1     -11.040  11.057  31.505  0.00  0.00    +0.024 A 
ATOM     26  C   UNL     1      -9.714   9.847  33.121  0.00  0.00    +0.024 A 
ATOM     29  C   UNL     1     -10.232  12.179  31.681  0.00  0.00    +0.013 A 
ATOM     30  C   UNL     1      -8.905  10.970  33.298  0.00  0.00    +0.013 A 
ATOM     32  C   UNL     1      -9.164  12.137  32.578  0.00  0.00    +0.017 A 
BRANCH  32  33
ATOM      5  O   UNL     1      -7.870  13.616  33.883  0.00  0.00    -0.292 OA
ATOM     33  C   UNL     1      -8.321  13.307  32.761  0.00  0.00    +0.160 C 
ATOM     36  C   UNL     1      -7.968  14.195  31.573  0.00  0.00    +0.091 C 
ENDBRANCH  32  33
ENDBRANCH  11  21
ENDBRANCH  16   7
BRANCH  15   6
ATOM      6  N   UNL     1     -15.074   2.244  31.003  0.00  0.00    -0.187 N 
ATOM      8  N   UNL     1     -13.968   1.606  31.412  0.00  0.00    -0.041 NA
ATOM      9  N   UNL     1     -14.714   0.711  29.512  0.00  0.00    -0.071 NA
ATOM     10  N   UNL     1     -13.753   0.670  30.497  0.00  0.00    -0.020 NA
ATOM     19  C   UNL     1     -15.521   1.691  29.845  0.00  0.00    +0.342 A 
BRANCH  19   3
ATOM      3  O   UNL     1     -16.590   2.092  29.184  0.00  0.00    -0.423 OA
BRANCH   3  22
ATOM     22  C   UNL     1     -16.669   2.057  27.798  0.00  0.00    +0.134 A 
ATOM     23  C   UNL     1     -16.386   3.204  27.055  0.00  0.00    +0.069 A 
ATOM     24  C   UNL     1     -17.030   0.877  27.148  0.00  0.00    +0.046 A 
ATOM     27  C   UNL     1     -16.465   3.170  25.663  0.00  0.00    +0.033 A 
ATOM     28  C   UNL     1     -17.109   0.844  25.756  0.00  0.00    +0.005 A 
ATOM     31  C   UNL     1     -16.826   1.990  25.013  0.00  0.00    +0.023 A 
BRANCH  27  12
ATOM     12  N   UNL     1     -16.182   4.330  24.912  0.00  0.00    -0.336 N 
ATOM     34  C   UNL     1     -15.019   4.379  24.048  0.00  0.00    +0.129 C 
ATOM     35  C   UNL     1     -17.042   5.493  25.005  0.00  0.00    +0.129 C 
ENDBRANCH  27  12
ENDBRANCH   3  22
ENDBRANCH  19   3
ENDBRANCH  15   6
TORSDOF 7
ENDMDL
MODEL 9
REMARK VINA RESULT:      -6.6     28.749     32.003
REMARK  Name = 11879575
REMARK  10 active torsions:
REMARK  status: ('A' for Active; 'I' for Inactive)
REMARK    1  A    between atoms: O_3  and  C_19
REMARK    2  A    between atoms: O_3  and  C_22
REMARK    3  A    between atoms: N_6  and  C_15
REMARK    4  A    between atoms: N_7  and  C_16
REMARK    5  A    between atoms: N_11  and  C_21
REMARK    6  A    between atoms: N_12  and  C_27
REMARK    7  A    between atoms: N_12  and  C_34
REMARK    8  A    between atoms: N_12  and  C_35
REMARK    9  A    between atoms: C_32  and  C_33
REMARK   10  A    between atoms: C_33  and  C_36
REMARK                            x       y       z     vdW  Elec       q    Type
REMARK                         _______ _______ _______ _____ _____    ______ ____
ROOT
ATOM      1  O   UNL     1      22.745   6.589  21.312  0.00  0.00    -0.370 OA
ATOM      2  O   UNL     1      21.644   5.849  24.165  0.00  0.00    -0.370 OA
ATOM     13  C   UNL     1      21.909   5.092  22.969  0.00  0.00    +0.176 C 
ATOM     14  C   UNL     1      21.539   5.971  21.791  0.00  0.00    +0.172 C 
ATOM     15  C   UNL     1      23.402   4.862  22.824  0.00  0.00    +0.171 C 
ATOM     16  C   UNL     1      20.613   7.014  22.378  0.00  0.00    +0.131 C 
ATOM     17  C   UNL     1      23.866   6.095  22.058  0.00  0.00    +0.190 C 
ATOM     18  C   UNL     1      21.127   7.137  23.802  0.00  0.00    +0.185 C 
ENDROOT
BRANCH  16   7
ATOM      4  O   UNL     1      18.433   8.256  20.997  0.00  0.00    -0.252 OA
ATOM      7  N   UNL     1      19.242   6.568  22.354  0.00  0.00    -0.292 N 
ATOM     11  N   UNL     1      17.011   6.575  21.810  0.00  0.00    -0.269 N 
ATOM     20  C   UNL     1      18.232   7.235  21.650  0.00  0.00    +0.304 C 
ATOM     37  H   UNL     1      19.010   5.693  22.815  0.00  0.00    +0.151 HD
ATOM     38  H   UNL     1      17.016   5.739  22.389  0.00  0.00    +0.156 HD
BRANCH  11  21
ATOM     21  C   UNL     1      15.755   6.928  21.263  0.00  0.00    +0.035 A 
ATOM     25  C   UNL     1      14.831   7.634  22.034  0.00  0.00    +0.024 A 
ATOM     26  C   UNL     1      15.440   6.570  19.953  0.00  0.00    +0.024 A 
ATOM     29  C   UNL     1      13.593   7.982  21.495  0.00  0.00    +0.013 A 
ATOM     30  C   UNL     1      14.201   6.918  19.413  0.00  0.00    +0.013 A 
ATOM     32  C   UNL     1      13.278   7.624  20.185  0.00  0.00    +0.017 A 
BRANCH  32  33
ATOM      5  O   UNL     1      11.717   7.779  18.423  0.00  0.00    -0.292 OA
ATOM     33  C   UNL     1      11.986   7.986  19.623  0.00  0.00    +0.160 C 
ATOM     36  C   UNL     1      10.922   8.639  20.498  0.00  0.00    +0.091 C 
ENDBRANCH  32  33
ENDBRANCH  11  21
ENDBRANCH  16   7
BRANCH  15   6
ATOM      6  N   UNL     1      23.713   3.580  22.186  0.00  0.00    -0.187 N 
ATOM      8  N   UNL     1      24.084   3.517  20.900  0.00  0.00    -0.041 NA
ATOM      9  N   UNL     1      24.040   1.473  21.789  0.00  0.00    -0.071 NA
ATOM     10  N   UNL     1      24.283   2.227  20.663  0.00  0.00    -0.020 NA
ATOM     19  C   UNL     1      23.689   2.331  22.720  0.00  0.00    +0.342 A 
BRANCH  19   3
ATOM      3  O   UNL     1      23.364   2.051  23.967  0.00  0.00    -0.423 OA
BRANCH   3  22
ATOM     22  C   UNL     1      23.732   0.866  24.588  0.00  0.00    +0.134 A 
ATOM     23  C   UNL     1      22.751  -0.008  25.059  0.00  0.00    +0.069 A 
ATOM     24  C   UNL     1      25.081   0.548  24.743  0.00  0.00    +0.046 A 
ATOM     27  C   UNL     1      23.120  -1.200  25.683  0.00  0.00    +0.033 A 
ATOM     28  C   UNL     1      25.450  -0.644  25.367  0.00  0.00    +0.005 A 
ATOM     31  C   UNL     1      24.470  -1.518  25.837  0.00  0.00    +0.023 A 
BRANCH  27  12
ATOM     12  N   UNL     1      22.129  -2.082  26.161  0.00  0.00    -0.336 N 
ATOM     34  C   UNL     1      20.903  -2.283  25.413  0.00  0.00    +0.129 C 
ATOM     35  C   UNL     1      22.317  -2.790  27.412  0.00  0.00    +0.129 C 
ENDBRANCH  27  12
ENDBRANCH   3  22
ENDBRANCH  19   3
ENDBRANCH  15   6
TORSDOF 7
ENDMDL
MODEL 10
REMARK VINA RESULT:      -6.6     24.250     28.436
REMARK  Name = 11879575
REMARK  10 active torsions:
REMARK  status: ('A' for Active; 'I' for Inactive)
REMARK    1  A    between atoms: O_3  and  C_19
REMARK    2  A    between atoms: O_3  and  C_22
REMARK    3  A    between atoms: N_6  and  C_15
REMARK    4  A    between atoms: N_7  and  C_16
REMARK    5  A    between atoms: N_11  and  C_21
REMARK    6  A    between atoms: N_12  and  C_27
REMARK    7  A    between atoms: N_12  and  C_34
REMARK    8  A    between atoms: N_12  and  C_35
REMARK    9  A    between atoms: C_32  and  C_33
REMARK   10  A    between atoms: C_33  and  C_36
REMARK                            x       y       z     vdW  Elec       q    Type
REMARK                         _______ _______ _______ _____ _____    ______ ____
ROOT
ATOM      1  O   UNL     1       8.632   7.446   6.256  0.00  0.00    -0.370 OA
ATOM      2  O   UNL     1      10.839   5.832   7.811  0.00  0.00    -0.370 OA
ATOM     13  C   UNL     1      10.874   6.935   6.887  0.00  0.00    +0.176 C 
ATOM     14  C   UNL     1       9.788   6.691   5.857  0.00  0.00    +0.172 C 
ATOM     15  C   UNL     1      10.457   8.212   7.592  0.00  0.00    +0.171 C 
ATOM     16  C   UNL     1       9.505   5.209   5.956  0.00  0.00    +0.131 C 
ATOM     17  C   UNL     1       8.942   8.216   7.426  0.00  0.00    +0.190 C 
ATOM     18  C   UNL     1       9.808   4.918   7.415  0.00  0.00    +0.185 C 
ENDROOT
BRANCH  16   7
ATOM      4  O   UNL     1       9.982   5.700   3.175  0.00  0.00    -0.252 OA
ATOM      7  N   UNL     1      10.370   4.453   5.083  0.00  0.00    -0.292 N 
ATOM     11  N   UNL     1      11.440   3.860   3.138  0.00  0.00    -0.269 N 
ATOM     20  C   UNL     1      10.549   4.761   3.728  0.00  0.00    +0.304 C 
ATOM     37  H   UNL     1      10.926   3.703   5.483  0.00  0.00    +0.151 HD
ATOM     38  H   UNL     1      11.821   3.135   3.740  0.00  0.00    +0.156 HD
BRANCH  11  21
ATOM     21  C   UNL     1      11.881   3.830   1.795  0.00  0.00    +0.035 A 
ATOM     25  C   UNL     1      13.205   3.505   1.502  0.00  0.00    +0.024 A 
ATOM     26  C   UNL     1      10.992   4.127   0.762  0.00  0.00    +0.024 A 
ATOM     29  C   UNL     1      13.641   3.475   0.178  0.00  0.00    +0.013 A 
ATOM     30  C   UNL     1      11.427   4.098  -0.563  0.00  0.00    +0.013 A 
ATOM     32  C   UNL     1      12.752   3.771  -0.855  0.00  0.00    +0.017 A 
BRANCH  32  33
ATOM      5  O   UNL     1      12.607   3.076  -3.105  0.00  0.00    -0.292 OA
ATOM     33  C   UNL     1      13.206   3.741  -2.236  0.00  0.00    +0.160 C 
ATOM     36  C   UNL     1      14.442   4.529  -2.657  0.00  0.00    +0.091 C 
ENDBRANCH  32  33
ENDBRANCH  11  21
ENDBRANCH  16   7
BRANCH  15   6
ATOM      6  N   UNL     1      11.143   9.394   7.064  0.00  0.00    -0.187 N 
ATOM      8  N   UNL     1      10.462  10.497   6.723  0.00  0.00    -0.041 NA
ATOM      9  N   UNL     1      12.642  10.796   6.361  0.00  0.00    -0.071 NA
ATOM     10  N   UNL     1      11.384  11.351   6.294  0.00  0.00    -0.020 NA
ATOM     19  C   UNL     1      12.469   9.585   6.842  0.00  0.00    +0.342 A 
BRANCH  19   3
ATOM      3  O   UNL     1      13.409   8.689   7.075  0.00  0.00    -0.423 OA
BRANCH   3  22
ATOM     22  C   UNL     1      14.418   8.409   6.164  0.00  0.00    +0.134 A 
ATOM     23  C   UNL     1      15.658   9.039   6.281  0.00  0.00    +0.069 A 
ATOM     24  C   UNL     1      14.194   7.499   5.131  0.00  0.00    +0.046 A 
ATOM     27  C   UNL     1      16.672   8.758   5.365  0.00  0.00    +0.033 A 
ATOM     28  C   UNL     1      15.209   7.218   4.216  0.00  0.00    +0.005 A 
ATOM     31  C   UNL     1      16.447   7.847   4.333  0.00  0.00    +0.023 A 
BRANCH  27  12
ATOM     12  N   UNL     1      17.924   9.397   5.482  0.00  0.00    -0.336 N 
ATOM     34  C   UNL     1      18.035  10.832   5.307  0.00  0.00    +0.129 C 
ATOM     35  C   UNL     1      19.118   8.626   5.766  0.00  0.00    +0.129 C 
ENDBRANCH  27  12
ENDBRANCH   3  22
ENDBRANCH  19   3
ENDBRANCH  15   6
TORSDOF 7
ENDMDL
