MODEL 1
REMARK VINA RESULT:      -7.3      0.000      0.000
REMARK  Name = 7682629
REMARK  2 active torsions:
REMARK  status: ('A' for Active; 'I' for Inactive)
REMARK    1  A    between atoms: C_13  and  C_14
REMARK    2  A    between atoms: C_22  and  C_24
REMARK                            x       y       z     vdW  Elec       q    Type
REMARK                         _______ _______ _______ _____ _____    ______ ____
ROOT
ATOM      2  O   UNL     1      13.768  10.698  16.011  0.00  0.00    -0.268 OA
ATOM      3  O   UNL     1      10.542   8.453  19.400  0.00  0.00    -0.270 OA
ATOM      4  N   UNL     1      14.460   9.487  17.893  0.00  0.00    -0.311 N 
ATOM      5  N   UNL     1      12.723   7.822  19.971  0.00  0.00    -0.297 N 
ATOM      6  C   UNL     1      15.175   8.184  19.921  0.00  0.00    +0.054 C 
ATOM      7  C   UNL     1      14.095   6.958  18.081  0.00  0.00    +0.027 C 
ATOM      8  C   UNL     1      15.329   6.996  18.971  0.00  0.00    +0.018 C 
ATOM      9  C   UNL     1      15.058   9.505  19.166  0.00  0.00    +0.030 A 
ATOM     10  C   UNL     1      14.076   8.230  17.233  0.00  0.00    +0.130 C 
ATOM     11  C   UNL     1      13.927   7.975  20.801  0.00  0.00    +0.117 C 
ATOM     12  C   UNL     1      12.819   6.801  18.929  0.00  0.00    +0.113 C 
ATOM     14  C   UNL     1      15.469  10.678  19.703  0.00  0.00    -0.024 A 
ATOM     19  C   UNL     1      14.270  10.656  17.135  0.00  0.00    +0.252 A 
ATOM     21  C   UNL     1      15.300  11.906  18.953  0.00  0.00    +0.011 A 
ATOM     22  C   UNL     1      11.552   8.576  20.091  0.00  0.00    +0.247 C 
ATOM     23  C   UNL     1      14.730  11.924  17.748  0.00  0.00    +0.070 A 
ENDROOT
BRANCH  22  24
ATOM      1  F   UNL     1      11.404  12.577  23.994  0.00  0.00    -0.205 F 
ATOM     24  C   UNL     1      11.515   9.625  21.115  0.00  0.00    +0.037 A 
ATOM     25  C   UNL     1      12.037  10.886  20.836  0.00  0.00    +0.016 A 
ATOM     26  C   UNL     1      10.954   9.357  22.362  0.00  0.00    +0.016 A 
ATOM     27  C   UNL     1      11.999  11.884  21.809  0.00  0.00    +0.039 A 
ATOM     28  C   UNL     1      10.917  10.355  23.335  0.00  0.00    +0.039 A 
ATOM     29  C   UNL     1      11.440  11.619  23.059  0.00  0.00    +0.123 A 
ENDBRANCH  22  24
BRANCH  14  13
ATOM     13  C   UNL     1      16.076  10.874  21.060  0.00  0.00    +0.021 C 
ATOM     15  C   UNL     1      15.598  12.191  21.687  0.00  0.00    +0.008 C 
ATOM     16  C   UNL     1      17.609  10.832  20.984  0.00  0.00    +0.008 C 
ATOM     17  C   UNL     1      16.242  12.435  23.050  0.00  0.00    +0.001 C 
ATOM     18  C   UNL     1      18.249  11.079  22.348  0.00  0.00    +0.001 C 
ATOM     20  C   UNL     1      17.765  12.384  22.970  0.00  0.00    +0.000 C 
ENDBRANCH  14  13
TORSDOF 2
ENDMDL
MODEL 2
REMARK VINA RESULT:      -6.8      2.714      5.216
REMARK  Name = 7682629
REMARK  2 active torsions:
REMARK  status: ('A' for Active; 'I' for Inactive)
REMARK    1  A    between atoms: C_13  and  C_14
REMARK    2  A    between atoms: C_22  and  C_24
REMARK                            x       y       z     vdW  Elec       q    Type
REMARK                         _______ _______ _______ _____ _____    ______ ____
ROOT
ATOM      2  O   UNL     1      16.064   8.265  21.990  0.00  0.00    -0.268 OA
ATOM      3  O   UNL     1      14.482   7.307  17.142  0.00  0.00    -0.270 OA
ATOM      4  N   UNL     1      13.908   8.708  21.190  0.00  0.00    -0.311 N 
ATOM      5  N   UNL     1      12.617   8.002  18.372  0.00  0.00    -0.297 N 
ATOM      6  C   UNL     1      11.601   9.176  20.306  0.00  0.00    +0.054 C 
ATOM      7  C   UNL     1      12.293   6.827  20.544  0.00  0.00    +0.027 C 
ATOM      8  C   UNL     1      11.210   7.830  20.916  0.00  0.00    +0.018 C 
ATOM      9  C   UNL     1      12.946   9.670  20.830  0.00  0.00    +0.030 A 
ATOM     10  C   UNL     1      13.601   7.270  21.199  0.00  0.00    +0.130 C 
ATOM     11  C   UNL     1      11.658   9.043  18.771  0.00  0.00    +0.117 C 
ATOM     12  C   UNL     1      12.417   6.703  19.014  0.00  0.00    +0.113 C 
ATOM     14  C   UNL     1      13.244  10.988  20.914  0.00  0.00    -0.024 A 
ATOM     19  C   UNL     1      15.190   9.062  21.647  0.00  0.00    +0.252 A 
ATOM     21  C   UNL     1      14.550  11.397  21.387  0.00  0.00    +0.011 A 
ATOM     22  C   UNL     1      13.677   8.173  17.479  0.00  0.00    +0.247 C 
ATOM     23  C   UNL     1      15.487  10.511  21.728  0.00  0.00    +0.070 A 
ENDROOT
BRANCH  22  24
ATOM      1  F   UNL     1      14.433  13.247  15.255  0.00  0.00    -0.205 F 
ATOM     24  C   UNL     1      13.874   9.505  16.896  0.00  0.00    +0.037 A 
ATOM     25  C   UNL     1      14.588  10.471  17.601  0.00  0.00    +0.016 A 
ATOM     26  C   UNL     1      13.349   9.795  15.639  0.00  0.00    +0.016 A 
ATOM     27  C   UNL     1      14.778  11.736  17.046  0.00  0.00    +0.039 A 
ATOM     28  C   UNL     1      13.538  11.062  15.084  0.00  0.00    +0.039 A 
ATOM     29  C   UNL     1      14.252  12.032  15.788  0.00  0.00    +0.123 A 
ENDBRANCH  22  24
BRANCH  14  13
ATOM     13  C   UNL     1      12.354  12.131  20.524  0.00  0.00    +0.021 C 
ATOM     15  C   UNL     1      13.165  13.250  19.856  0.00  0.00    +0.008 C 
ATOM     16  C   UNL     1      11.588  12.666  21.742  0.00  0.00    +0.008 C 
ATOM     17  C   UNL     1      12.285  14.445  19.494  0.00  0.00    +0.001 C 
ATOM     18  C   UNL     1      10.713  13.863  21.377  0.00  0.00    +0.001 C 
ATOM     20  C   UNL     1      11.521  14.968  20.705  0.00  0.00    +0.000 C 
ENDBRANCH  14  13
TORSDOF 2
ENDMDL
MODEL 3
REMARK VINA RESULT:      -6.8     13.815     17.110
REMARK  Name = 7682629
REMARK  2 active torsions:
REMARK  status: ('A' for Active; 'I' for Inactive)
REMARK    1  A    between atoms: C_13  and  C_14
REMARK    2  A    between atoms: C_22  and  C_24
REMARK                            x       y       z     vdW  Elec       q    Type
REMARK                         _______ _______ _______ _____ _____    ______ ____
ROOT
ATOM      2  O   UNL     1       7.415   8.900   4.091  0.00  0.00    -0.268 OA
ATOM      3  O   UNL     1      11.432  10.053   7.166  0.00  0.00    -0.270 OA
ATOM      4  N   UNL     1       8.879   7.316   5.004  0.00  0.00    -0.311 N 
ATOM      5  N   UNL     1      11.243   7.722   7.091  0.00  0.00    -0.297 N 
ATOM      6  C   UNL     1      10.466   5.637   5.996  0.00  0.00    +0.054 C 
ATOM      7  C   UNL     1       8.955   6.839   7.521  0.00  0.00    +0.027 C 
ATOM      8  C   UNL     1       9.418   5.453   7.094  0.00  0.00    +0.018 C 
ATOM      9  C   UNL     1       9.901   6.374   4.786  0.00  0.00    +0.030 A 
ATOM     10  C   UNL     1       8.266   7.503   6.328  0.00  0.00    +0.130 C 
ATOM     11  C   UNL     1      11.669   6.416   6.564  0.00  0.00    +0.117 C 
ATOM     12  C   UNL     1      10.139   7.669   8.048  0.00  0.00    +0.113 C 
ATOM     14  C   UNL     1      10.382   6.177   3.535  0.00  0.00    -0.024 A 
ATOM     19  C   UNL     1       8.320   8.075   3.960  0.00  0.00    +0.252 A 
ATOM     21  C   UNL     1       9.829   6.931   2.429  0.00  0.00    +0.011 A 
ATOM     22  C   UNL     1      11.784   8.958   6.730  0.00  0.00    +0.247 C 
ATOM     23  C   UNL     1       8.867   7.837   2.604  0.00  0.00    +0.070 A 
ENDROOT
BRANCH  22  24
ATOM      1  F   UNL     1      15.866   9.004   2.910  0.00  0.00    -0.205 F 
ATOM     24  C   UNL     1      12.855   8.972   5.728  0.00  0.00    +0.037 A 
ATOM     25  C   UNL     1      14.182   8.839   6.130  0.00  0.00    +0.016 A 
ATOM     26  C   UNL     1      12.540   9.114   4.379  0.00  0.00    +0.016 A 
ATOM     27  C   UNL     1      15.200   8.849   5.177  0.00  0.00    +0.039 A 
ATOM     28  C   UNL     1      13.559   9.125   3.426  0.00  0.00    +0.039 A 
ATOM     29  C   UNL     1      14.888   8.993   3.825  0.00  0.00    +0.123 A 
ENDBRANCH  22  24
BRANCH  14  13
ATOM     13  C   UNL     1      11.495   5.252   3.144  0.00  0.00    +0.021 C 
ATOM     15  C   UNL     1      12.456   5.939   2.164  0.00  0.00    +0.008 C 
ATOM     16  C   UNL     1      10.940   3.953   2.541  0.00  0.00    +0.008 C 
ATOM     17  C   UNL     1      13.572   4.999   1.713  0.00  0.00    +0.001 C 
ATOM     18  C   UNL     1      12.059   3.017   2.089  0.00  0.00    +0.001 C 
ATOM     20  C   UNL     1      13.016   3.708   1.123  0.00  0.00    +0.000 C 
ENDBRANCH  14  13
TORSDOF 2
ENDMDL
MODEL 4
REMARK VINA RESULT:      -6.5     14.291     16.666
REMARK  Name = 7682629
REMARK  2 active torsions:
REMARK  status: ('A' for Active; 'I' for Inactive)
REMARK    1  A    between atoms: C_13  and  C_14
REMARK    2  A    between atoms: C_22  and  C_24
REMARK                            x       y       z     vdW  Elec       q    Type
REMARK                         _______ _______ _______ _____ _____    ______ ____
ROOT
ATOM      2  O   UNL     1      19.733  -5.047  21.364  0.00  0.00    -0.268 OA
ATOM      3  O   UNL     1      20.606  -1.413  24.964  0.00  0.00    -0.270 OA
ATOM      4  N   UNL     1      18.112  -4.239  22.848  0.00  0.00    -0.311 N 
ATOM      5  N   UNL     1      18.311  -1.872  24.961  0.00  0.00    -0.297 N 
ATOM      6  C   UNL     1      16.390  -3.357  24.455  0.00  0.00    +0.054 C 
ATOM      7  C   UNL     1      17.235  -1.835  22.715  0.00  0.00    +0.027 C 
ATOM      8  C   UNL     1      15.968  -2.421  23.322  0.00  0.00    +0.018 C 
ATOM      9  C   UNL     1      17.281  -4.491  23.956  0.00  0.00    +0.030 A 
ATOM     10  C   UNL     1      18.043  -2.977  22.097  0.00  0.00    +0.130 C 
ATOM     11  C   UNL     1      17.137  -2.547  25.534  0.00  0.00    +0.117 C 
ATOM     12  C   UNL     1      18.037  -1.059  23.777  0.00  0.00    +0.113 C 
ATOM     14  C   UNL     1      17.319  -5.697  24.569  0.00  0.00    -0.024 A 
ATOM     19  C   UNL     1      18.996  -5.206  22.337  0.00  0.00    +0.252 A 
ATOM     21  C   UNL     1      18.209  -6.725  24.071  0.00  0.00    +0.011 A 
ATOM     22  C   UNL     1      19.620  -1.974  25.439  0.00  0.00    +0.247 C 
ATOM     23  C   UNL     1      19.016  -6.516  23.030  0.00  0.00    +0.070 A 
ENDROOT
BRANCH  22  24
ATOM      1  F   UNL     1      20.543  -5.271  29.858  0.00  0.00    -0.205 F 
ATOM     24  C   UNL     1      19.861  -2.840  26.598  0.00  0.00    +0.037 A 
ATOM     25  C   UNL     1      20.470  -4.080  26.422  0.00  0.00    +0.016 A 
ATOM     26  C   UNL     1      19.482  -2.416  27.869  0.00  0.00    +0.016 A 
ATOM     27  C   UNL     1      20.702  -4.902  27.525  0.00  0.00    +0.039 A 
ATOM     28  C   UNL     1      19.712  -3.239  28.972  0.00  0.00    +0.039 A 
ATOM     29  C   UNL     1      20.322  -4.482  28.800  0.00  0.00    +0.123 A 
ENDBRANCH  22  24
BRANCH  14  13
ATOM     13  C   UNL     1      16.539  -6.106  25.783  0.00  0.00    +0.021 C 
ATOM     15  C   UNL     1      17.322  -5.794  27.066  0.00  0.00    +0.008 C 
ATOM     16  C   UNL     1      16.170  -7.595  25.719  0.00  0.00    +0.008 C 
ATOM     17  C   UNL     1      16.566  -6.246  28.313  0.00  0.00    +0.001 C 
ATOM     18  C   UNL     1      15.418  -8.045  26.970  0.00  0.00    +0.001 C 
ATOM     20  C   UNL     1      16.196  -7.724  28.241  0.00  0.00    +0.000 C 
ENDBRANCH  14  13
TORSDOF 2
ENDMDL
MODEL 5
REMARK VINA RESULT:      -6.5     12.626     15.176
REMARK  Name = 7682629
REMARK  2 active torsions:
REMARK  status: ('A' for Active; 'I' for Inactive)
REMARK    1  A    between atoms: C_13  and  C_14
REMARK    2  A    between atoms: C_22  and  C_24
REMARK                            x       y       z     vdW  Elec       q    Type
REMARK                         _______ _______ _______ _____ _____    ______ ____
ROOT
ATOM      2  O   UNL     1      13.784   7.637   6.587  0.00  0.00    -0.268 OA
ATOM      3  O   UNL     1       9.767   6.563   3.484  0.00  0.00    -0.270 OA
ATOM      4  N   UNL     1      11.545   7.635   7.275  0.00  0.00    -0.311 N 
ATOM      5  N   UNL     1       8.941   6.785   5.662  0.00  0.00    -0.297 N 
ATOM      6  C   UNL     1       9.133   7.629   7.986  0.00  0.00    +0.054 C 
ATOM      7  C   UNL     1      10.168   5.478   7.390  0.00  0.00    +0.027 C 
ATOM      8  C   UNL     1       9.393   6.206   8.479  0.00  0.00    +0.018 C 
ATOM      9  C   UNL     1      10.431   8.380   7.703  0.00  0.00    +0.030 A 
ATOM     10  C   UNL     1      11.523   6.166   7.224  0.00  0.00    +0.130 C 
ATOM     11  C   UNL     1       8.274   7.577   6.707  0.00  0.00    +0.117 C 
ATOM     12  C   UNL     1       9.362   5.448   6.078  0.00  0.00    +0.113 C 
ATOM     14  C   UNL     1      10.520   9.727   7.812  0.00  0.00    -0.024 A 
ATOM     19  C   UNL     1      12.774   8.239   6.952  0.00  0.00    +0.252 A 
ATOM     21  C   UNL     1      11.769  10.389   7.497  0.00  0.00    +0.011 A 
ATOM     22  C   UNL     1       9.209   7.220   4.362  0.00  0.00    +0.247 C 
ATOM     23  C   UNL     1      12.840   9.713   7.081  0.00  0.00    +0.070 A 
ENDROOT
BRANCH  22  24
ATOM      1  F   UNL     1       7.708  12.427   2.989  0.00  0.00    -0.205 F 
ATOM     24  C   UNL     1       8.816   8.586   4.000  0.00  0.00    +0.037 A 
ATOM     25  C   UNL     1       7.543   8.828   3.491  0.00  0.00    +0.016 A 
ATOM     26  C   UNL     1       9.717   9.634   4.170  0.00  0.00    +0.016 A 
ATOM     27  C   UNL     1       7.167  10.128   3.150  0.00  0.00    +0.039 A 
ATOM     28  C   UNL     1       9.342  10.933   3.828  0.00  0.00    +0.039 A 
ATOM     29  C   UNL     1       8.067  11.180   3.318  0.00  0.00    +0.123 A 
ENDBRANCH  22  24
BRANCH  14  13
ATOM     13  C   UNL     1       9.418  10.665   8.205  0.00  0.00    +0.021 C 
ATOM     15  C   UNL     1       9.400  11.899   7.292  0.00  0.00    +0.008 C 
ATOM     16  C   UNL     1       9.552  11.078   9.677  0.00  0.00    +0.008 C 
ATOM     17  C   UNL     1       8.315  12.892   7.705  0.00  0.00    +0.001 C 
ATOM     18  C   UNL     1       8.467  12.074  10.085  0.00  0.00    +0.001 C 
ATOM     20  C   UNL     1       8.448  13.293   9.170  0.00  0.00    +0.000 C 
ENDBRANCH  14  13
TORSDOF 2
ENDMDL
MODEL 6
REMARK VINA RESULT:      -6.3     27.214     30.410
REMARK  Name = 7682629
REMARK  2 active torsions:
REMARK  status: ('A' for Active; 'I' for Inactive)
REMARK    1  A    between atoms: C_13  and  C_14
REMARK    2  A    between atoms: C_22  and  C_24
REMARK                            x       y       z     vdW  Elec       q    Type
REMARK                         _______ _______ _______ _____ _____    ______ ____
ROOT
ATOM      2  O   UNL     1      -5.957 -11.648  20.838  0.00  0.00    -0.268 OA
ATOM      3  O   UNL     1      -8.958 -14.059  17.359  0.00  0.00    -0.270 OA
ATOM      4  N   UNL     1      -6.353 -10.867  18.666  0.00  0.00    -0.311 N 
ATOM      5  N   UNL     1      -8.319 -12.003  16.441  0.00  0.00    -0.297 N 
ATOM      6  C   UNL     1      -6.793 -10.052  16.328  0.00  0.00    +0.054 C 
ATOM      7  C   UNL     1      -8.662 -10.036  17.928  0.00  0.00    +0.027 C 
ATOM      8  C   UNL     1      -7.876  -9.172  16.953  0.00  0.00    +0.018 C 
ATOM      9  C   UNL     1      -5.842 -10.618  17.379  0.00  0.00    +0.030 A 
ATOM     10  C   UNL     1      -7.718 -10.475  19.048  0.00  0.00    +0.130 C 
ATOM     11  C   UNL     1      -7.458 -11.207  15.553  0.00  0.00    +0.117 C 
ATOM     12  C   UNL     1      -9.302 -11.232  17.200  0.00  0.00    +0.113 C 
ATOM     14  C   UNL     1      -4.554 -10.921  17.093  0.00  0.00    -0.024 A 
ATOM     19  C   UNL     1      -5.568 -11.423  19.692  0.00  0.00    +0.252 A 
ATOM     21  C   UNL     1      -3.708 -11.488  18.122  0.00  0.00    +0.011 A 
ATOM     22  C   UNL     1      -8.242 -13.387  16.618  0.00  0.00    +0.247 C 
ATOM     23  C   UNL     1      -4.163 -11.744  19.349  0.00  0.00    +0.070 A 
ENDROOT
BRANCH  22  24
ATOM      1  F   UNL     1      -4.297 -16.164  13.792  0.00  0.00    -0.205 F 
ATOM     24  C   UNL     1      -7.208 -14.117  15.877  0.00  0.00    +0.037 A 
ATOM     25  C   UNL     1      -7.378 -14.372  14.519  0.00  0.00    +0.016 A 
ATOM     26  C   UNL     1      -6.058 -14.549  16.535  0.00  0.00    +0.016 A 
ATOM     27  C   UNL     1      -6.394 -15.064  13.813  0.00  0.00    +0.039 A 
ATOM     28  C   UNL     1      -5.074 -15.242  15.829  0.00  0.00    +0.039 A 
ATOM     29  C   UNL     1      -5.242 -15.499  14.469  0.00  0.00    +0.123 A 
ENDBRANCH  22  24
BRANCH  14  13
ATOM     13  C   UNL     1      -3.874 -10.765  15.766  0.00  0.00    +0.021 C 
ATOM     15  C   UNL     1      -4.029 -12.036  14.920  0.00  0.00    +0.008 C 
ATOM     16  C   UNL     1      -2.391 -10.411  15.950  0.00  0.00    +0.008 C 
ATOM     17  C   UNL     1      -3.302 -11.917  13.582  0.00  0.00    +0.001 C 
ATOM     18  C   UNL     1      -1.667 -10.296  14.610  0.00  0.00    +0.001 C 
ATOM     20  C   UNL     1      -1.832 -11.558  13.771  0.00  0.00    +0.000 C 
ENDBRANCH  14  13
TORSDOF 2
ENDMDL
MODEL 7
REMARK VINA RESULT:      -6.2     28.209     30.145
REMARK  Name = 7682629
REMARK  2 active torsions:
REMARK  status: ('A' for Active; 'I' for Inactive)
REMARK    1  A    between atoms: C_13  and  C_14
REMARK    2  A    between atoms: C_22  and  C_24
REMARK                            x       y       z     vdW  Elec       q    Type
REMARK                         _______ _______ _______ _____ _____    ______ ____
ROOT
ATOM      2  O   UNL     1      -6.387 -15.062  16.432  0.00  0.00    -0.268 OA
ATOM      3  O   UNL     1      -8.261 -10.957  18.994  0.00  0.00    -0.270 OA
ATOM      4  N   UNL     1      -5.509 -12.896  16.282  0.00  0.00    -0.311 N 
ATOM      5  N   UNL     1      -6.300 -10.282  17.910  0.00  0.00    -0.297 N 
ATOM      6  C   UNL     1      -4.588 -10.560  16.137  0.00  0.00    +0.054 C 
ATOM      7  C   UNL     1      -4.336 -11.772  18.264  0.00  0.00    +0.027 C 
ATOM      8  C   UNL     1      -3.574 -11.010  17.189  0.00  0.00    +0.018 C 
ATOM      9  C   UNL     1      -5.310 -11.744  15.499  0.00  0.00    +0.030 A 
ATOM     10  C   UNL     1      -4.932 -13.028  17.628  0.00  0.00    +0.130 C 
ATOM     11  C   UNL     1      -5.617  -9.616  16.790  0.00  0.00    +0.117 C 
ATOM     12  C   UNL     1      -5.411 -10.876  18.907  0.00  0.00    +0.113 C 
ATOM     14  C   UNL     1      -5.790 -11.695  14.233  0.00  0.00    -0.024 A 
ATOM     19  C   UNL     1      -6.196 -14.023  15.798  0.00  0.00    +0.252 A 
ATOM     21  C   UNL     1      -6.496 -12.837  13.692  0.00  0.00    +0.011 A 
ATOM     22  C   UNL     1      -7.684 -10.401  18.061  0.00  0.00    +0.247 C 
ATOM     23  C   UNL     1      -6.710 -13.940  14.411  0.00  0.00    +0.070 A 
ENDROOT
BRANCH  22  24
ATOM      1  F   UNL     1     -10.950  -8.248  14.067  0.00  0.00    -0.205 F 
ATOM     24  C   UNL     1      -8.539  -9.836  17.012  0.00  0.00    +0.037 A 
ATOM     25  C   UNL     1      -8.898 -10.615  15.916  0.00  0.00    +0.016 A 
ATOM     26  C   UNL     1      -8.992  -8.523  17.120  0.00  0.00    +0.016 A 
ATOM     27  C   UNL     1      -9.714 -10.079  14.920  0.00  0.00    +0.039 A 
ATOM     28  C   UNL     1      -9.807  -7.986  16.124  0.00  0.00    +0.039 A 
ATOM     29  C   UNL     1     -10.168  -8.764  15.024  0.00  0.00    +0.123 A 
ENDBRANCH  22  24
BRANCH  14  13
ATOM     13  C   UNL     1      -5.705 -10.531  13.291  0.00  0.00    +0.021 C 
ATOM     15  C   UNL     1      -7.035 -10.329  12.553  0.00  0.00    +0.008 C 
ATOM     16  C   UNL     1      -4.551 -10.719  12.295  0.00  0.00    +0.008 C 
ATOM     17  C   UNL     1      -6.956  -9.179  11.551  0.00  0.00    +0.001 C 
ATOM     18  C   UNL     1      -4.478  -9.568  11.293  0.00  0.00    +0.001 C 
ATOM     20  C   UNL     1      -5.804  -9.366  10.569  0.00  0.00    +0.000 C 
ENDBRANCH  14  13
TORSDOF 2
ENDMDL
MODEL 8
REMARK VINA RESULT:      -6.2     14.783     17.050
REMARK  Name = 7682629
REMARK  2 active torsions:
REMARK  status: ('A' for Active; 'I' for Inactive)
REMARK    1  A    between atoms: C_13  and  C_14
REMARK    2  A    between atoms: C_22  and  C_24
REMARK                            x       y       z     vdW  Elec       q    Type
REMARK                         _______ _______ _______ _____ _____    ______ ____
ROOT
ATOM      2  O   UNL     1      22.500  -6.490  23.464  0.00  0.00    -0.268 OA
ATOM      3  O   UNL     1      20.718  -6.670  28.334  0.00  0.00    -0.270 OA
ATOM      4  N   UNL     1      21.486  -4.691  24.568  0.00  0.00    -0.311 N 
ATOM      5  N   UNL     1      20.539  -4.456  27.594  0.00  0.00    -0.297 N 
ATOM      6  C   UNL     1      20.393  -2.776  25.776  0.00  0.00    +0.054 C 
ATOM      7  C   UNL     1      22.603  -3.524  26.558  0.00  0.00    +0.027 C 
ATOM      8  C   UNL     1      21.812  -2.308  26.098  0.00  0.00    +0.018 C 
ATOM      9  C   UNL     1      20.376  -3.832  24.676  0.00  0.00    +0.030 A 
ATOM     10  C   UNL     1      22.692  -4.507  25.390  0.00  0.00    +0.130 C 
ATOM     11  C   UNL     1      19.742  -3.345  27.053  0.00  0.00    +0.117 C 
ATOM     12  C   UNL     1      21.954  -4.154  27.804  0.00  0.00    +0.113 C 
ATOM     14  C   UNL     1      19.320  -3.987  23.843  0.00  0.00    -0.024 A 
ATOM     19  C   UNL     1      21.550  -5.721  23.613  0.00  0.00    +0.252 A 
ATOM     21  C   UNL     1      19.347  -5.030  22.839  0.00  0.00    +0.011 A 
ATOM     22  C   UNL     1      20.057  -5.736  27.882  0.00  0.00    +0.247 C 
ATOM     23  C   UNL     1      20.379  -5.865  22.717  0.00  0.00    +0.070 A 
ENDROOT
BRANCH  22  24
ATOM      1  F   UNL     1      14.667  -6.789  26.837  0.00  0.00    -0.205 F 
ATOM     24  C   UNL     1      18.643  -6.014  27.608  0.00  0.00    +0.037 A 
ATOM     25  C   UNL     1      17.706  -5.910  28.632  0.00  0.00    +0.016 A 
ATOM     26  C   UNL     1      18.245  -6.376  26.324  0.00  0.00    +0.016 A 
ATOM     27  C   UNL     1      16.361  -6.172  28.372  0.00  0.00    +0.039 A 
ATOM     28  C   UNL     1      16.899  -6.640  26.063  0.00  0.00    +0.039 A 
ATOM     29  C   UNL     1      15.958  -6.537  27.087  0.00  0.00    +0.123 A 
ENDBRANCH  22  24
BRANCH  14  13
ATOM     13  C   UNL     1      18.048  -3.192  23.860  0.00  0.00    +0.021 C 
ATOM     15  C   UNL     1      16.903  -3.982  23.210  0.00  0.00    +0.008 C 
ATOM     16  C   UNL     1      18.241  -1.839  23.161  0.00  0.00    +0.008 C 
ATOM     17  C   UNL     1      15.609  -3.172  23.172  0.00  0.00    +0.001 C 
ATOM     18  C   UNL     1      16.944  -1.033  23.122  0.00  0.00    +0.001 C 
ATOM     20  C   UNL     1      15.808  -1.825  22.484  0.00  0.00    +0.000 C 
ENDBRANCH  14  13
TORSDOF 2
ENDMDL
MODEL 9
REMARK VINA RESULT:      -6.2     24.762     26.918
REMARK  Name = 7682629
REMARK  2 active torsions:
REMARK  status: ('A' for Active; 'I' for Inactive)
REMARK    1  A    between atoms: C_13  and  C_14
REMARK    2  A    between atoms: C_22  and  C_24
REMARK                            x       y       z     vdW  Elec       q    Type
REMARK                         _______ _______ _______ _____ _____    ______ ____
ROOT
ATOM      2  O   UNL     1     -14.685  11.936  15.610  0.00  0.00    -0.268 OA
ATOM      3  O   UNL     1     -11.558   7.882  16.449  0.00  0.00    -0.270 OA
ATOM      4  N   UNL     1     -12.872  11.950  17.092  0.00  0.00    -0.311 N 
ATOM      5  N   UNL     1     -10.672   9.712  17.608  0.00  0.00    -0.297 N 
ATOM      6  C   UNL     1     -10.920  11.936  18.678  0.00  0.00    +0.054 C 
ATOM      7  C   UNL     1     -10.451  11.798  16.266  0.00  0.00    +0.027 C 
ATOM      8  C   UNL     1     -10.125  12.571  17.536  0.00  0.00    +0.018 C 
ATOM      9  C   UNL     1     -12.424  11.992  18.425  0.00  0.00    +0.030 A 
ATOM     10  C   UNL     1     -11.936  11.987  15.958  0.00  0.00    +0.130 C 
ATOM     11  C   UNL     1     -10.477  10.470  18.853  0.00  0.00    +0.117 C 
ATOM     12  C   UNL     1     -10.069  10.315  16.420  0.00  0.00    +0.113 C 
ATOM     14  C   UNL     1     -13.321  12.038  19.438  0.00  0.00    -0.024 A 
ATOM     19  C   UNL     1     -14.237  11.957  16.757  0.00  0.00    +0.252 A 
ATOM     21  C   UNL     1     -14.738  12.055  19.139  0.00  0.00    +0.011 A 
ATOM     22  C   UNL     1     -11.390   8.520  17.487  0.00  0.00    +0.247 C 
ATOM     23  C   UNL     1     -15.195  12.007  17.887  0.00  0.00    +0.070 A 
ENDROOT
BRANCH  22  24
ATOM      1  F   UNL     1     -13.804   6.440  22.081  0.00  0.00    -0.205 F 
ATOM     24  C   UNL     1     -12.023   7.976  18.693  0.00  0.00    +0.037 A 
ATOM     25  C   UNL     1     -13.406   8.043  18.841  0.00  0.00    +0.016 A 
ATOM     26  C   UNL     1     -11.238   7.390  19.684  0.00  0.00    +0.016 A 
ATOM     27  C   UNL     1     -14.009   7.524  19.986  0.00  0.00    +0.039 A 
ATOM     28  C   UNL     1     -11.841   6.872  20.830  0.00  0.00    +0.039 A 
ATOM     29  C   UNL     1     -13.226   6.938  20.981  0.00  0.00    +0.123 A 
ENDBRANCH  22  24
BRANCH  14  13
ATOM     13  C   UNL     1     -13.011  12.037  20.905  0.00  0.00    +0.021 C 
ATOM     15  C   UNL     1     -13.006  10.607  21.462  0.00  0.00    +0.008 C 
ATOM     16  C   UNL     1     -14.007  12.918  21.674  0.00  0.00    +0.008 C 
ATOM     17  C   UNL     1     -12.740  10.586  22.966  0.00  0.00    +0.001 C 
ATOM     18  C   UNL     1     -13.739  12.891  23.178  0.00  0.00    +0.001 C 
ATOM     20  C   UNL     1     -13.727  11.468  23.723  0.00  0.00    +0.000 C 
ENDBRANCH  14  13
TORSDOF 2
ENDMDL
MODEL 10
REMARK VINA RESULT:      -6.1     16.072     18.820
REMARK  Name = 7682629
REMARK  2 active torsions:
REMARK  status: ('A' for Active; 'I' for Inactive)
REMARK    1  A    between atoms: C_13  and  C_14
REMARK    2  A    between atoms: C_22  and  C_24
REMARK                            x       y       z     vdW  Elec       q    Type
REMARK                         _______ _______ _______ _____ _____    ______ ____
ROOT
ATOM      2  O   UNL     1      12.894   7.977  -1.952  0.00  0.00    -0.268 OA
ATOM      3  O   UNL     1      10.181   4.088   0.156  0.00  0.00    -0.270 OA
ATOM      4  N   UNL     1      13.760   6.447  -0.404  0.00  0.00    -0.311 N 
ATOM      5  N   UNL     1      12.406   3.855   0.843  0.00  0.00    -0.297 N 
ATOM      6  C   UNL     1      14.664   4.793   1.260  0.00  0.00    +0.054 C 
ATOM      7  C   UNL     1      14.090   3.974  -0.988  0.00  0.00    +0.027 C 
ATOM      8  C   UNL     1      15.202   4.030   0.049  0.00  0.00    +0.018 C 
ATOM      9  C   UNL     1      14.241   6.213   0.898  0.00  0.00    +0.030 A 
ATOM     10  C   UNL     1      13.782   5.402  -1.439  0.00  0.00    +0.130 C 
ATOM     11  C   UNL     1      13.463   4.028   1.852  0.00  0.00    +0.117 C 
ATOM     12  C   UNL     1      12.850   3.261  -0.417  0.00  0.00    +0.113 C 
ATOM     14  C   UNL     1      14.278   7.226   1.796  0.00  0.00    -0.024 A 
ATOM     19  C   UNL     1      13.310   7.712  -0.823  0.00  0.00    +0.252 A 
ATOM     21  C   UNL     1      13.831   8.546   1.404  0.00  0.00    +0.011 A 
ATOM     22  C   UNL     1      11.069   4.230   0.996  0.00  0.00    +0.247 C 
ATOM     23  C   UNL     1      13.362   8.799   0.182  0.00  0.00    +0.070 A 
ENDROOT
BRANCH  22  24
ATOM      1  F   UNL     1       9.564   6.665   5.798  0.00  0.00    -0.205 F 
ATOM     24  C   UNL     1      10.676   4.869   2.256  0.00  0.00    +0.037 A 
ATOM     25  C   UNL     1      10.304   6.211   2.266  0.00  0.00    +0.016 A 
ATOM     26  C   UNL     1      10.672   4.130   3.436  0.00  0.00    +0.016 A 
ATOM     27  C   UNL     1       9.928   6.818   3.463  0.00  0.00    +0.039 A 
ATOM     28  C   UNL     1      10.296   4.737   4.634  0.00  0.00    +0.039 A 
ATOM     29  C   UNL     1       9.924   6.082   4.647  0.00  0.00    +0.123 A 
ENDBRANCH  22  24
BRANCH  14  13
ATOM     13  C   UNL     1      14.713   7.131   3.228  0.00  0.00    +0.021 C 
ATOM     15  C   UNL     1      13.532   7.383   4.175  0.00  0.00    +0.008 C 
ATOM     16  C   UNL     1      15.860   8.112   3.515  0.00  0.00    +0.008 C 
ATOM     17  C   UNL     1      13.963   7.340   5.640  0.00  0.00    +0.001 C 
ATOM     18  C   UNL     1      16.285   8.068   4.982  0.00  0.00    +0.001 C 
ATOM     20  C   UNL     1      15.107   8.309   5.918  0.00  0.00    +0.000 C 
ENDBRANCH  14  13
TORSDOF 2
ENDMDL
