REMARK  Name = 7164973
REMARK  10 active torsions:
REMARK  status: ('A' for Active; 'I' for Inactive)
REMARK    1  A    between atoms: S_1  and  N_7
REMARK    2  A    between atoms: S_1  and  C_27
REMARK    3  A    between atoms: N_8  and  C_19
REMARK    4  A    between atoms: N_11  and  C_28
REMARK    5  A    between atoms: C_12  and  C_15
REMARK    6  A    between atoms: C_15  and  C_19
REMARK    7  A    between atoms: C_19  and  C_25
REMARK    8  A    between atoms: C_20  and  C_23
REMARK    9  A    between atoms: C_28  and  C_33
REMARK   10  A    between atoms: C_28  and  C_34
REMARK                            x       y       z     vdW  Elec       q    Type
REMARK                         _______ _______ _______ _____ _____    ______ ____
ROOT
ATOM      6  O   UNL     1       1.217  -4.640   0.108  0.00  0.00    -0.253 OA
ATOM      7  N   UNL     1       1.967   0.158  -1.393  0.00  0.00    -0.162 NA
ATOM      9  N   UNL     1       0.898  -2.413  -0.463  0.00  0.00    -0.282 N 
ATOM     11  N   UNL     1      -0.934  -3.841  -0.059  0.00  0.00    -0.297 N 
ATOM     20  C   UNL     1       0.731   0.066  -0.563  0.00  0.00    +0.183 C 
ATOM     21  C   UNL     1       0.022  -1.273  -0.755  0.00  0.00    +0.139 C 
ATOM     22  C   UNL     1       2.637  -1.151  -1.661  0.00  0.00    +0.129 C 
ATOM     24  C   UNL     1       2.335  -2.159  -0.562  0.00  0.00    +0.126 C 
ATOM     26  C   UNL     1       0.449  -3.700  -0.118  0.00  0.00    +0.303 C 
ATOM     39  H   UNL     1      -1.536  -3.104  -0.405  0.00  0.00    +0.150 HD
ENDROOT
BRANCH  20  23
ATOM      2  O   UNL     1      -0.183   1.554  -2.181  0.00  0.00    -0.274 OA
ATOM      8  N   UNL     1      -0.924   1.686   0.022  0.00  0.00    -0.303 N 
ATOM     23  C   UNL     1      -0.167   1.169  -1.015  0.00  0.00    +0.234 C 
ATOM     36  H   UNL     1      -0.779   1.334   0.964  0.00  0.00    +0.149 HD
BRANCH   8  19
ATOM     19  C   UNL     1      -1.856   2.777  -0.149  0.00  0.00    +0.159 C 
BRANCH  19  25
ATOM      5  O   UNL     1      -0.160   4.261   0.760  0.00  0.00    -0.274 OA
ATOM     10  N   UNL     1      -1.599   5.086  -0.828  0.00  0.00    -0.328 N 
ATOM     25  C   UNL     1      -1.099   4.092  -0.013  0.00  0.00    +0.231 C 
ATOM     37  H   UNL     1      -2.388   4.939  -1.448  0.00  0.00    +0.145 HD
ATOM     38  H   UNL     1      -1.188   6.013  -0.827  0.00  0.00    +0.145 HD
ENDBRANCH  19  25
BRANCH  19  15
ATOM     15  C   UNL     1      -3.047   2.677   0.810  0.00  0.00    +0.035 C 
BRANCH  15  12
ATOM     12  C   UNL     1      -3.810   1.357   0.725  0.00  0.00    -0.009 C 
ATOM     13  C   UNL     1      -4.342   1.128  -0.696  0.00  0.00    +0.003 C 
ATOM     14  C   UNL     1      -4.954   1.325   1.748  0.00  0.00    +0.003 C 
ATOM     16  C   UNL     1      -5.154  -0.161  -0.794  0.00  0.00    +0.000 C 
ATOM     17  C   UNL     1      -5.765   0.035   1.646  0.00  0.00    +0.000 C 
ATOM     18  C   UNL     1      -6.285  -0.192   0.230  0.00  0.00    +0.000 C 
ENDBRANCH  15  12
ENDBRANCH  19  15
ENDBRANCH   8  19
ENDBRANCH  20  23
BRANCH   7   1
ATOM      1  S   UNL     1       3.010   1.484  -1.084  0.00  0.00    +0.062 S 
ATOM      3  O   UNL     1       2.210   2.617  -0.684  0.00  0.00    -0.153 OA
ATOM      4  O   UNL     1       3.966   1.577  -2.162  0.00  0.00    -0.153 OA
BRANCH   1  27
ATOM     27  C   UNL     1       3.848   0.875   0.344  0.00  0.00    +0.106 A 
ATOM     29  C   UNL     1       5.023   0.137   0.201  0.00  0.00    +0.028 A 
ATOM     30  C   UNL     1       3.337   1.133   1.616  0.00  0.00    +0.028 A 
ATOM     31  C   UNL     1       5.686  -0.345   1.330  0.00  0.00    +0.002 A 
ATOM     32  C   UNL     1       3.999   0.652   2.745  0.00  0.00    +0.002 A 
ATOM     35  C   UNL     1       5.174  -0.087   2.602  0.00  0.00    +0.000 A 
ENDBRANCH   1  27
ENDBRANCH   7   1
BRANCH  11  28
ATOM     28  C   UNL     1      -1.567  -5.097   0.271  0.00  0.00    +0.068 C 
ATOM     33  C   UNL     1      -1.784  -5.928  -0.988  0.00  0.00    +0.027 C 
ATOM     34  C   UNL     1      -2.879  -4.857   1.007  0.00  0.00    +0.027 C 
ENDBRANCH  11  28
TORSDOF 8
