REMARK  Name = 75537066
REMARK  3 active torsions:
REMARK  status: ('A' for Active; 'I' for Inactive)
REMARK    1  A    between atoms: N_3  and  C_12
REMARK    2  A    between atoms: N_4  and  C_13
REMARK    3  A    between atoms: C_12  and  C_14
REMARK                            x       y       z     vdW  Elec       q    Type
REMARK                         _______ _______ _______ _____ _____    ______ ____
ROOT
ATOM      1  O   UNL     1      -0.203   2.480   0.697  0.00  0.00    -0.252 OA
ATOM      2  N   UNL     1      -1.793   0.914  -0.036  0.00  0.00    -0.278 N 
ATOM      3  N   UNL     1       0.255   0.862  -0.957  0.00  0.00    -0.279 N 
ATOM      4  N   UNL     1      -3.844  -1.006   0.103  0.00  0.00    -0.302 NA
ATOM      6  C   UNL     1      -1.888  -0.089  -1.076  0.00  0.00    +0.109 C 
ATOM      7  C   UNL     1      -0.442  -0.275  -1.533  0.00  0.00    +0.133 C 
ATOM      8  C   UNL     1      -2.559  -1.352  -0.538  0.00  0.00    +0.108 C 
ATOM      9  C   UNL     1      -2.963   1.224   0.758  0.00  0.00    +0.125 C 
ATOM     10  C   UNL     1      -3.637  -0.068   1.225  0.00  0.00    +0.103 C 
ATOM     11  C   UNL     1      -0.540   1.541  -0.011  0.00  0.00    +0.305 C 
ATOM     13  C   UNL     1      -4.523  -2.215   0.568  0.00  0.00    +0.105 C 
ENDROOT
BRANCH   3  12
ATOM     12  C   UNL     1       1.648   1.130  -1.239  0.00  0.00    +0.146 C 
BRANCH  12  14
ATOM      5  N   UNL     1       4.062  -1.613  -0.264  0.00  0.00    -0.263 NA
ATOM     14  C   UNL     1       2.563   0.279  -0.407  0.00  0.00    -0.012 A 
ATOM     15  C   UNL     1       2.773   0.556   0.939  0.00  0.00    +0.008 A 
ATOM     16  C   UNL     1       3.226  -0.807  -0.956  0.00  0.00    +0.115 A 
ATOM     17  C   UNL     1       3.626  -0.250   1.685  0.00  0.00    +0.020 A 
ATOM     18  C   UNL     1       4.240  -1.312   1.042  0.00  0.00    +0.111 A 
ENDBRANCH  12  14
ENDBRANCH   3  12
TORSDOF 2
