REMARK  Name = 75536981
REMARK  4 active torsions:
REMARK  status: ('A' for Active; 'I' for Inactive)
REMARK    1  A    between atoms: S_1  and  N_6
REMARK    2  A    between atoms: S_1  and  C_16
REMARK    3  A    between atoms: N_7  and  C_15
REMARK    4  A    between atoms: C_15  and  C_17
REMARK                            x       y       z     vdW  Elec       q    Type
REMARK                         _______ _______ _______ _____ _____    ______ ____
ROOT
ATOM      2  O   UNL     1       2.215  -2.054  -2.035  0.00  0.00    -0.252 OA
ATOM      5  N   UNL     1       0.373  -2.040  -0.577  0.00  0.00    -0.278 N 
ATOM      6  N   UNL     1      -2.213  -1.482   0.329  0.00  0.00    -0.173 NA
ATOM      7  N   UNL     1       2.403  -1.576   0.267  0.00  0.00    -0.278 N 
ATOM      9  C   UNL     1       0.153  -1.914   0.851  0.00  0.00    +0.111 C 
ATOM     10  C   UNL     1      -1.037  -1.001   1.128  0.00  0.00    +0.133 C 
ATOM     11  C   UNL     1       1.488  -1.396   1.381  0.00  0.00    +0.133 C 
ATOM     12  C   UNL     1      -0.738  -2.375  -1.447  0.00  0.00    +0.127 C 
ATOM     13  C   UNL     1      -1.929  -1.471  -1.145  0.00  0.00    +0.128 C 
ATOM     14  C   UNL     1       1.725  -1.911  -0.922  0.00  0.00    +0.306 C 
ENDROOT
BRANCH   6   1
ATOM      1  S   UNL     1      -3.725  -0.818   0.785  0.00  0.00    +0.061 S 
ATOM      3  O   UNL     1      -3.791  -0.743   2.228  0.00  0.00    -0.153 OA
ATOM      4  O   UNL     1      -4.771  -1.465   0.022  0.00  0.00    -0.153 OA
BRANCH   1  16
ATOM     16  C   UNL     1      -3.538   0.825   0.166  0.00  0.00    +0.105 A 
ATOM     18  C   UNL     1      -3.935   1.129  -1.136  0.00  0.00    +0.028 A 
ATOM     19  C   UNL     1      -2.990   1.818   0.978  0.00  0.00    +0.028 A 
ATOM     21  C   UNL     1      -3.784   2.426  -1.627  0.00  0.00    +0.002 A 
ATOM     22  C   UNL     1      -2.839   3.115   0.487  0.00  0.00    +0.002 A 
ATOM     23  C   UNL     1      -3.235   3.419  -0.815  0.00  0.00    +0.000 A 
ENDBRANCH   1  16
ENDBRANCH   6   1
BRANCH   7  15
ATOM     15  C   UNL     1       3.817  -1.301   0.385  0.00  0.00    +0.164 C 
BRANCH  15  17
ATOM      8  N   UNL     1       4.413   0.839   1.369  0.00  0.00    -0.258 NA
ATOM     17  C   UNL     1       4.119   0.163   0.236  0.00  0.00    +0.059 A 
ATOM     20  C   UNL     1       4.085   0.738  -1.024  0.00  0.00    +0.025 A 
ATOM     24  C   UNL     1       4.370   2.095  -1.127  0.00  0.00    +0.003 A 
ATOM     25  C   UNL     1       4.686   2.155   1.229  0.00  0.00    +0.111 A 
ATOM     26  C   UNL     1       4.678   2.824   0.016  0.00  0.00    +0.020 A 
ENDBRANCH  15  17
ENDBRANCH   7  15
TORSDOF 4
