MODEL 1
REMARK VINA RESULT:      -6.1      0.000      0.000
REMARK  Name = 44715947
REMARK  10 active torsions:
REMARK  status: ('A' for Active; 'I' for Inactive)
REMARK    1  A    between atoms: O_2  and  C_21
REMARK    2  A    between atoms: O_2  and  C_23
REMARK    3  A    between atoms: O_3  and  C_22
REMARK    4  A    between atoms: O_3  and  C_24
REMARK    5  A    between atoms: N_5  and  C_16
REMARK    6  A    between atoms: N_6  and  C_19
REMARK    7  A    between atoms: C_10  and  C_16
REMARK    8  A    between atoms: C_11  and  C_17
REMARK    9  A    between atoms: C_19  and  C_21
REMARK   10  A    between atoms: C_20  and  C_22
REMARK                            x       y       z     vdW  Elec       q    Type
REMARK                         _______ _______ _______ _____ _____    ______ ____
ROOT
ATOM      4  N   UNL     1      13.916   6.854  19.622  0.00  0.00    -0.297 NA
ATOM      9  C   UNL     1      14.090   8.544  21.594  0.00  0.00    +0.005 C 
ATOM     10  C   UNL     1      14.090   8.233  19.094  0.00  0.00    +0.078 C 
ATOM     11  C   UNL     1      12.840   7.653  21.731  0.00  0.00    +0.092 C 
ATOM     12  C   UNL     1      14.041   9.272  20.237  0.00  0.00    +0.025 C 
ATOM     13  C   UNL     1      15.306   7.600  21.564  0.00  0.00    +0.020 C 
ATOM     14  C   UNL     1      12.704   6.776  20.473  0.00  0.00    +0.097 C 
ATOM     15  C   UNL     1      15.095   6.538  20.468  0.00  0.00    +0.085 C 
ENDROOT
BRANCH  11  17
ATOM      1  O   UNL     1      10.593   8.326  21.281  0.00  0.00    -0.275 OA
ATOM      6  N   UNL     1      11.759   9.370  23.004  0.00  0.00    -0.313 N 
ATOM     17  C   UNL     1      11.603   8.466  21.968  0.00  0.00    +0.218 C 
ATOM     25  H   UNL     1      12.644   9.409  23.502  0.00  0.00    +0.149 HD
BRANCH   6  19
ATOM     19  C   UNL     1      10.723  10.288  23.418  0.00  0.00    +0.132 C 
BRANCH  19  21
ATOM     21  C   UNL     1      11.281  11.407  24.278  0.00  0.00    +0.178 C 
BRANCH  21   2
ATOM      2  O   UNL     1      10.234  12.308  24.618  0.00  0.00    -0.381 OA
ATOM     23  C   UNL     1      10.677  13.301  25.533  0.00  0.00    +0.194 C 
ENDBRANCH  21   2
ENDBRANCH  19  21
ENDBRANCH   6  19
ENDBRANCH  11  17
BRANCH  10  16
ATOM     16  C   UNL     1      13.090   8.562  17.983  0.00  0.00    +0.164 C 
BRANCH  16   5
ATOM      5  N   UNL     1      13.781   9.088  16.757  0.00  0.00    -0.250 N 
ATOM      7  N   UNL     1      14.074   8.272  15.730  0.00  0.00    -0.065 NA
ATOM      8  N   UNL     1      14.679   9.006  14.803  0.00  0.00    -0.132 NA
ATOM     18  C   UNL     1      14.190  10.363  16.516  0.00  0.00    +0.136 A 
ATOM     20  C   UNL     1      14.758  10.289  15.269  0.00  0.00    +0.108 A 
BRANCH  20  22
ATOM     22  C   UNL     1      15.381  11.352  14.470  0.00  0.00    +0.218 C 
BRANCH  22   3
ATOM      3  O   UNL     1      15.179  11.108  13.076  0.00  0.00    -0.377 OA
ATOM     24  C   UNL     1      15.985  11.964  12.283  0.00  0.00    +0.194 C 
ENDBRANCH  22   3
ENDBRANCH  20  22
ENDBRANCH  16   5
ENDBRANCH  10  16
TORSDOF 8
ENDMDL
MODEL 2
REMARK VINA RESULT:      -5.8      3.633      5.094
REMARK  Name = 44715947
REMARK  10 active torsions:
REMARK  status: ('A' for Active; 'I' for Inactive)
REMARK    1  A    between atoms: O_2  and  C_21
REMARK    2  A    between atoms: O_2  and  C_23
REMARK    3  A    between atoms: O_3  and  C_22
REMARK    4  A    between atoms: O_3  and  C_24
REMARK    5  A    between atoms: N_5  and  C_16
REMARK    6  A    between atoms: N_6  and  C_19
REMARK    7  A    between atoms: C_10  and  C_16
REMARK    8  A    between atoms: C_11  and  C_17
REMARK    9  A    between atoms: C_19  and  C_21
REMARK   10  A    between atoms: C_20  and  C_22
REMARK                            x       y       z     vdW  Elec       q    Type
REMARK                         _______ _______ _______ _____ _____    ______ ____
ROOT
ATOM      4  N   UNL     1      13.095   7.573  19.497  0.00  0.00    -0.297 NA
ATOM      9  C   UNL     1      11.942   7.855  21.813  0.00  0.00    +0.005 C 
ATOM     10  C   UNL     1      14.105   7.466  20.583  0.00  0.00    +0.078 C 
ATOM     11  C   UNL     1      11.581   9.015  20.865  0.00  0.00    +0.092 C 
ATOM     12  C   UNL     1      13.474   7.782  21.958  0.00  0.00    +0.025 C 
ATOM     13  C   UNL     1      11.485   6.558  21.121  0.00  0.00    +0.020 C 
ATOM     14  C   UNL     1      12.398   8.881  19.568  0.00  0.00    +0.097 C 
ATOM     15  C   UNL     1      12.089   6.502  19.704  0.00  0.00    +0.085 C 
ENDROOT
BRANCH  11  17
ATOM      1  O   UNL     1      12.711  11.097  21.169  0.00  0.00    -0.275 OA
ATOM      6  N   UNL     1      10.886  10.597  22.524  0.00  0.00    -0.313 N 
ATOM     17  C   UNL     1      11.799  10.349  21.514  0.00  0.00    +0.218 C 
ATOM     25  H   UNL     1      10.175   9.903  22.735  0.00  0.00    +0.149 HD
BRANCH   6  19
ATOM     19  C   UNL     1      10.895  11.803  23.321  0.00  0.00    +0.132 C 
BRANCH  19  21
ATOM     21  C   UNL     1      11.144  11.499  24.788  0.00  0.00    +0.178 C 
BRANCH  21   2
ATOM      2  O   UNL     1      10.452  12.447  25.590  0.00  0.00    -0.381 OA
ATOM     23  C   UNL     1      11.149  13.684  25.653  0.00  0.00    +0.194 C 
ENDBRANCH  21   2
ENDBRANCH  19  21
ENDBRANCH   6  19
ENDBRANCH  11  17
BRANCH  10  16
ATOM     16  C   UNL     1      15.343   8.325  20.314  0.00  0.00    +0.164 C 
BRANCH  16   5
ATOM      5  N   UNL     1      16.579   7.482  20.172  0.00  0.00    -0.250 N 
ATOM      7  N   UNL     1      16.628   6.479  19.278  0.00  0.00    -0.065 NA
ATOM      8  N   UNL     1      17.827   5.916  19.382  0.00  0.00    -0.132 NA
ATOM     18  C   UNL     1      17.742   7.587  20.871  0.00  0.00    +0.136 A 
ATOM     20  C   UNL     1      18.521   6.582  20.353  0.00  0.00    +0.108 A 
BRANCH  20  22
ATOM     22  C   UNL     1      19.892   6.196  20.711  0.00  0.00    +0.218 C 
BRANCH  22   3
ATOM      3  O   UNL     1      20.158   4.858  20.281  0.00  0.00    -0.377 OA
ATOM     24  C   UNL     1      21.338   4.352  20.881  0.00  0.00    +0.194 C 
ENDBRANCH  22   3
ENDBRANCH  20  22
ENDBRANCH  16   5
ENDBRANCH  10  16
TORSDOF 8
ENDMDL
MODEL 3
REMARK VINA RESULT:      -5.8      1.867      7.569
REMARK  Name = 44715947
REMARK  10 active torsions:
REMARK  status: ('A' for Active; 'I' for Inactive)
REMARK    1  A    between atoms: O_2  and  C_21
REMARK    2  A    between atoms: O_2  and  C_23
REMARK    3  A    between atoms: O_3  and  C_22
REMARK    4  A    between atoms: O_3  and  C_24
REMARK    5  A    between atoms: N_5  and  C_16
REMARK    6  A    between atoms: N_6  and  C_19
REMARK    7  A    between atoms: C_10  and  C_16
REMARK    8  A    between atoms: C_11  and  C_17
REMARK    9  A    between atoms: C_19  and  C_21
REMARK   10  A    between atoms: C_20  and  C_22
REMARK                            x       y       z     vdW  Elec       q    Type
REMARK                         _______ _______ _______ _____ _____    ______ ____
ROOT
ATOM      4  N   UNL     1      13.864   8.760  21.174  0.00  0.00    -0.297 NA
ATOM      9  C   UNL     1      14.201   6.804  19.490  0.00  0.00    +0.005 C 
ATOM     10  C   UNL     1      12.581   8.036  20.975  0.00  0.00    +0.078 C 
ATOM     11  C   UNL     1      14.722   8.133  18.912  0.00  0.00    +0.092 C 
ATOM     12  C   UNL     1      12.715   6.968  19.867  0.00  0.00    +0.025 C 
ATOM     13  C   UNL     1      14.979   6.552  20.795  0.00  0.00    +0.020 C 
ATOM     14  C   UNL     1      14.370   9.278  19.878  0.00  0.00    +0.097 C 
ATOM     15  C   UNL     1      14.857   7.792  21.702  0.00  0.00    +0.085 C 
ENDROOT
BRANCH  11  17
ATOM      1  O   UNL     1      13.981   7.478  16.738  0.00  0.00    -0.275 OA
ATOM      6  N   UNL     1      13.966   9.737  17.301  0.00  0.00    -0.313 N 
ATOM     17  C   UNL     1      14.179   8.390  17.538  0.00  0.00    +0.218 C 
ATOM     25  H   UNL     1      14.173  10.411  18.032  0.00  0.00    +0.149 HD
BRANCH   6  19
ATOM     19  C   UNL     1      13.468  10.251  16.046  0.00  0.00    +0.132 C 
BRANCH  19  21
ATOM     21  C   UNL     1      14.535  11.037  15.304  0.00  0.00    +0.178 C 
BRANCH  21   2
ATOM      2  O   UNL     1      14.145  11.195  13.946  0.00  0.00    -0.381 OA
ATOM     23  C   UNL     1      13.362  12.366  13.760  0.00  0.00    +0.194 C 
ENDBRANCH  21   2
ENDBRANCH  19  21
ENDBRANCH   6  19
ENDBRANCH  11  17
BRANCH  10  16
ATOM     16  C   UNL     1      11.410   8.986  20.712  0.00  0.00    +0.164 C 
BRANCH  16   5
ATOM      5  N   UNL     1      11.339  10.074  21.746  0.00  0.00    -0.250 N 
ATOM      7  N   UNL     1      11.516  11.361  21.401  0.00  0.00    -0.065 NA
ATOM      8  N   UNL     1      11.404  12.084  22.509  0.00  0.00    -0.132 NA
ATOM     18  C   UNL     1      11.110   9.939  23.080  0.00  0.00    +0.136 A 
ATOM     20  C   UNL     1      11.155  11.229  23.546  0.00  0.00    +0.108 A 
BRANCH  20  22
ATOM     22  C   UNL     1      10.980  11.725  24.918  0.00  0.00    +0.218 C 
BRANCH  22   3
ATOM      3  O   UNL     1      12.236  11.750  25.600  0.00  0.00    -0.377 OA
ATOM     24  C   UNL     1      12.675  13.080  25.818  0.00  0.00    +0.194 C 
ENDBRANCH  22   3
ENDBRANCH  20  22
ENDBRANCH  16   5
ENDBRANCH  10  16
TORSDOF 8
ENDMDL
MODEL 4
REMARK VINA RESULT:      -5.6      3.426      5.415
REMARK  Name = 44715947
REMARK  10 active torsions:
REMARK  status: ('A' for Active; 'I' for Inactive)
REMARK    1  A    between atoms: O_2  and  C_21
REMARK    2  A    between atoms: O_2  and  C_23
REMARK    3  A    between atoms: O_3  and  C_22
REMARK    4  A    between atoms: O_3  and  C_24
REMARK    5  A    between atoms: N_5  and  C_16
REMARK    6  A    between atoms: N_6  and  C_19
REMARK    7  A    between atoms: C_10  and  C_16
REMARK    8  A    between atoms: C_11  and  C_17
REMARK    9  A    between atoms: C_19  and  C_21
REMARK   10  A    between atoms: C_20  and  C_22
REMARK                            x       y       z     vdW  Elec       q    Type
REMARK                         _______ _______ _______ _____ _____    ______ ____
ROOT
ATOM      4  N   UNL     1      14.520   9.351  18.738  0.00  0.00    -0.297 NA
ATOM      9  C   UNL     1      12.409   7.873  18.370  0.00  0.00    +0.005 C 
ATOM     10  C   UNL     1      14.788   7.961  19.193  0.00  0.00    +0.078 C 
ATOM     11  C   UNL     1      12.063   9.154  19.152  0.00  0.00    +0.092 C 
ATOM     12  C   UNL     1      13.506   7.101  19.129  0.00  0.00    +0.025 C 
ATOM     13  C   UNL     1      13.012   8.323  17.026  0.00  0.00    +0.020 C 
ATOM     14  C   UNL     1      13.361   9.919  19.470  0.00  0.00    +0.097 C 
ATOM     15  C   UNL     1      14.173   9.299  17.295  0.00  0.00    +0.085 C 
ENDROOT
BRANCH  11  17
ATOM      1  O   UNL     1      10.580   7.849  20.494  0.00  0.00    -0.275 OA
ATOM      6  N   UNL     1      11.455   9.820  21.372  0.00  0.00    -0.313 N 
ATOM     17  C   UNL     1      11.287   8.850  20.399  0.00  0.00    +0.218 C 
ATOM     25  H   UNL     1      12.059  10.615  21.184  0.00  0.00    +0.149 HD
BRANCH   6  19
ATOM     19  C   UNL     1      10.798   9.774  22.658  0.00  0.00    +0.132 C 
BRANCH  19  21
ATOM     21  C   UNL     1      11.154  10.980  23.509  0.00  0.00    +0.178 C 
BRANCH  21   2
ATOM      2  O   UNL     1      11.654  12.016  22.674  0.00  0.00    -0.381 OA
ATOM     23  C   UNL     1      10.792  13.146  22.673  0.00  0.00    +0.194 C 
ENDBRANCH  21   2
ENDBRANCH  19  21
ENDBRANCH   6  19
ENDBRANCH  11  17
BRANCH  10  16
ATOM     16  C   UNL     1      15.434   7.916  20.580  0.00  0.00    +0.164 C 
BRANCH  16   5
ATOM      5  N   UNL     1      16.795   7.281  20.534  0.00  0.00    -0.250 N 
ATOM      7  N   UNL     1      17.099   6.377  19.586  0.00  0.00    -0.065 NA
ATOM      8  N   UNL     1      18.353   5.991  19.798  0.00  0.00    -0.132 NA
ATOM     18  C   UNL     1      17.842   7.497  21.375  0.00  0.00    +0.136 A 
ATOM     20  C   UNL     1      18.822   6.667  20.890  0.00  0.00    +0.108 A 
BRANCH  20  22
ATOM     22  C   UNL     1      20.189   6.459  21.385  0.00  0.00    +0.218 C 
BRANCH  22   3
ATOM      3  O   UNL     1      20.688   5.193  20.944  0.00  0.00    -0.377 OA
ATOM     24  C   UNL     1      21.967   5.326  20.348  0.00  0.00    +0.194 C 
ENDBRANCH  22   3
ENDBRANCH  20  22
ENDBRANCH  16   5
ENDBRANCH  10  16
TORSDOF 8
ENDMDL
MODEL 5
REMARK VINA RESULT:      -5.3      3.544      5.678
REMARK  Name = 44715947
REMARK  10 active torsions:
REMARK  status: ('A' for Active; 'I' for Inactive)
REMARK    1  A    between atoms: O_2  and  C_21
REMARK    2  A    between atoms: O_2  and  C_23
REMARK    3  A    between atoms: O_3  and  C_22
REMARK    4  A    between atoms: O_3  and  C_24
REMARK    5  A    between atoms: N_5  and  C_16
REMARK    6  A    between atoms: N_6  and  C_19
REMARK    7  A    between atoms: C_10  and  C_16
REMARK    8  A    between atoms: C_11  and  C_17
REMARK    9  A    between atoms: C_19  and  C_21
REMARK   10  A    between atoms: C_20  and  C_22
REMARK                            x       y       z     vdW  Elec       q    Type
REMARK                         _______ _______ _______ _____ _____    ______ ____
ROOT
ATOM      4  N   UNL     1      15.556  10.182  19.866  0.00  0.00    -0.297 NA
ATOM      9  C   UNL     1      13.357  11.324  19.071  0.00  0.00    +0.005 C 
ATOM     10  C   UNL     1      14.764   9.236  19.037  0.00  0.00    +0.078 C 
ATOM     11  C   UNL     1      13.529  11.446  20.597  0.00  0.00    +0.092 C 
ATOM     12  C   UNL     1      13.385   9.834  18.680  0.00  0.00    +0.025 C 
ATOM     13  C   UNL     1      14.589  11.989  18.431  0.00  0.00    +0.020 C 
ATOM     14  C   UNL     1      14.760  10.634  21.034  0.00  0.00    +0.097 C 
ATOM     15  C   UNL     1      15.866  11.370  19.032  0.00  0.00    +0.085 C 
ENDROOT
BRANCH  11  17
ATOM      1  O   UNL     1      11.309  11.735  21.433  0.00  0.00    -0.275 OA
ATOM      6  N   UNL     1      12.428   9.740  21.869  0.00  0.00    -0.313 N 
ATOM     17  C   UNL     1      12.295  11.008  21.330  0.00  0.00    +0.218 C 
ATOM     25  H   UNL     1      13.294   9.228  21.732  0.00  0.00    +0.149 HD
BRANCH   6  19
ATOM     19  C   UNL     1      11.391   9.096  22.641  0.00  0.00    +0.132 C 
BRANCH  19  21
ATOM     21  C   UNL     1      10.616   8.092  21.806  0.00  0.00    +0.178 C 
BRANCH  21   2
ATOM      2  O   UNL     1      11.529   7.248  21.116  0.00  0.00    -0.381 OA
ATOM     23  C   UNL     1      11.337   5.883  21.460  0.00  0.00    +0.194 C 
ENDBRANCH  21   2
ENDBRANCH  19  21
ENDBRANCH   6  19
ENDBRANCH  11  17
BRANCH  10  16
ATOM     16  C   UNL     1      14.635   7.857  19.689  0.00  0.00    +0.164 C 
BRANCH  16   5
ATOM      5  N   UNL     1      15.953   7.136  19.721  0.00  0.00    -0.250 N 
ATOM      7  N   UNL     1      16.209   6.135  18.862  0.00  0.00    -0.065 NA
ATOM      8  N   UNL     1      17.433   5.692  19.127  0.00  0.00    -0.132 NA
ATOM     18  C   UNL     1      17.002   7.359  20.558  0.00  0.00    +0.136 A 
ATOM     20  C   UNL     1      17.932   6.431  20.164  0.00  0.00    +0.108 A 
BRANCH  20  22
ATOM     22  C   UNL     1      19.278   6.182  20.698  0.00  0.00    +0.218 C 
BRANCH  22   3
ATOM      3  O   UNL     1      19.784   4.939  20.206  0.00  0.00    -0.377 OA
ATOM     24  C   UNL     1      21.180   4.829  20.430  0.00  0.00    +0.194 C 
ENDBRANCH  22   3
ENDBRANCH  20  22
ENDBRANCH  16   5
ENDBRANCH  10  16
TORSDOF 8
ENDMDL
MODEL 6
REMARK VINA RESULT:      -5.3     14.484     20.240
REMARK  Name = 44715947
REMARK  10 active torsions:
REMARK  status: ('A' for Active; 'I' for Inactive)
REMARK    1  A    between atoms: O_2  and  C_21
REMARK    2  A    between atoms: O_2  and  C_23
REMARK    3  A    between atoms: O_3  and  C_22
REMARK    4  A    between atoms: O_3  and  C_24
REMARK    5  A    between atoms: N_5  and  C_16
REMARK    6  A    between atoms: N_6  and  C_19
REMARK    7  A    between atoms: C_10  and  C_16
REMARK    8  A    between atoms: C_11  and  C_17
REMARK    9  A    between atoms: C_19  and  C_21
REMARK   10  A    between atoms: C_20  and  C_22
REMARK                            x       y       z     vdW  Elec       q    Type
REMARK                         _______ _______ _______ _____ _____    ______ ____
ROOT
ATOM      4  N   UNL     1      13.326   5.754   1.423  0.00  0.00    -0.297 NA
ATOM      9  C   UNL     1      13.196   3.243   0.749  0.00  0.00    +0.005 C 
ATOM     10  C   UNL     1      12.506   5.005   2.412  0.00  0.00    +0.078 C 
ATOM     11  C   UNL     1      12.796   4.157  -0.425  0.00  0.00    +0.092 C 
ATOM     12  C   UNL     1      12.285   3.546   1.955  0.00  0.00    +0.025 C 
ATOM     13  C   UNL     1      14.630   3.636   1.149  0.00  0.00    +0.020 C 
ATOM     14  C   UNL     1      12.748   5.616   0.064  0.00  0.00    +0.097 C 
ATOM     15  C   UNL     1      14.684   5.153   1.410  0.00  0.00    +0.085 C 
ENDROOT
BRANCH  11  17
ATOM      1  O   UNL     1      10.418   4.197  -0.643  0.00  0.00    -0.275 OA
ATOM      6  N   UNL     1      11.654   2.793  -2.029  0.00  0.00    -0.313 N 
ATOM     17  C   UNL     1      11.490   3.739  -1.032  0.00  0.00    +0.218 C 
ATOM     25  H   UNL     1      12.589   2.475  -2.266  0.00  0.00    +0.149 HD
BRANCH   6  19
ATOM     19  C   UNL     1      10.550   2.210  -2.756  0.00  0.00    +0.132 C 
BRANCH  19  21
ATOM     21  C   UNL     1       9.995   3.172  -3.792  0.00  0.00    +0.178 C 
BRANCH  21   2
ATOM      2  O   UNL     1      10.337   2.711  -5.093  0.00  0.00    -0.381 OA
ATOM     23  C   UNL     1       9.692   3.476  -6.103  0.00  0.00    +0.194 C 
ENDBRANCH  21   2
ENDBRANCH  19  21
ENDBRANCH   6  19
ENDBRANCH  11  17
BRANCH  10  16
ATOM     16  C   UNL     1      11.184   5.710   2.726  0.00  0.00    +0.164 C 
BRANCH  16   5
ATOM      5  N   UNL     1      10.789   5.526   4.164  0.00  0.00    -0.250 N 
ATOM      7  N   UNL     1       9.953   4.538   4.525  0.00  0.00    -0.065 NA
ATOM      8  N   UNL     1       9.785   4.625   5.840  0.00  0.00    -0.132 NA
ATOM     18  C   UNL     1      11.177   6.270   5.235  0.00  0.00    +0.136 A 
ATOM     20  C   UNL     1      10.527   5.681   6.290  0.00  0.00    +0.108 A 
BRANCH  20  22
ATOM     22  C   UNL     1      10.553   6.043   7.713  0.00  0.00    +0.218 C 
BRANCH  22   3
ATOM      3  O   UNL     1      10.544   4.866   8.524  0.00  0.00    -0.377 OA
ATOM     24  C   UNL     1       9.507   4.917   9.489  0.00  0.00    +0.194 C 
ENDBRANCH  22   3
ENDBRANCH  20  22
ENDBRANCH  16   5
ENDBRANCH  10  16
TORSDOF 8
ENDMDL
MODEL 7
REMARK VINA RESULT:      -5.2     13.340     16.126
REMARK  Name = 44715947
REMARK  10 active torsions:
REMARK  status: ('A' for Active; 'I' for Inactive)
REMARK    1  A    between atoms: O_2  and  C_21
REMARK    2  A    between atoms: O_2  and  C_23
REMARK    3  A    between atoms: O_3  and  C_22
REMARK    4  A    between atoms: O_3  and  C_24
REMARK    5  A    between atoms: N_5  and  C_16
REMARK    6  A    between atoms: N_6  and  C_19
REMARK    7  A    between atoms: C_10  and  C_16
REMARK    8  A    between atoms: C_11  and  C_17
REMARK    9  A    between atoms: C_19  and  C_21
REMARK   10  A    between atoms: C_20  and  C_22
REMARK                            x       y       z     vdW  Elec       q    Type
REMARK                         _______ _______ _______ _____ _____    ______ ____
ROOT
ATOM      4  N   UNL     1       9.585   5.341   5.953  0.00  0.00    -0.297 NA
ATOM      9  C   UNL     1      10.260   7.212   7.631  0.00  0.00    +0.005 C 
ATOM     10  C   UNL     1      10.861   5.972   5.523  0.00  0.00    +0.078 C 
ATOM     11  C   UNL     1       8.812   7.399   7.139  0.00  0.00    +0.092 C 
ATOM     12  C   UNL     1      11.205   7.186   6.414  0.00  0.00    +0.025 C 
ATOM     13  C   UNL     1      10.327   5.824   8.293  0.00  0.00    +0.020 C 
ATOM     14  C   UNL     1       8.511   6.360   6.045  0.00  0.00    +0.097 C 
ATOM     15  C   UNL     1       9.794   4.767   7.306  0.00  0.00    +0.085 C 
ENDROOT
BRANCH  11  17
ATOM      1  O   UNL     1       8.991   9.778   7.257  0.00  0.00    -0.275 OA
ATOM      6  N   UNL     1       7.821   8.822   5.486  0.00  0.00    -0.313 N 
ATOM     17  C   UNL     1       8.570   8.796   6.650  0.00  0.00    +0.218 C 
ATOM     25  H   UNL     1       7.515   7.947   5.070  0.00  0.00    +0.149 HD
BRANCH   6  19
ATOM     19  C   UNL     1       7.431  10.044   4.822  0.00  0.00    +0.132 C 
BRANCH  19  21
ATOM     21  C   UNL     1       6.719   9.764   3.510  0.00  0.00    +0.178 C 
BRANCH  21   2
ATOM      2  O   UNL     1       7.536   8.929   2.700  0.00  0.00    -0.381 OA
ATOM     23  C   UNL     1       8.459   9.689   1.932  0.00  0.00    +0.194 C 
ENDBRANCH  21   2
ENDBRANCH  19  21
ENDBRANCH   6  19
ENDBRANCH  11  17
BRANCH  10  16
ATOM     16  C   UNL     1      10.858   6.339   4.037  0.00  0.00    +0.164 C 
BRANCH  16   5
ATOM      5  N   UNL     1      11.405   5.223   3.192  0.00  0.00    -0.250 N 
ATOM      7  N   UNL     1      10.921   3.975   3.306  0.00  0.00    -0.065 NA
ATOM      8  N   UNL     1      11.591   3.213   2.449  0.00  0.00    -0.132 NA
ATOM     18  C   UNL     1      12.397   5.293   2.263  0.00  0.00    +0.136 A 
ATOM     20  C   UNL     1      12.499   4.005   1.803  0.00  0.00    +0.108 A 
BRANCH  20  22
ATOM     22  C   UNL     1      13.403   3.453   0.785  0.00  0.00    +0.218 C 
BRANCH  22   3
ATOM      3  O   UNL     1      14.699   3.223   1.344  0.00  0.00    -0.377 OA
ATOM     24  C   UNL     1      15.707   3.862   0.580  0.00  0.00    +0.194 C 
ENDBRANCH  22   3
ENDBRANCH  20  22
ENDBRANCH  16   5
ENDBRANCH  10  16
TORSDOF 8
ENDMDL
MODEL 8
REMARK VINA RESULT:      -5.2     26.363     28.132
REMARK  Name = 44715947
REMARK  10 active torsions:
REMARK  status: ('A' for Active; 'I' for Inactive)
REMARK    1  A    between atoms: O_2  and  C_21
REMARK    2  A    between atoms: O_2  and  C_23
REMARK    3  A    between atoms: O_3  and  C_22
REMARK    4  A    between atoms: O_3  and  C_24
REMARK    5  A    between atoms: N_5  and  C_16
REMARK    6  A    between atoms: N_6  and  C_19
REMARK    7  A    between atoms: C_10  and  C_16
REMARK    8  A    between atoms: C_11  and  C_17
REMARK    9  A    between atoms: C_19  and  C_21
REMARK   10  A    between atoms: C_20  and  C_22
REMARK                            x       y       z     vdW  Elec       q    Type
REMARK                         _______ _______ _______ _____ _____    ______ ____
ROOT
ATOM      4  N   UNL     1      -5.687 -12.233  16.383  0.00  0.00    -0.297 NA
ATOM      9  C   UNL     1      -5.765 -11.557  18.895  0.00  0.00    +0.005 C 
ATOM     10  C   UNL     1      -5.119 -10.870  16.559  0.00  0.00    +0.078 C 
ATOM     11  C   UNL     1      -7.146 -12.031  18.402  0.00  0.00    +0.092 C 
ATOM     12  C   UNL     1      -5.293 -10.383  18.015  0.00  0.00    +0.025 C 
ATOM     13  C   UNL     1      -4.787 -12.723  18.665  0.00  0.00    +0.020 C 
ATOM     14  C   UNL     1      -7.083 -12.278  16.884  0.00  0.00    +0.097 C 
ATOM     15  C   UNL     1      -4.874 -13.173  17.194  0.00  0.00    +0.085 C 
ENDROOT
BRANCH  11  17
ATOM      1  O   UNL     1      -8.549 -10.832  19.918  0.00  0.00    -0.275 OA
ATOM      6  N   UNL     1      -8.796 -10.475  17.631  0.00  0.00    -0.313 N 
ATOM     17  C   UNL     1      -8.226 -11.052  18.753  0.00  0.00    +0.218 C 
ATOM     25  H   UNL     1      -8.458 -10.736  16.709  0.00  0.00    +0.149 HD
BRANCH   6  19
ATOM     19  C   UNL     1      -9.875  -9.516  17.696  0.00  0.00    +0.132 C 
BRANCH  19  21
ATOM     21  C   UNL     1      -9.426  -8.141  17.231  0.00  0.00    +0.178 C 
BRANCH  21   2
ATOM      2  O   UNL     1     -10.567  -7.320  17.018  0.00  0.00    -0.381 OA
ATOM     23  C   UNL     1     -10.487  -6.629  15.778  0.00  0.00    +0.194 C 
ENDBRANCH  21   2
ENDBRANCH  19  21
ENDBRANCH   6  19
ENDBRANCH  11  17
BRANCH  10  16
ATOM     16  C   UNL     1      -5.686  -9.867  15.552  0.00  0.00    +0.164 C 
BRANCH  16   5
ATOM      5  N   UNL     1      -5.132 -10.096  14.174  0.00  0.00    -0.250 N 
ATOM      7  N   UNL     1      -5.857  -9.793  13.084  0.00  0.00    -0.065 NA
ATOM      8  N   UNL     1      -5.121 -10.103  12.022  0.00  0.00    -0.132 NA
ATOM     18  C   UNL     1      -3.916 -10.606  13.841  0.00  0.00    +0.136 A 
ATOM     20  C   UNL     1      -3.929 -10.603  12.469  0.00  0.00    +0.108 A 
BRANCH  20  22
ATOM     22  C   UNL     1      -2.888 -11.042  11.531  0.00  0.00    +0.218 C 
BRANCH  22   3
ATOM      3  O   UNL     1      -1.606 -10.575  11.960  0.00  0.00    -0.377 OA
ATOM     24  C   UNL     1      -1.259  -9.364  11.311  0.00  0.00    +0.194 C 
ENDBRANCH  22   3
ENDBRANCH  20  22
ENDBRANCH  16   5
ENDBRANCH  10  16
TORSDOF 8
ENDMDL
MODEL 9
REMARK VINA RESULT:      -5.2     13.365     17.138
REMARK  Name = 44715947
REMARK  10 active torsions:
REMARK  status: ('A' for Active; 'I' for Inactive)
REMARK    1  A    between atoms: O_2  and  C_21
REMARK    2  A    between atoms: O_2  and  C_23
REMARK    3  A    between atoms: O_3  and  C_22
REMARK    4  A    between atoms: O_3  and  C_24
REMARK    5  A    between atoms: N_5  and  C_16
REMARK    6  A    between atoms: N_6  and  C_19
REMARK    7  A    between atoms: C_10  and  C_16
REMARK    8  A    between atoms: C_11  and  C_17
REMARK    9  A    between atoms: C_19  and  C_21
REMARK   10  A    between atoms: C_20  and  C_22
REMARK                            x       y       z     vdW  Elec       q    Type
REMARK                         _______ _______ _______ _____ _____    ______ ____
ROOT
ATOM      4  N   UNL     1       9.775   7.081   3.936  0.00  0.00    -0.297 NA
ATOM      9  C   UNL     1       9.366   5.739   6.129  0.00  0.00    +0.005 C 
ATOM     10  C   UNL     1      10.046   5.638   3.705  0.00  0.00    +0.078 C 
ATOM     11  C   UNL     1      10.314   6.930   6.371  0.00  0.00    +0.092 C 
ATOM     12  C   UNL     1       9.961   4.841   5.026  0.00  0.00    +0.025 C 
ATOM     13  C   UNL     1       8.050   6.323   5.583  0.00  0.00    +0.020 C 
ATOM     14  C   UNL     1      10.638   7.601   5.025  0.00  0.00    +0.097 C 
ATOM     15  C   UNL     1       8.360   7.215   4.366  0.00  0.00    +0.085 C 
ENDROOT
BRANCH  11  17
ATOM      1  O   UNL     1      11.525   5.797   8.090  0.00  0.00    -0.275 OA
ATOM      6  N   UNL     1      12.704   7.027   6.503  0.00  0.00    -0.313 N 
ATOM     17  C   UNL     1      11.562   6.508   7.088  0.00  0.00    +0.218 C 
ATOM     25  H   UNL     1      12.619   7.614   5.678  0.00  0.00    +0.149 HD
BRANCH   6  19
ATOM     19  C   UNL     1      14.033   6.788   7.015  0.00  0.00    +0.132 C 
BRANCH  19  21
ATOM     21  C   UNL     1      15.068   7.634   6.294  0.00  0.00    +0.178 C 
BRANCH  21   2
ATOM      2  O   UNL     1      15.328   7.071   5.014  0.00  0.00    -0.381 OA
ATOM     23  C   UNL     1      15.401   8.074   4.009  0.00  0.00    +0.194 C 
ENDBRANCH  21   2
ENDBRANCH  19  21
ENDBRANCH   6  19
ENDBRANCH  11  17
BRANCH  10  16
ATOM     16  C   UNL     1      11.376   5.403   2.984  0.00  0.00    +0.164 C 
BRANCH  16   5
ATOM      5  N   UNL     1      11.163   4.885   1.590  0.00  0.00    -0.250 N 
ATOM      7  N   UNL     1       9.970   5.014   0.984  0.00  0.00    -0.065 NA
ATOM      8  N   UNL     1      10.078   4.466  -0.221  0.00  0.00    -0.132 NA
ATOM     18  C   UNL     1      12.064   4.252   0.791  0.00  0.00    +0.136 A 
ATOM     20  C   UNL     1      11.355   3.994  -0.355  0.00  0.00    +0.108 A 
BRANCH  20  22
ATOM     22  C   UNL     1      11.795   3.326  -1.586  0.00  0.00    +0.218 C 
BRANCH  22   3
ATOM      3  O   UNL     1      10.993   3.747  -2.693  0.00  0.00    -0.377 OA
ATOM     24  C   UNL     1      10.420   2.637  -3.362  0.00  0.00    +0.194 C 
ENDBRANCH  22   3
ENDBRANCH  20  22
ENDBRANCH  16   5
ENDBRANCH  10  16
TORSDOF 8
ENDMDL
MODEL 10
REMARK VINA RESULT:      -5.2     25.447     28.540
REMARK  Name = 44715947
REMARK  10 active torsions:
REMARK  status: ('A' for Active; 'I' for Inactive)
REMARK    1  A    between atoms: O_2  and  C_21
REMARK    2  A    between atoms: O_2  and  C_23
REMARK    3  A    between atoms: O_3  and  C_22
REMARK    4  A    between atoms: O_3  and  C_24
REMARK    5  A    between atoms: N_5  and  C_16
REMARK    6  A    between atoms: N_6  and  C_19
REMARK    7  A    between atoms: C_10  and  C_16
REMARK    8  A    between atoms: C_11  and  C_17
REMARK    9  A    between atoms: C_19  and  C_21
REMARK   10  A    between atoms: C_20  and  C_22
REMARK                            x       y       z     vdW  Elec       q    Type
REMARK                         _______ _______ _______ _____ _____    ______ ____
ROOT
ATOM      4  N   UNL     1     -14.812   8.657  21.158  0.00  0.00    -0.297 NA
ATOM      9  C   UNL     1     -12.242   8.704  20.747  0.00  0.00    +0.005 C 
ATOM     10  C   UNL     1     -14.225   7.325  21.463  0.00  0.00    +0.078 C 
ATOM     11  C   UNL     1     -13.013   9.222  19.518  0.00  0.00    +0.092 C 
ATOM     12  C   UNL     1     -12.728   7.280  21.083  0.00  0.00    +0.025 C 
ATOM     13  C   UNL     1     -12.631   9.611  21.929  0.00  0.00    +0.020 C 
ATOM     14  C   UNL     1     -14.523   9.038  19.753  0.00  0.00    +0.097 C 
ATOM     15  C   UNL     1     -14.167   9.654  22.048  0.00  0.00    +0.085 C 
ENDROOT
BRANCH  11  17
ATOM      1  O   UNL     1     -13.352   7.914  17.548  0.00  0.00    -0.275 OA
ATOM      6  N   UNL     1     -11.211   8.691  18.032  0.00  0.00    -0.313 N 
ATOM     17  C   UNL     1     -12.568   8.541  18.258  0.00  0.00    +0.218 C 
ATOM     25  H   UNL     1     -10.651   9.223  18.691  0.00  0.00    +0.149 HD
BRANCH   6  19
ATOM     19  C   UNL     1     -10.529   8.111  16.898  0.00  0.00    +0.132 C 
BRANCH  19  21
ATOM     21  C   UNL     1     -10.714   8.951  15.647  0.00  0.00    +0.178 C 
BRANCH  21   2
ATOM      2  O   UNL     1     -11.306   8.156  14.628  0.00  0.00    -0.381 OA
ATOM     23  C   UNL     1     -10.321   7.481  13.856  0.00  0.00    +0.194 C 
ENDBRANCH  21   2
ENDBRANCH  19  21
ENDBRANCH   6  19
ENDBRANCH  11  17
BRANCH  10  16
ATOM     16  C   UNL     1     -15.011   6.180  20.820  0.00  0.00    +0.164 C 
BRANCH  16   5
ATOM      5  N   UNL     1     -15.465   5.179  21.844  0.00  0.00    -0.250 N 
ATOM      7  N   UNL     1     -16.484   4.343  21.581  0.00  0.00    -0.065 NA
ATOM      8  N   UNL     1     -16.661   3.587  22.659  0.00  0.00    -0.132 NA
ATOM     18  C   UNL     1     -14.965   4.982  23.094  0.00  0.00    +0.136 A 
ATOM     20  C   UNL     1     -15.739   3.966  23.595  0.00  0.00    +0.108 A 
BRANCH  20  22
ATOM     22  C   UNL     1     -15.676   3.315  24.909  0.00  0.00    +0.218 C 
BRANCH  22   3
ATOM      3  O   UNL     1     -16.036   1.936  24.797  0.00  0.00    -0.377 OA
ATOM     24  C   UNL     1     -16.850   1.528  25.884  0.00  0.00    +0.194 C 
ENDBRANCH  22   3
ENDBRANCH  20  22
ENDBRANCH  16   5
ENDBRANCH  10  16
TORSDOF 8
ENDMDL
