MODEL 1
REMARK VINA RESULT:      -7.1      0.000      0.000
REMARK  Name = 75367163
REMARK  3 active torsions:
REMARK  status: ('A' for Active; 'I' for Inactive)
REMARK    1  A    between atoms: N_2  and  C_7
REMARK    2  A    between atoms: C_8  and  C_16
REMARK    3  A    between atoms: C_17  and  C_19
REMARK                            x       y       z     vdW  Elec       q    Type
REMARK                         _______ _______ _______ _____ _____    ______ ____
ROOT
ATOM      1  O   UNL     1      14.101   6.603  20.144  0.00  0.00    -0.377 OA
ATOM      2  N   UNL     1      13.321   9.140  19.022  0.00  0.00    -0.286 NA
ATOM      8  C   UNL     1      12.309   8.181  19.521  0.00  0.00    +0.149 C 
ATOM     11  C   UNL     1      14.639   8.903  19.626  0.00  0.00    +0.113 C 
ATOM     14  C   UNL     1      12.830   6.729  19.504  0.00  0.00    +0.186 C 
ATOM     15  C   UNL     1      15.076   7.445  19.537  0.00  0.00    +0.175 C 
ENDROOT
BRANCH   2   7
ATOM      3  N   UNL     1      12.862  10.532  15.027  0.00  0.00    -0.316 NA
ATOM      7  C   UNL     1      13.387   9.158  17.562  0.00  0.00    +0.060 C 
ATOM      9  C   UNL     1      14.259  10.317  17.066  0.00  0.00    +0.034 C 
ATOM     10  C   UNL     1      11.979   9.266  16.969  0.00  0.00    +0.034 C 
ATOM     12  C   UNL     1      14.230  10.406  15.540  0.00  0.00    +0.082 C 
ATOM     13  C   UNL     1      12.038   9.396  15.446  0.00  0.00    +0.082 C 
ATOM     24  H   UNL     1      12.887  10.572  14.009  0.00  0.00    +0.122 HD
ENDBRANCH   2   7
BRANCH   8  16
ATOM      4  N   UNL     1      11.719   9.985  21.189  0.00  0.00    -0.340 N 
ATOM      5  N   UNL     1      11.197   7.913  21.794  0.00  0.00    -0.238 NA
ATOM     16  C   UNL     1      11.729   8.660  20.853  0.00  0.00    +0.127 A 
ATOM     17  C   UNL     1      11.144  10.090  22.424  0.00  0.00    +0.068 A 
ATOM     18  C   UNL     1      10.831   8.798  22.777  0.00  0.00    +0.139 A 
ATOM     25  H   UNL     1      12.085  10.742  20.626  0.00  0.00    +0.167 HD
BRANCH  17  19
ATOM      6  N   UNL     1      10.615  12.524  25.190  0.00  0.00    -0.263 NA
ATOM     19  C   UNL     1      10.961  11.342  23.110  0.00  0.00    +0.018 A 
ATOM     20  C   UNL     1      10.949  12.546  22.415  0.00  0.00    +0.013 A 
ATOM     21  C   UNL     1      10.791  11.385  24.485  0.00  0.00    +0.120 A 
ATOM     22  C   UNL     1      10.771  13.739  23.105  0.00  0.00    +0.020 A 
ATOM     23  C   UNL     1      10.609  13.675  24.480  0.00  0.00    +0.111 A 
ENDBRANCH  17  19
ENDBRANCH   8  16
TORSDOF 3
ENDMDL
MODEL 2
REMARK VINA RESULT:      -6.7      4.440      7.874
REMARK  Name = 75367163
REMARK  3 active torsions:
REMARK  status: ('A' for Active; 'I' for Inactive)
REMARK    1  A    between atoms: N_2  and  C_7
REMARK    2  A    between atoms: C_8  and  C_16
REMARK    3  A    between atoms: C_17  and  C_19
REMARK                            x       y       z     vdW  Elec       q    Type
REMARK                         _______ _______ _______ _____ _____    ______ ____
ROOT
ATOM      1  O   UNL     1      16.210   9.387  21.948  0.00  0.00    -0.377 OA
ATOM      2  N   UNL     1      14.526   7.690  20.338  0.00  0.00    -0.286 NA
ATOM      8  C   UNL     1      15.810   8.210  19.816  0.00  0.00    +0.149 C 
ATOM     11  C   UNL     1      14.500   7.684  21.807  0.00  0.00    +0.113 C 
ATOM     14  C   UNL     1      16.240   9.512  20.526  0.00  0.00    +0.186 C 
ATOM     15  C   UNL     1      14.915   9.019  22.412  0.00  0.00    +0.175 C 
ENDROOT
BRANCH   2   7
ATOM      3  N   UNL     1      10.871   8.348  18.261  0.00  0.00    -0.316 NA
ATOM      7  C   UNL     1      13.378   8.400  19.777  0.00  0.00    +0.060 C 
ATOM      9  C   UNL     1      12.066   7.891  20.386  0.00  0.00    +0.034 C 
ATOM     10  C   UNL     1      13.350   8.242  18.254  0.00  0.00    +0.034 C 
ATOM     12  C   UNL     1      10.862   8.550  19.712  0.00  0.00    +0.082 C 
ATOM     13  C   UNL     1      12.095   8.887  17.663  0.00  0.00    +0.082 C 
ATOM     24  H   UNL     1      10.062   8.814  17.851  0.00  0.00    +0.122 HD
ENDBRANCH   2   7
BRANCH   8  16
ATOM      4  N   UNL     1      17.963   7.136  20.587  0.00  0.00    -0.340 N 
ATOM      5  N   UNL     1      16.850   6.029  19.016  0.00  0.00    -0.238 NA
ATOM     16  C   UNL     1      16.861   7.100  19.779  0.00  0.00    +0.127 A 
ATOM     17  C   UNL     1      18.702   6.017  20.322  0.00  0.00    +0.068 A 
ATOM     18  C   UNL     1      17.995   5.351  19.349  0.00  0.00    +0.139 A 
ATOM     25  H   UNL     1      18.189   7.867  21.248  0.00  0.00    +0.167 HD
BRANCH  17  19
ATOM      6  N   UNL     1      21.501   6.189  22.770  0.00  0.00    -0.263 NA
ATOM     19  C   UNL     1      19.942   5.712  20.985  0.00  0.00    +0.018 A 
ATOM     20  C   UNL     1      20.770   4.694  20.524  0.00  0.00    +0.013 A 
ATOM     21  C   UNL     1      20.350   6.424  22.101  0.00  0.00    +0.120 A 
ATOM     22  C   UNL     1      21.962   4.421  21.186  0.00  0.00    +0.020 A 
ATOM     23  C   UNL     1      22.280   5.192  22.294  0.00  0.00    +0.111 A 
ENDBRANCH  17  19
ENDBRANCH   8  16
TORSDOF 3
ENDMDL
MODEL 3
REMARK VINA RESULT:      -6.3      4.670      8.048
REMARK  Name = 75367163
REMARK  3 active torsions:
REMARK  status: ('A' for Active; 'I' for Inactive)
REMARK    1  A    between atoms: N_2  and  C_7
REMARK    2  A    between atoms: C_8  and  C_16
REMARK    3  A    between atoms: C_17  and  C_19
REMARK                            x       y       z     vdW  Elec       q    Type
REMARK                         _______ _______ _______ _____ _____    ______ ____
ROOT
ATOM      1  O   UNL     1      15.481  11.491  21.238  0.00  0.00    -0.377 OA
ATOM      2  N   UNL     1      14.956   8.661  21.397  0.00  0.00    -0.286 NA
ATOM      8  C   UNL     1      15.980   9.198  20.472  0.00  0.00    +0.149 C 
ATOM     11  C   UNL     1      14.680   9.590  22.500  0.00  0.00    +0.113 C 
ATOM     14  C   UNL     1      15.704  10.668  20.092  0.00  0.00    +0.186 C 
ATOM     15  C   UNL     1      14.394  11.009  22.022  0.00  0.00    +0.175 C 
ENDROOT
BRANCH   2   7
ATOM      3  N   UNL     1      12.037   6.173  19.554  0.00  0.00    -0.316 NA
ATOM      7  C   UNL     1      13.734   8.272  20.695  0.00  0.00    +0.060 C 
ATOM      9  C   UNL     1      12.867   7.359  21.568  0.00  0.00    +0.034 C 
ATOM     10  C   UNL     1      14.080   7.570  19.378  0.00  0.00    +0.034 C 
ATOM     12  C   UNL     1      11.649   6.857  20.790  0.00  0.00    +0.082 C 
ATOM     13  C   UNL     1      12.816   7.059  18.685  0.00  0.00    +0.082 C 
ATOM     24  H   UNL     1      11.199   5.869  19.060  0.00  0.00    +0.122 HD
ENDBRANCH   2   7
BRANCH   8  16
ATOM      4  N   UNL     1      17.907   7.643  20.977  0.00  0.00    -0.340 N 
ATOM      5  N   UNL     1      18.226   9.772  21.523  0.00  0.00    -0.238 NA
ATOM     16  C   UNL     1      17.385   8.906  21.003  0.00  0.00    +0.127 A 
ATOM     17  C   UNL     1      19.162   7.707  21.514  0.00  0.00    +0.068 A 
ATOM     18  C   UNL     1      19.336   9.031  21.844  0.00  0.00    +0.139 A 
ATOM     25  H   UNL     1      17.438   6.815  20.633  0.00  0.00    +0.167 HD
BRANCH  17  19
ATOM      6  N   UNL     1      21.518   5.263  23.041  0.00  0.00    -0.263 NA
ATOM     19  C   UNL     1      20.023   6.563  21.655  0.00  0.00    +0.018 A 
ATOM     20  C   UNL     1      20.208   5.671  20.605  0.00  0.00    +0.013 A 
ATOM     21  C   UNL     1      20.695   6.317  22.842  0.00  0.00    +0.120 A 
ATOM     22  C   UNL     1      21.046   4.573  20.772  0.00  0.00    +0.020 A 
ATOM     23  C   UNL     1      21.673   4.417  21.998  0.00  0.00    +0.111 A 
ENDBRANCH  17  19
ENDBRANCH   8  16
TORSDOF 3
ENDMDL
MODEL 4
REMARK VINA RESULT:      -6.0     26.536     28.552
REMARK  Name = 75367163
REMARK  3 active torsions:
REMARK  status: ('A' for Active; 'I' for Inactive)
REMARK    1  A    between atoms: N_2  and  C_7
REMARK    2  A    between atoms: C_8  and  C_16
REMARK    3  A    between atoms: C_17  and  C_19
REMARK                            x       y       z     vdW  Elec       q    Type
REMARK                         _______ _______ _______ _____ _____    ______ ____
ROOT
ATOM      1  O   UNL     1      -6.103 -11.965  19.591  0.00  0.00    -0.377 OA
ATOM      2  N   UNL     1      -7.460 -10.973  17.249  0.00  0.00    -0.286 NA
ATOM      8  C   UNL     1      -6.256 -10.295  17.780  0.00  0.00    +0.149 C 
ATOM     11  C   UNL     1      -7.528 -12.376  17.681  0.00  0.00    +0.113 C 
ATOM     14  C   UNL     1      -6.051 -10.571  19.285  0.00  0.00    +0.186 C 
ATOM     15  C   UNL     1      -7.340 -12.542  19.184  0.00  0.00    +0.175 C 
ENDROOT
BRANCH   2   7
ATOM      3  N   UNL     1     -11.029  -8.729  16.680  0.00  0.00    -0.316 NA
ATOM      7  C   UNL     1      -8.686 -10.246  17.571  0.00  0.00    +0.060 C 
ATOM      9  C   UNL     1      -9.909 -10.925  16.945  0.00  0.00    +0.034 C 
ATOM     10  C   UNL     1      -8.583  -8.795  17.089  0.00  0.00    +0.034 C 
ATOM     12  C   UNL     1     -11.173 -10.098  17.182  0.00  0.00    +0.082 C 
ATOM     13  C   UNL     1      -9.899  -8.051  17.319  0.00  0.00    +0.082 C 
ATOM     24  H   UNL     1     -11.886  -8.209  16.872  0.00  0.00    +0.122 HD
ENDBRANCH   2   7
BRANCH   8  16
ATOM      4  N   UNL     1      -5.078 -10.319  15.544  0.00  0.00    -0.340 N 
ATOM      5  N   UNL     1      -3.888 -11.071  17.262  0.00  0.00    -0.238 NA
ATOM     16  C   UNL     1      -5.046 -10.576  16.886  0.00  0.00    +0.127 A 
ATOM     17  C   UNL     1      -3.862 -10.672  15.030  0.00  0.00    +0.068 A 
ATOM     18  C   UNL     1      -3.145 -11.134  16.109  0.00  0.00    +0.139 A 
ATOM     25  H   UNL     1      -5.867  -9.946  15.031  0.00  0.00    +0.167 HD
BRANCH  17  19
ATOM      6  N   UNL     1      -4.250 -10.186  11.361  0.00  0.00    -0.263 NA
ATOM     19  C   UNL     1      -3.523 -10.543  13.638  0.00  0.00    +0.018 A 
ATOM     20  C   UNL     1      -2.204 -10.646  13.208  0.00  0.00    +0.013 A 
ATOM     21  C   UNL     1      -4.501 -10.316  12.682  0.00  0.00    +0.120 A 
ATOM     22  C   UNL     1      -1.907 -10.517  11.856  0.00  0.00    +0.020 A 
ATOM     23  C   UNL     1      -2.957 -10.290  10.980  0.00  0.00    +0.111 A 
ENDBRANCH  17  19
ENDBRANCH   8  16
TORSDOF 3
ENDMDL
MODEL 5
REMARK VINA RESULT:      -5.9      6.229      8.679
REMARK  Name = 75367163
REMARK  3 active torsions:
REMARK  status: ('A' for Active; 'I' for Inactive)
REMARK    1  A    between atoms: N_2  and  C_7
REMARK    2  A    between atoms: C_8  and  C_16
REMARK    3  A    between atoms: C_17  and  C_19
REMARK                            x       y       z     vdW  Elec       q    Type
REMARK                         _______ _______ _______ _____ _____    ______ ____
ROOT
ATOM      1  O   UNL     1      20.372   8.114  22.735  0.00  0.00    -0.377 OA
ATOM      2  N   UNL     1      20.915   6.115  20.730  0.00  0.00    -0.286 NA
ATOM      8  C   UNL     1      19.787   5.962  21.676  0.00  0.00    +0.149 C 
ATOM     11  C   UNL     1      21.321   7.520  20.592  0.00  0.00    +0.113 C 
ATOM     14  C   UNL     1      20.014   6.754  22.982  0.00  0.00    +0.186 C 
ATOM     15  C   UNL     1      21.546   8.207  21.933  0.00  0.00    +0.175 C 
ENDROOT
BRANCH   2   7
ATOM      3  N   UNL     1      23.862   3.065  20.381  0.00  0.00    -0.316 NA
ATOM      7  C   UNL     1      22.045   5.256  21.080  0.00  0.00    +0.060 C 
ATOM      9  C   UNL     1      23.201   5.438  20.090  0.00  0.00    +0.034 C 
ATOM     10  C   UNL     1      21.604   3.789  21.112  0.00  0.00    +0.034 C 
ATOM     12  C   UNL     1      24.332   4.453  20.387  0.00  0.00    +0.082 C 
ATOM     13  C   UNL     1      22.798   2.868  21.368  0.00  0.00    +0.082 C 
ATOM     24  H   UNL     1      24.641   2.445  20.598  0.00  0.00    +0.122 HD
ENDBRANCH   2   7
BRANCH   8  16
ATOM      4  N   UNL     1      17.395   6.774  21.630  0.00  0.00    -0.340 N 
ATOM      5  N   UNL     1      18.171   5.971  19.710  0.00  0.00    -0.238 NA
ATOM     16  C   UNL     1      18.457   6.224  20.968  0.00  0.00    +0.127 A 
ATOM     17  C   UNL     1      16.365   6.879  20.737  0.00  0.00    +0.068 A 
ATOM     18  C   UNL     1      16.869   6.377  19.560  0.00  0.00    +0.139 A 
ATOM     25  H   UNL     1      17.378   7.040  22.606  0.00  0.00    +0.167 HD
BRANCH  17  19
ATOM      6  N   UNL     1      13.773   9.045  22.298  0.00  0.00    -0.263 NA
ATOM     19  C   UNL     1      15.074   7.416  21.075  0.00  0.00    +0.018 A 
ATOM     20  C   UNL     1      13.910   6.871  20.548  0.00  0.00    +0.013 A 
ATOM     21  C   UNL     1      14.953   8.493  21.939  0.00  0.00    +0.120 A 
ATOM     22  C   UNL     1      12.676   7.412  20.893  0.00  0.00    +0.020 A 
ATOM     23  C   UNL     1      12.662   8.489  21.765  0.00  0.00    +0.111 A 
ENDBRANCH  17  19
ENDBRANCH   8  16
TORSDOF 3
ENDMDL
MODEL 6
REMARK VINA RESULT:      -5.9     22.481     23.882
REMARK  Name = 75367163
REMARK  3 active torsions:
REMARK  status: ('A' for Active; 'I' for Inactive)
REMARK    1  A    between atoms: N_2  and  C_7
REMARK    2  A    between atoms: C_8  and  C_16
REMARK    3  A    between atoms: C_17  and  C_19
REMARK                            x       y       z     vdW  Elec       q    Type
REMARK                         _______ _______ _______ _____ _____    ______ ____
ROOT
ATOM      1  O   UNL     1     -11.334   8.620  15.468  0.00  0.00    -0.377 OA
ATOM      2  N   UNL     1     -12.265   9.289  18.113  0.00  0.00    -0.286 NA
ATOM      8  C   UNL     1     -10.824   9.326  17.778  0.00  0.00    +0.149 C 
ATOM     11  C   UNL     1     -13.105   9.409  16.913  0.00  0.00    +0.113 C 
ATOM     14  C   UNL     1     -10.481   8.399  16.592  0.00  0.00    +0.186 C 
ATOM     15  C   UNL     1     -12.704   8.436  15.811  0.00  0.00    +0.175 C 
ENDROOT
BRANCH   2   7
ATOM      3  N   UNL     1     -13.362   6.931  21.481  0.00  0.00    -0.316 NA
ATOM      7  C   UNL     1     -12.614   8.111  18.905  0.00  0.00    +0.060 C 
ATOM      9  C   UNL     1     -14.030   8.235  19.479  0.00  0.00    +0.034 C 
ATOM     10  C   UNL     1     -11.601   7.914  20.037  0.00  0.00    +0.034 C 
ATOM     12  C   UNL     1     -14.347   7.059  20.404  0.00  0.00    +0.082 C 
ATOM     13  C   UNL     1     -12.013   6.751  20.940  0.00  0.00    +0.082 C 
ATOM     24  H   UNL     1     -13.601   6.129  22.063  0.00  0.00    +0.122 HD
ENDBRANCH   2   7
BRANCH   8  16
ATOM      4  N   UNL     1      -9.407  11.129  16.716  0.00  0.00    -0.340 N 
ATOM      5  N   UNL     1     -10.736  11.801  18.365  0.00  0.00    -0.238 NA
ATOM     16  C   UNL     1     -10.343  10.772  17.647  0.00  0.00    +0.127 A 
ATOM     17  C   UNL     1      -9.190  12.472  16.848  0.00  0.00    +0.068 A 
ATOM     18  C   UNL     1     -10.020  12.864  17.872  0.00  0.00    +0.139 A 
ATOM     25  H   UNL     1      -8.955  10.505  16.062  0.00  0.00    +0.167 HD
BRANCH  17  19
ATOM      6  N   UNL     1      -7.824  14.428  13.992  0.00  0.00    -0.263 NA
ATOM     19  C   UNL     1      -8.261  13.209  16.032  0.00  0.00    +0.018 A 
ATOM     20  C   UNL     1      -6.952  13.420  16.449  0.00  0.00    +0.013 A 
ATOM     21  C   UNL     1      -8.645  13.728  14.806  0.00  0.00    +0.120 A 
ATOM     22  C   UNL     1      -6.078  14.137  15.638  0.00  0.00    +0.020 A 
ATOM     23  C   UNL     1      -6.559  14.615  14.429  0.00  0.00    +0.111 A 
ENDBRANCH  17  19
ENDBRANCH   8  16
TORSDOF 3
ENDMDL
MODEL 7
REMARK VINA RESULT:      -5.9     26.877     28.627
REMARK  Name = 75367163
REMARK  3 active torsions:
REMARK  status: ('A' for Active; 'I' for Inactive)
REMARK    1  A    between atoms: N_2  and  C_7
REMARK    2  A    between atoms: C_8  and  C_16
REMARK    3  A    between atoms: C_17  and  C_19
REMARK                            x       y       z     vdW  Elec       q    Type
REMARK                         _______ _______ _______ _____ _____    ______ ____
ROOT
ATOM      1  O   UNL     1      -6.184 -13.222  17.897  0.00  0.00    -0.377 OA
ATOM      2  N   UNL     1      -4.968 -10.863  16.773  0.00  0.00    -0.286 NA
ATOM      8  C   UNL     1      -6.274 -11.358  16.282  0.00  0.00    +0.149 C 
ATOM     11  C   UNL     1      -4.682 -11.342  18.132  0.00  0.00    +0.113 C 
ATOM     14  C   UNL     1      -6.456 -12.869  16.540  0.00  0.00    +0.186 C 
ATOM     15  C   UNL     1      -4.864 -12.848  18.279  0.00  0.00    +0.175 C 
ENDROOT
BRANCH   2   7
ATOM      3  N   UNL     1      -1.773 -10.256  14.030  0.00  0.00    -0.316 NA
ATOM      7  C   UNL     1      -3.881 -11.173  15.847  0.00  0.00    +0.060 C 
ATOM      9  C   UNL     1      -2.548 -10.615  16.358  0.00  0.00    +0.034 C 
ATOM     10  C   UNL     1      -4.191 -10.608  14.457  0.00  0.00    +0.034 C 
ATOM     12  C   UNL     1      -1.435 -10.836  15.332  0.00  0.00    +0.082 C 
ATOM     13  C   UNL     1      -3.015 -10.828  13.505  0.00  0.00    +0.082 C 
ATOM     24  H   UNL     1      -1.014 -10.438  13.373  0.00  0.00    +0.122 HD
ENDBRANCH   2   7
BRANCH   8  16
ATOM      4  N   UNL     1      -8.460 -10.972  17.490  0.00  0.00    -0.340 N 
ATOM      5  N   UNL     1      -7.519  -9.162  16.612  0.00  0.00    -0.238 NA
ATOM     16  C   UNL     1      -7.408 -10.461  16.783  0.00  0.00    +0.127 A 
ATOM     17  C   UNL     1      -9.296  -9.934  17.790  0.00  0.00    +0.068 A 
ATOM     18  C   UNL     1      -8.694  -8.827  17.237  0.00  0.00    +0.139 A 
ATOM     25  H   UNL     1      -8.593 -11.945  17.732  0.00  0.00    +0.167 HD
BRANCH  17  19
ATOM      6  N   UNL     1     -11.666 -11.007  20.451  0.00  0.00    -0.263 NA
ATOM     19  C   UNL     1     -10.519 -10.089  18.532  0.00  0.00    +0.018 A 
ATOM     20  C   UNL     1     -11.704  -9.511  18.090  0.00  0.00    +0.013 A 
ATOM     21  C   UNL     1     -10.553 -10.822  19.708  0.00  0.00    +0.120 A 
ATOM     22  C   UNL     1     -12.870  -9.679  18.829  0.00  0.00    +0.020 A 
ATOM     23  C   UNL     1     -12.799 -10.430  19.992  0.00  0.00    +0.111 A 
ENDBRANCH  17  19
ENDBRANCH   8  16
TORSDOF 3
ENDMDL
MODEL 8
REMARK VINA RESULT:      -5.7     26.992     29.362
REMARK  Name = 75367163
REMARK  3 active torsions:
REMARK  status: ('A' for Active; 'I' for Inactive)
REMARK    1  A    between atoms: N_2  and  C_7
REMARK    2  A    between atoms: C_8  and  C_16
REMARK    3  A    between atoms: C_17  and  C_19
REMARK                            x       y       z     vdW  Elec       q    Type
REMARK                         _______ _______ _______ _____ _____    ______ ____
ROOT
ATOM      1  O   UNL     1      -8.731 -11.025  15.211  0.00  0.00    -0.377 OA
ATOM      2  N   UNL     1      -8.803 -10.685  18.072  0.00  0.00    -0.286 NA
ATOM      8  C   UNL     1      -8.094 -11.828  17.456  0.00  0.00    +0.149 C 
ATOM     11  C   UNL     1      -8.959  -9.569  17.128  0.00  0.00    +0.113 C 
ATOM     14  C   UNL     1      -8.652 -12.172  16.058  0.00  0.00    +0.186 C 
ATOM     15  C   UNL     1      -9.540 -10.005  15.788  0.00  0.00    +0.175 C 
ENDROOT
BRANCH   2   7
ATOM      3  N   UNL     1     -11.855 -11.239  20.985  0.00  0.00    -0.316 NA
ATOM      7  C   UNL     1     -10.082 -11.084  18.657  0.00  0.00    +0.060 C 
ATOM      9  C   UNL     1     -10.851  -9.865  19.181  0.00  0.00    +0.034 C 
ATOM     10  C   UNL     1      -9.856 -12.091  19.789  0.00  0.00    +0.034 C 
ATOM     12  C   UNL     1     -12.131 -10.295  19.898  0.00  0.00    +0.082 C 
ATOM     13  C   UNL     1     -11.175 -12.434  20.483  0.00  0.00    +0.082 C 
ATOM     24  H   UNL     1     -12.734 -11.511  21.425  0.00  0.00    +0.122 HD
ENDBRANCH   2   7
BRANCH   8  16
ATOM      4  N   UNL     1      -5.852 -11.288  16.422  0.00  0.00    -0.340 N 
ATOM      5  N   UNL     1      -5.822 -11.729  18.599  0.00  0.00    -0.238 NA
ATOM     16  C   UNL     1      -6.580 -11.621  17.530  0.00  0.00    +0.127 A 
ATOM     17  C   UNL     1      -4.546 -11.176  16.809  0.00  0.00    +0.068 A 
ATOM     18  C   UNL     1      -4.553 -11.453  18.156  0.00  0.00    +0.139 A 
ATOM     25  H   UNL     1      -6.220 -11.162  15.488  0.00  0.00    +0.167 HD
BRANCH  17  19
ATOM      6  N   UNL     1      -2.746 -10.421  13.640  0.00  0.00    -0.263 NA
ATOM     19  C   UNL     1      -3.479 -10.836  15.905  0.00  0.00    +0.018 A 
ATOM     20  C   UNL     1      -2.191 -10.601  16.373  0.00  0.00    +0.013 A 
ATOM     21  C   UNL     1      -3.702 -10.736  14.541  0.00  0.00    +0.120 A 
ATOM     22  C   UNL     1      -1.180 -10.275  15.476  0.00  0.00    +0.020 A 
ATOM     23  C   UNL     1      -1.506 -10.199  14.131  0.00  0.00    +0.111 A 
ENDBRANCH  17  19
ENDBRANCH   8  16
TORSDOF 3
ENDMDL
MODEL 9
REMARK VINA RESULT:      -5.7     27.099     28.936
REMARK  Name = 75367163
REMARK  3 active torsions:
REMARK  status: ('A' for Active; 'I' for Inactive)
REMARK    1  A    between atoms: N_2  and  C_7
REMARK    2  A    between atoms: C_8  and  C_16
REMARK    3  A    between atoms: C_17  and  C_19
REMARK                            x       y       z     vdW  Elec       q    Type
REMARK                         _______ _______ _______ _____ _____    ______ ____
ROOT
ATOM      1  O   UNL     1      -7.514 -10.051  15.211  0.00  0.00    -0.377 OA
ATOM      2  N   UNL     1      -5.333 -11.693  16.135  0.00  0.00    -0.286 NA
ATOM      8  C   UNL     1      -5.893 -10.618  16.984  0.00  0.00    +0.149 C 
ATOM     11  C   UNL     1      -6.293 -12.136  15.114  0.00  0.00    +0.113 C 
ATOM     14  C   UNL     1      -6.578  -9.516  16.148  0.00  0.00    +0.186 C 
ATOM     15  C   UNL     1      -6.894 -10.978  14.326  0.00  0.00    +0.175 C 
ENDROOT
BRANCH   2   7
ATOM      3  N   UNL     1      -1.146 -11.668  15.374  0.00  0.00    -0.316 NA
ATOM      7  C   UNL     1      -4.050 -11.314  15.545  0.00  0.00    +0.060 C 
ATOM      9  C   UNL     1      -3.414 -12.496  14.806  0.00  0.00    +0.034 C 
ATOM     10  C   UNL     1      -3.100 -10.797  16.630  0.00  0.00    +0.034 C 
ATOM     12  C   UNL     1      -2.020 -12.132  14.293  0.00  0.00    +0.082 C 
ATOM     13  C   UNL     1      -1.718 -10.499  16.047  0.00  0.00    +0.082 C 
ATOM     24  H   UNL     1      -0.235 -11.422  14.988  0.00  0.00    +0.122 HD
ENDBRANCH   2   7
BRANCH   8  16
ATOM      4  N   UNL     1      -8.053 -10.875  18.270  0.00  0.00    -0.340 N 
ATOM      5  N   UNL     1      -6.342 -12.075  19.022  0.00  0.00    -0.238 NA
ATOM     16  C   UNL     1      -6.738 -11.213  18.111  0.00  0.00    +0.127 A 
ATOM     17  C   UNL     1      -8.527 -11.564  19.350  0.00  0.00    +0.068 A 
ATOM     18  C   UNL     1      -7.453 -12.297  19.798  0.00  0.00    +0.139 A 
ATOM     25  H   UNL     1      -8.570 -10.223  17.694  0.00  0.00    +0.167 HD
BRANCH  17  19
ATOM      6  N   UNL     1     -11.815 -12.536  20.798  0.00  0.00    -0.263 NA
ATOM     19  C   UNL     1      -9.881 -11.460  19.825  0.00  0.00    +0.018 A 
ATOM     20  C   UNL     1     -10.565 -10.250  19.785  0.00  0.00    +0.013 A 
ATOM     21  C   UNL     1     -10.545 -12.564  20.336  0.00  0.00    +0.120 A 
ATOM     22  C   UNL     1     -11.873 -10.181  20.252  0.00  0.00    +0.020 A 
ATOM     23  C   UNL     1     -12.448 -11.343  20.744  0.00  0.00    +0.111 A 
ENDBRANCH  17  19
ENDBRANCH   8  16
TORSDOF 3
ENDMDL
MODEL 10
REMARK VINA RESULT:      -5.6      2.691      7.742
REMARK  Name = 75367163
REMARK  3 active torsions:
REMARK  status: ('A' for Active; 'I' for Inactive)
REMARK    1  A    between atoms: N_2  and  C_7
REMARK    2  A    between atoms: C_8  and  C_16
REMARK    3  A    between atoms: C_17  and  C_19
REMARK                            x       y       z     vdW  Elec       q    Type
REMARK                         _______ _______ _______ _____ _____    ______ ____
ROOT
ATOM      1  O   UNL     1      12.553  14.104  21.339  0.00  0.00    -0.377 OA
ATOM      2  N   UNL     1      12.610  13.087  24.035  0.00  0.00    -0.286 NA
ATOM      8  C   UNL     1      11.414  12.919  23.180  0.00  0.00    +0.149 C 
ATOM     11  C   UNL     1      13.823  13.306  23.236  0.00  0.00    +0.113 C 
ATOM     14  C   UNL     1      11.335  13.995  22.076  0.00  0.00    +0.186 C 
ATOM     15  C   UNL     1      13.654  14.403  22.192  0.00  0.00    +0.175 C 
ENDROOT
BRANCH   2   7
ATOM      3  N   UNL     1      12.037  14.906  27.839  0.00  0.00    -0.316 NA
ATOM      7  C   UNL     1      12.425  14.133  25.039  0.00  0.00    +0.060 C 
ATOM      9  C   UNL     1      13.574  14.130  26.054  0.00  0.00    +0.034 C 
ATOM     10  C   UNL     1      11.086  13.946  25.758  0.00  0.00    +0.034 C 
ATOM     12  C   UNL     1      13.318  15.145  27.169  0.00  0.00    +0.082 C 
ATOM     13  C   UNL     1      10.926  14.967  26.886  0.00  0.00    +0.082 C 
ATOM     24  H   UNL     1      11.899  15.611  28.562  0.00  0.00    +0.122 HD
ENDBRANCH   2   7
BRANCH   8  16
ATOM      4  N   UNL     1      11.811  11.077  21.497  0.00  0.00    -0.340 N 
ATOM      5  N   UNL     1      10.725  10.474  23.339  0.00  0.00    -0.238 NA
ATOM     16  C   UNL     1      11.298  11.471  22.701  0.00  0.00    +0.127 A 
ATOM     17  C   UNL     1      11.550   9.743  21.357  0.00  0.00    +0.068 A 
ATOM     18  C   UNL     1      10.879   9.394  22.506  0.00  0.00    +0.139 A 
ATOM     25  H   UNL     1      12.285  11.674  20.832  0.00  0.00    +0.167 HD
BRANCH  17  19
ATOM      6  N   UNL     1      12.150   6.816  19.138  0.00  0.00    -0.263 NA
ATOM     19  C   UNL     1      11.942   8.975  20.205  0.00  0.00    +0.018 A 
ATOM     20  C   UNL     1      12.473   9.592  19.079  0.00  0.00    +0.013 A 
ATOM     21  C   UNL     1      11.803   7.596  20.185  0.00  0.00    +0.120 A 
ATOM     22  C   UNL     1      12.843   8.823  17.980  0.00  0.00    +0.020 A 
ATOM     23  C   UNL     1      12.663   7.451  18.060  0.00  0.00    +0.111 A 
ENDBRANCH  17  19
ENDBRANCH   8  16
TORSDOF 3
ENDMDL
