REMARK  Name = 26743094
REMARK  8 active torsions:
REMARK  status: ('A' for Active; 'I' for Inactive)
REMARK    1  A    between atoms: S_1  and  C_24
REMARK    2  A    between atoms: S_1  and  C_25
REMARK    3  A    between atoms: N_5  and  C_14
REMARK    4  A    between atoms: C_7  and  C_11
REMARK    5  A    between atoms: C_8  and  C_13
REMARK    6  A    between atoms: C_11  and  C_17
REMARK    7  A    between atoms: C_13  and  C_21
REMARK    8  A    between atoms: C_23  and  C_24
REMARK                            x       y       z     vdW  Elec       q    Type
REMARK                         _______ _______ _______ _____ _____    ______ ____
ROOT
ATOM      4  N   UNL     1       0.517   2.537   0.227  0.00  0.00    -0.316 NA
ATOM      7  C   UNL     1      -1.593   0.504  -0.123  0.00  0.00    +0.004 C 
ATOM      8  C   UNL     1      -0.085   0.165  -0.193  0.00  0.00    +0.012 C 
ATOM      9  C   UNL     1      -1.782   1.778   0.717  0.00  0.00    +0.019 C 
ATOM     10  C   UNL     1       0.750   1.378  -0.635  0.00  0.00    +0.085 C 
ATOM     12  C   UNL     1      -0.892   2.926   0.245  0.00  0.00    +0.081 C 
ATOM     31  H   UNL     1       1.080   3.321  -0.101  0.00  0.00    +0.122 HD
ENDROOT
BRANCH   7  11
ATOM     11  C   UNL     1      -2.264   0.651  -1.494  0.00  0.00    +0.099 C 
BRANCH  11  17
ATOM      2  O   UNL     1      -4.255   1.986  -1.820  0.00  0.00    -0.276 OA
ATOM      5  N   UNL     1      -4.417  -0.054  -0.718  0.00  0.00    -0.312 N 
ATOM     17  C   UNL     1      -3.741   0.961  -1.379  0.00  0.00    +0.214 C 
ATOM     32  H   UNL     1      -3.900  -0.865  -0.395  0.00  0.00    +0.149 HD
BRANCH   5  14
ATOM     14  C   UNL     1      -5.840  -0.021  -0.465  0.00  0.00    +0.073 C 
ATOM     15  C   UNL     1      -6.436  -1.432  -0.483  0.00  0.00    +0.022 C 
ATOM     16  C   UNL     1      -6.149   0.695   0.854  0.00  0.00    +0.022 C 
ATOM     18  C   UNL     1      -6.031  -2.254   0.741  0.00  0.00    +0.002 C 
ATOM     19  C   UNL     1      -5.745  -0.130   2.076  0.00  0.00    +0.002 C 
ATOM     20  C   UNL     1      -6.358  -1.526   2.041  0.00  0.00    +0.000 C 
ENDBRANCH   5  14
ENDBRANCH  11  17
ENDBRANCH   7  11
BRANCH   8  13
ATOM     13  C   UNL     1       0.216  -1.046  -1.078  0.00  0.00    +0.064 C 
BRANCH  13  21
ATOM      3  O   UNL     1       2.932  -2.980   0.280  0.00  0.00    -0.359 OA
ATOM      6  N   UNL     1       1.588  -2.634   0.199  0.00  0.00    -0.083 NA
ATOM     21  C   UNL     1       1.535  -1.668  -0.722  0.00  0.00    +0.084 A 
ATOM     22  C   UNL     1       2.802  -1.365  -1.252  0.00  0.00    +0.071 A 
ATOM     23  C   UNL     1       3.644  -2.218  -0.589  0.00  0.00    +0.148 A 
BRANCH  23  24
ATOM     24  C   UNL     1       5.092  -2.454  -0.632  0.00  0.00    +0.151 C 
BRANCH  24   1
ATOM      1  S   UNL     1       5.985  -1.725   0.786  0.00  0.00    -0.117 S 
BRANCH   1  25
ATOM     25  C   UNL     1       5.481  -0.014   0.664  0.00  0.00    +0.008 A 
ATOM     26  C   UNL     1       5.771   0.718  -0.487  0.00  0.00    +0.015 A 
ATOM     27  C   UNL     1       4.798   0.588   1.721  0.00  0.00    +0.015 A 
ATOM     28  C   UNL     1       5.378   2.053  -0.581  0.00  0.00    +0.001 A 
ATOM     29  C   UNL     1       4.405   1.923   1.626  0.00  0.00    +0.001 A 
ATOM     30  C   UNL     1       4.695   2.655   0.475  0.00  0.00    +0.000 A 
ENDBRANCH   1  25
ENDBRANCH  24   1
ENDBRANCH  23  24
ENDBRANCH  13  21
ENDBRANCH   8  13
TORSDOF 8
