MODEL 1
REMARK VINA RESULT:      -6.4      0.000      0.000
REMARK  Name = 45784192
REMARK  6 active torsions:
REMARK  status: ('A' for Active; 'I' for Inactive)
REMARK    1  A    between atoms: N_2  and  C_8
REMARK    2  A    between atoms: C_4  and  C_10
REMARK    3  A    between atoms: C_8  and  C_9
REMARK    4  A    between atoms: C_9  and  C_11
REMARK    5  A    between atoms: C_9  and  C_12
REMARK    6  A    between atoms: C_17  and  C_19
REMARK                            x       y       z     vdW  Elec       q    Type
REMARK                         _______ _______ _______ _____ _____    ______ ____
ROOT
ATOM      1  O   UNL     1      14.520   6.796  19.321  0.00  0.00    -0.439 OA
ATOM      3  N   UNL     1      15.026   7.679  21.346  0.00  0.00    -0.213 NA
ATOM     10  C   UNL     1      14.107   7.477  20.426  0.00  0.00    +0.201 A 
ATOM     13  C   UNL     1      16.143   7.085  20.812  0.00  0.00    +0.110 A 
ATOM     14  C   UNL     1      15.838   6.543  19.573  0.00  0.00    +0.155 A 
ATOM     15  C   UNL     1      17.451   6.958  21.304  0.00  0.00    +0.035 A 
ATOM     16  C   UNL     1      16.740   5.870  18.759  0.00  0.00    +0.049 A 
ATOM     17  C   UNL     1      18.390   6.284  20.510  0.00  0.00    -0.048 A 
ATOM     18  C   UNL     1      18.039   5.751  19.264  0.00  0.00    +0.007 A 
ATOM     19  C   UNL     1      19.791   6.132  21.006  0.00  0.00    +0.044 C 
ENDROOT
BRANCH  10   4
ATOM      2  N   UNL     1      11.072   9.101  21.682  0.00  0.00    -0.301 NA
ATOM      4  C   UNL     1      12.656   7.901  20.438  0.00  0.00    +0.090 C 
ATOM      5  C   UNL     1      12.431   9.239  21.153  0.00  0.00    +0.097 C 
ATOM      6  C   UNL     1      11.702   6.918  21.137  0.00  0.00    +0.029 C 
ATOM      7  C   UNL     1      11.014   7.741  22.220  0.00  0.00    +0.085 C 
BRANCH   2   8
ATOM      8  C   UNL     1      10.761  10.107  22.686  0.00  0.00    +0.087 C 
BRANCH   8   9
ATOM      9  C   UNL     1      11.729  11.303  22.638  0.00  0.00    -0.003 C 
ATOM     11  C   UNL     1      11.005  12.530  22.079  0.00  0.00    +0.008 C 
ATOM     12  C   UNL     1      12.319  11.635  24.011  0.00  0.00    +0.008 C 
ENDBRANCH   8   9
ENDBRANCH   2   8
ENDBRANCH  10   4
TORSDOF 3
ENDMDL
MODEL 2
REMARK VINA RESULT:      -6.3      1.989      2.844
REMARK  Name = 45784192
REMARK  6 active torsions:
REMARK  status: ('A' for Active; 'I' for Inactive)
REMARK    1  A    between atoms: N_2  and  C_8
REMARK    2  A    between atoms: C_4  and  C_10
REMARK    3  A    between atoms: C_8  and  C_9
REMARK    4  A    between atoms: C_9  and  C_11
REMARK    5  A    between atoms: C_9  and  C_12
REMARK    6  A    between atoms: C_17  and  C_19
REMARK                            x       y       z     vdW  Elec       q    Type
REMARK                         _______ _______ _______ _____ _____    ______ ____
ROOT
ATOM      1  O   UNL     1      16.230   6.900  19.056  0.00  0.00    -0.439 OA
ATOM      3  N   UNL     1      16.549   8.509  20.620  0.00  0.00    -0.213 NA
ATOM     10  C   UNL     1      15.796   8.050  19.644  0.00  0.00    +0.201 A 
ATOM     13  C   UNL     1      17.568   7.591  20.691  0.00  0.00    +0.110 A 
ATOM     14  C   UNL     1      17.377   6.605  19.735  0.00  0.00    +0.155 A 
ATOM     15  C   UNL     1      18.692   7.515  21.527  0.00  0.00    +0.035 A 
ATOM     16  C   UNL     1      18.224   5.522  19.533  0.00  0.00    +0.049 A 
ATOM     17  C   UNL     1      19.571   6.436  21.353  0.00  0.00    -0.048 A 
ATOM     18  C   UNL     1      19.339   5.461  20.375  0.00  0.00    +0.007 A 
ATOM     19  C   UNL     1      20.775   6.327  22.229  0.00  0.00    +0.044 C 
ENDROOT
BRANCH  10   4
ATOM      2  N   UNL     1      12.184   8.596  19.350  0.00  0.00    -0.301 NA
ATOM      4  C   UNL     1      14.515   8.632  19.092  0.00  0.00    +0.090 C 
ATOM      5  C   UNL     1      13.405   8.742  20.146  0.00  0.00    +0.097 C 
ATOM      6  C   UNL     1      13.883   7.830  17.942  0.00  0.00    +0.029 C 
ATOM      7  C   UNL     1      12.472   7.507  18.415  0.00  0.00    +0.085 C 
BRANCH   2   8
ATOM      8  C   UNL     1      11.014   8.327  20.172  0.00  0.00    +0.087 C 
BRANCH   8   9
ATOM      9  C   UNL     1      11.379   7.686  21.523  0.00  0.00    -0.003 C 
ATOM     11  C   UNL     1      10.630   8.399  22.651  0.00  0.00    +0.008 C 
ATOM     12  C   UNL     1      11.069   6.188  21.565  0.00  0.00    +0.008 C 
ENDBRANCH   8   9
ENDBRANCH   2   8
ENDBRANCH  10   4
TORSDOF 3
ENDMDL
MODEL 3
REMARK VINA RESULT:      -6.2     16.411     18.735
REMARK  Name = 45784192
REMARK  6 active torsions:
REMARK  status: ('A' for Active; 'I' for Inactive)
REMARK    1  A    between atoms: N_2  and  C_8
REMARK    2  A    between atoms: C_4  and  C_10
REMARK    3  A    between atoms: C_8  and  C_9
REMARK    4  A    between atoms: C_9  and  C_11
REMARK    5  A    between atoms: C_9  and  C_12
REMARK    6  A    between atoms: C_17  and  C_19
REMARK                            x       y       z     vdW  Elec       q    Type
REMARK                         _______ _______ _______ _____ _____    ______ ____
ROOT
ATOM      1  O   UNL     1       9.764   6.408   4.983  0.00  0.00    -0.439 OA
ATOM      3  N   UNL     1      10.192   4.214   5.354  0.00  0.00    -0.213 NA
ATOM     10  C   UNL     1      10.136   5.198   4.482  0.00  0.00    +0.201 A 
ATOM     13  C   UNL     1       9.829   4.817   6.534  0.00  0.00    +0.110 A 
ATOM     14  C   UNL     1       9.565   6.160   6.310  0.00  0.00    +0.155 A 
ATOM     15  C   UNL     1       9.696   4.307   7.833  0.00  0.00    +0.035 A 
ATOM     16  C   UNL     1       9.171   7.064   7.290  0.00  0.00    +0.049 A 
ATOM     17  C   UNL     1       9.299   5.189   8.850  0.00  0.00    -0.048 A 
ATOM     18  C   UNL     1       9.043   6.540   8.580  0.00  0.00    +0.007 A 
ATOM     19  C   UNL     1       9.149   4.677  10.244  0.00  0.00    +0.044 C 
ENDROOT
BRANCH  10   4
ATOM      2  N   UNL     1      11.967   4.351   1.423  0.00  0.00    -0.301 NA
ATOM      4  C   UNL     1      10.430   5.157   3.000  0.00  0.00    +0.090 C 
ATOM      5  C   UNL     1      11.188   3.892   2.576  0.00  0.00    +0.097 C 
ATOM      6  C   UNL     1      11.290   6.321   2.479  0.00  0.00    +0.029 C 
ATOM      7  C   UNL     1      12.492   5.658   1.819  0.00  0.00    +0.085 C 
BRANCH   2   8
ATOM      8  C   UNL     1      13.022   3.417   1.058  0.00  0.00    +0.087 C 
BRANCH   8   9
ATOM      9  C   UNL     1      13.143   3.234  -0.465  0.00  0.00    -0.003 C 
ATOM     11  C   UNL     1      11.817   3.601  -1.135  0.00  0.00    +0.008 C 
ATOM     12  C   UNL     1      14.274   4.071  -1.068  0.00  0.00    +0.008 C 
ENDBRANCH   8   9
ENDBRANCH   2   8
ENDBRANCH  10   4
TORSDOF 3
ENDMDL
MODEL 4
REMARK VINA RESULT:      -6.2      2.511      4.310
REMARK  Name = 45784192
REMARK  6 active torsions:
REMARK  status: ('A' for Active; 'I' for Inactive)
REMARK    1  A    between atoms: N_2  and  C_8
REMARK    2  A    between atoms: C_4  and  C_10
REMARK    3  A    between atoms: C_8  and  C_9
REMARK    4  A    between atoms: C_9  and  C_11
REMARK    5  A    between atoms: C_9  and  C_12
REMARK    6  A    between atoms: C_17  and  C_19
REMARK                            x       y       z     vdW  Elec       q    Type
REMARK                         _______ _______ _______ _____ _____    ______ ____
ROOT
ATOM      1  O   UNL     1      18.388   7.367  21.662  0.00  0.00    -0.439 OA
ATOM      3  N   UNL     1      18.282   5.995  19.861  0.00  0.00    -0.213 NA
ATOM     10  C   UNL     1      17.727   6.979  20.536  0.00  0.00    +0.201 A 
ATOM     13  C   UNL     1      19.405   5.702  20.596  0.00  0.00    +0.110 A 
ATOM     14  C   UNL     1      19.473   6.540  21.699  0.00  0.00    +0.155 A 
ATOM     15  C   UNL     1      20.415   4.749  20.405  0.00  0.00    +0.035 A 
ATOM     16  C   UNL     1      20.484   6.512  22.653  0.00  0.00    +0.049 A 
ATOM     17  C   UNL     1      21.453   4.690  21.347  0.00  0.00    -0.048 A 
ATOM     18  C   UNL     1      21.484   5.556  22.448  0.00  0.00    +0.007 A 
ATOM     19  C   UNL     1      22.544   3.686  21.171  0.00  0.00    +0.044 C 
ENDROOT
BRANCH  10   4
ATOM      2  N   UNL     1      14.166   7.822  20.726  0.00  0.00    -0.301 NA
ATOM      4  C   UNL     1      16.455   7.732  20.223  0.00  0.00    +0.090 C 
ATOM      5  C   UNL     1      15.466   7.749  21.396  0.00  0.00    +0.097 C 
ATOM      6  C   UNL     1      15.647   7.173  19.040  0.00  0.00    +0.029 C 
ATOM      7  C   UNL     1      14.265   6.880  19.610  0.00  0.00    +0.085 C 
BRANCH   2   8
ATOM      8  C   UNL     1      13.061   7.508  21.620  0.00  0.00    +0.087 C 
BRANCH   8   9
ATOM      9  C   UNL     1      11.805   7.046  20.861  0.00  0.00    -0.003 C 
ATOM     11  C   UNL     1      11.134   5.901  21.623  0.00  0.00    +0.008 C 
ATOM     12  C   UNL     1      10.800   8.180  20.646  0.00  0.00    +0.008 C 
ENDBRANCH   8   9
ENDBRANCH   2   8
ENDBRANCH  10   4
TORSDOF 3
ENDMDL
MODEL 5
REMARK VINA RESULT:      -5.9      2.911      3.982
REMARK  Name = 45784192
REMARK  6 active torsions:
REMARK  status: ('A' for Active; 'I' for Inactive)
REMARK    1  A    between atoms: N_2  and  C_8
REMARK    2  A    between atoms: C_4  and  C_10
REMARK    3  A    between atoms: C_8  and  C_9
REMARK    4  A    between atoms: C_9  and  C_11
REMARK    5  A    between atoms: C_9  and  C_12
REMARK    6  A    between atoms: C_17  and  C_19
REMARK                            x       y       z     vdW  Elec       q    Type
REMARK                         _______ _______ _______ _____ _____    ______ ____
ROOT
ATOM      1  O   UNL     1      16.025   7.750  20.152  0.00  0.00    -0.439 OA
ATOM      3  N   UNL     1      16.516   5.829  19.057  0.00  0.00    -0.213 NA
ATOM     10  C   UNL     1      15.627   6.767  19.298  0.00  0.00    +0.201 A 
ATOM     13  C   UNL     1      17.597   6.216  19.812  0.00  0.00    +0.110 A 
ATOM     14  C   UNL     1      17.299   7.392  20.484  0.00  0.00    +0.155 A 
ATOM     15  C   UNL     1      18.861   5.635  19.988  0.00  0.00    +0.035 A 
ATOM     16  C   UNL     1      18.171   8.058  21.337  0.00  0.00    +0.049 A 
ATOM     17  C   UNL     1      19.769   6.279  20.842  0.00  0.00    -0.048 A 
ATOM     18  C   UNL     1      19.428   7.467  21.501  0.00  0.00    +0.007 A 
ATOM     19  C   UNL     1      21.124   5.686  21.049  0.00  0.00    +0.044 C 
ENDROOT
BRANCH  10   4
ATOM      2  N   UNL     1      12.772   8.384  17.665  0.00  0.00    -0.301 NA
ATOM      4  C   UNL     1      14.225   6.896  18.749  0.00  0.00    +0.090 C 
ATOM      5  C   UNL     1      14.135   7.857  17.556  0.00  0.00    +0.097 C 
ATOM      6  C   UNL     1      13.183   7.419  19.752  0.00  0.00    +0.029 C 
ATOM      7  C   UNL     1      12.586   8.655  19.091  0.00  0.00    +0.085 C 
BRANCH   2   8
ATOM      8  C   UNL     1      12.568   9.568  16.844  0.00  0.00    +0.087 C 
BRANCH   8   9
ATOM      9  C   UNL     1      13.857  10.389  16.666  0.00  0.00    -0.003 C 
ATOM     11  C   UNL     1      13.968  10.865  15.215  0.00  0.00    +0.008 C 
ATOM     12  C   UNL     1      13.921  11.594  17.609  0.00  0.00    +0.008 C 
ENDBRANCH   8   9
ENDBRANCH   2   8
ENDBRANCH  10   4
TORSDOF 3
ENDMDL
MODEL 6
REMARK VINA RESULT:      -5.8     25.280     26.679
REMARK  Name = 45784192
REMARK  6 active torsions:
REMARK  status: ('A' for Active; 'I' for Inactive)
REMARK    1  A    between atoms: N_2  and  C_8
REMARK    2  A    between atoms: C_4  and  C_10
REMARK    3  A    between atoms: C_8  and  C_9
REMARK    4  A    between atoms: C_9  and  C_11
REMARK    5  A    between atoms: C_9  and  C_12
REMARK    6  A    between atoms: C_17  and  C_19
REMARK                            x       y       z     vdW  Elec       q    Type
REMARK                         _______ _______ _______ _____ _____    ______ ____
ROOT
ATOM      1  O   UNL     1     -12.829   9.095  22.159  0.00  0.00    -0.439 OA
ATOM      3  N   UNL     1     -12.075  10.940  21.082  0.00  0.00    -0.213 NA
ATOM     10  C   UNL     1     -12.666  10.447  22.149  0.00  0.00    +0.201 A 
ATOM     13  C   UNL     1     -11.821   9.828  20.318  0.00  0.00    +0.110 A 
ATOM     14  C   UNL     1     -12.282   8.696  20.974  0.00  0.00    +0.155 A 
ATOM     15  C   UNL     1     -11.210   9.683  19.064  0.00  0.00    +0.035 A 
ATOM     16  C   UNL     1     -12.186   7.400  20.480  0.00  0.00    +0.049 A 
ATOM     17  C   UNL     1     -11.095   8.390  18.532  0.00  0.00    -0.048 A 
ATOM     18  C   UNL     1     -11.574   7.273  19.229  0.00  0.00    +0.007 A 
ATOM     19  C   UNL     1     -10.449   8.203  17.199  0.00  0.00    +0.044 C 
ENDROOT
BRANCH  10   4
ATOM      2  N   UNL     1     -12.724  11.633  25.615  0.00  0.00    -0.301 NA
ATOM      4  C   UNL     1     -13.186  11.185  23.361  0.00  0.00    +0.090 C 
ATOM      5  C   UNL     1     -12.069  11.646  24.305  0.00  0.00    +0.097 C 
ATOM      6  C   UNL     1     -14.141  10.373  24.252  0.00  0.00    +0.029 C 
ATOM      7  C   UNL     1     -13.502  10.394  25.635  0.00  0.00    +0.085 C 
BRANCH   2   8
ATOM      8  C   UNL     1     -11.771  11.707  26.713  0.00  0.00    +0.087 C 
BRANCH   8   9
ATOM      9  C   UNL     1     -11.318  10.316  27.192  0.00  0.00    -0.003 C 
ATOM     11  C   UNL     1      -9.848  10.098  26.824  0.00  0.00    +0.008 C 
ATOM     12  C   UNL     1     -11.505  10.125  28.699  0.00  0.00    +0.008 C 
ENDBRANCH   8   9
ENDBRANCH   2   8
ENDBRANCH  10   4
TORSDOF 3
ENDMDL
MODEL 7
REMARK VINA RESULT:      -5.7      1.809      2.810
REMARK  Name = 45784192
REMARK  6 active torsions:
REMARK  status: ('A' for Active; 'I' for Inactive)
REMARK    1  A    between atoms: N_2  and  C_8
REMARK    2  A    between atoms: C_4  and  C_10
REMARK    3  A    between atoms: C_8  and  C_9
REMARK    4  A    between atoms: C_9  and  C_11
REMARK    5  A    between atoms: C_9  and  C_12
REMARK    6  A    between atoms: C_17  and  C_19
REMARK                            x       y       z     vdW  Elec       q    Type
REMARK                         _______ _______ _______ _____ _____    ______ ____
ROOT
ATOM      1  O   UNL     1      16.585   7.484  20.542  0.00  0.00    -0.439 OA
ATOM      3  N   UNL     1      16.775   5.861  18.972  0.00  0.00    -0.213 NA
ATOM     10  C   UNL     1      16.035   6.817  19.489  0.00  0.00    +0.201 A 
ATOM     13  C   UNL     1      17.913   5.891  19.741  0.00  0.00    +0.110 A 
ATOM     14  C   UNL     1      17.800   6.883  20.704  0.00  0.00    +0.155 A 
ATOM     15  C   UNL     1      19.083   5.120  19.696  0.00  0.00    +0.035 A 
ATOM     16  C   UNL     1      18.773   7.183  21.649  0.00  0.00    +0.049 A 
ATOM     17  C   UNL     1      20.089   5.393  20.635  0.00  0.00    -0.048 A 
ATOM     18  C   UNL     1      19.934   6.406  21.590  0.00  0.00    +0.007 A 
ATOM     19  C   UNL     1      21.347   4.589  20.612  0.00  0.00    +0.044 C 
ENDROOT
BRANCH  10   4
ATOM      2  N   UNL     1      13.140   9.052  19.244  0.00  0.00    -0.301 NA
ATOM      4  C   UNL     1      14.656   7.271  19.067  0.00  0.00    +0.090 C 
ATOM      5  C   UNL     1      14.546   8.794  18.922  0.00  0.00    +0.097 C 
ATOM      6  C   UNL     1      13.524   6.888  20.037  0.00  0.00    +0.029 C 
ATOM      7  C   UNL     1      12.860   8.208  20.406  0.00  0.00    +0.085 C 
BRANCH   2   8
ATOM      8  C   UNL     1      12.879  10.459  19.504  0.00  0.00    +0.087 C 
BRANCH   8   9
ATOM      9  C   UNL     1      12.881  10.789  21.007  0.00  0.00    -0.003 C 
ATOM     11  C   UNL     1      14.139  11.589  21.357  0.00  0.00    +0.008 C 
ATOM     12  C   UNL     1      11.638  11.571  21.438  0.00  0.00    +0.008 C 
ENDBRANCH   8   9
ENDBRANCH   2   8
ENDBRANCH  10   4
TORSDOF 3
ENDMDL
MODEL 8
REMARK VINA RESULT:      -5.7     26.414     29.378
REMARK  Name = 45784192
REMARK  6 active torsions:
REMARK  status: ('A' for Active; 'I' for Inactive)
REMARK    1  A    between atoms: N_2  and  C_8
REMARK    2  A    between atoms: C_4  and  C_10
REMARK    3  A    between atoms: C_8  and  C_9
REMARK    4  A    between atoms: C_9  and  C_11
REMARK    5  A    between atoms: C_9  and  C_12
REMARK    6  A    between atoms: C_17  and  C_19
REMARK                            x       y       z     vdW  Elec       q    Type
REMARK                         _______ _______ _______ _____ _____    ______ ____
ROOT
ATOM      1  O   UNL     1      -7.782 -10.229  17.812  0.00  0.00    -0.439 OA
ATOM      3  N   UNL     1      -8.021 -11.301  19.794  0.00  0.00    -0.213 NA
ATOM     10  C   UNL     1      -7.221 -10.978  18.801  0.00  0.00    +0.201 A 
ATOM     13  C   UNL     1      -9.214 -10.718  19.441  0.00  0.00    +0.110 A 
ATOM     14  C   UNL     1      -9.071 -10.062  18.227  0.00  0.00    +0.155 A 
ATOM     15  C   UNL     1     -10.461 -10.696  20.081  0.00  0.00    +0.035 A 
ATOM     16  C   UNL     1     -10.085  -9.367  17.579  0.00  0.00    +0.049 A 
ATOM     17  C   UNL     1     -11.510 -10.004  19.458  0.00  0.00    -0.048 A 
ATOM     18  C   UNL     1     -11.322  -9.353  18.232  0.00  0.00    +0.007 A 
ATOM     19  C   UNL     1     -12.850  -9.961  20.115  0.00  0.00    +0.044 C 
ENDROOT
BRANCH  10   4
ATOM      2  N   UNL     1      -4.020 -11.313  17.048  0.00  0.00    -0.301 NA
ATOM      4  C   UNL     1      -5.763 -11.332  18.617  0.00  0.00    +0.090 C 
ATOM      5  C   UNL     1      -5.053 -10.432  17.597  0.00  0.00    +0.097 C 
ATOM      6  C   UNL     1      -5.503 -12.765  18.121  0.00  0.00    +0.029 C 
ATOM      7  C   UNL     1      -4.692 -12.598  16.843  0.00  0.00    +0.085 C 
BRANCH   2   8
ATOM      8  C   UNL     1      -3.438 -10.790  15.821  0.00  0.00    +0.087 C 
BRANCH   8   9
ATOM      9  C   UNL     1      -1.956 -11.173  15.665  0.00  0.00    -0.003 C 
ATOM     11  C   UNL     1      -1.781 -12.062  14.431  0.00  0.00    +0.008 C 
ATOM     12  C   UNL     1      -1.043  -9.949  15.550  0.00  0.00    +0.008 C 
ENDBRANCH   8   9
ENDBRANCH   2   8
ENDBRANCH  10   4
TORSDOF 3
ENDMDL
MODEL 9
REMARK VINA RESULT:      -5.6     26.493     28.003
REMARK  Name = 45784192
REMARK  6 active torsions:
REMARK  status: ('A' for Active; 'I' for Inactive)
REMARK    1  A    between atoms: N_2  and  C_8
REMARK    2  A    between atoms: C_4  and  C_10
REMARK    3  A    between atoms: C_8  and  C_9
REMARK    4  A    between atoms: C_9  and  C_11
REMARK    5  A    between atoms: C_9  and  C_12
REMARK    6  A    between atoms: C_17  and  C_19
REMARK                            x       y       z     vdW  Elec       q    Type
REMARK                         _______ _______ _______ _____ _____    ______ ____
ROOT
ATOM      1  O   UNL     1      -3.238 -11.271  16.824  0.00  0.00    -0.439 OA
ATOM      3  N   UNL     1      -5.005 -10.516  15.624  0.00  0.00    -0.213 NA
ATOM     10  C   UNL     1      -3.723 -10.808  15.639  0.00  0.00    +0.201 A 
ATOM     13  C   UNL     1      -5.411 -10.809  16.903  0.00  0.00    +0.110 A 
ATOM     14  C   UNL     1      -4.331 -11.271  17.641  0.00  0.00    +0.155 A 
ATOM     15  C   UNL     1      -6.665 -10.713  17.524  0.00  0.00    +0.035 A 
ATOM     16  C   UNL     1      -4.390 -11.657  18.975  0.00  0.00    +0.049 A 
ATOM     17  C   UNL     1      -6.764 -11.094  18.870  0.00  0.00    -0.048 A 
ATOM     18  C   UNL     1      -5.648 -11.557  19.578  0.00  0.00    +0.007 A 
ATOM     19  C   UNL     1      -8.086 -11.005  19.559  0.00  0.00    +0.044 C 
ENDROOT
BRANCH  10   4
ATOM      2  N   UNL     1      -2.444 -11.075  12.215  0.00  0.00    -0.301 NA
ATOM      4  C   UNL     1      -2.721 -10.695  14.512  0.00  0.00    +0.090 C 
ATOM      5  C   UNL     1      -3.379 -10.444  13.149  0.00  0.00    +0.097 C 
ATOM      6  C   UNL     1      -1.844 -11.941  14.300  0.00  0.00    +0.029 C 
ATOM      7  C   UNL     1      -2.075 -12.342  12.848  0.00  0.00    +0.085 C 
BRANCH   2   8
ATOM      8  C   UNL     1      -3.021 -11.263  10.893  0.00  0.00    +0.087 C 
BRANCH   8   9
ATOM      9  C   UNL     1      -4.141 -10.252  10.591  0.00  0.00    -0.003 C 
ATOM     11  C   UNL     1      -3.607  -9.149   9.674  0.00  0.00    +0.008 C 
ATOM     12  C   UNL     1      -5.366 -10.908   9.948  0.00  0.00    +0.008 C 
ENDBRANCH   8   9
ENDBRANCH   2   8
ENDBRANCH  10   4
TORSDOF 3
ENDMDL
MODEL 10
REMARK VINA RESULT:      -5.6     25.720     27.968
REMARK  Name = 45784192
REMARK  6 active torsions:
REMARK  status: ('A' for Active; 'I' for Inactive)
REMARK    1  A    between atoms: N_2  and  C_8
REMARK    2  A    between atoms: C_4  and  C_10
REMARK    3  A    between atoms: C_8  and  C_9
REMARK    4  A    between atoms: C_9  and  C_11
REMARK    5  A    between atoms: C_9  and  C_12
REMARK    6  A    between atoms: C_17  and  C_19
REMARK                            x       y       z     vdW  Elec       q    Type
REMARK                         _______ _______ _______ _____ _____    ______ ____
ROOT
ATOM      1  O   UNL     1      -3.276 -11.300  17.257  0.00  0.00    -0.439 OA
ATOM      3  N   UNL     1      -4.807 -11.960  15.723  0.00  0.00    -0.213 NA
ATOM     10  C   UNL     1      -4.475 -11.888  16.994  0.00  0.00    +0.201 A 
ATOM     13  C   UNL     1      -3.743 -11.371  15.085  0.00  0.00    +0.110 A 
ATOM     14  C   UNL     1      -2.803 -10.966  16.021  0.00  0.00    +0.155 A 
ATOM     15  C   UNL     1      -3.488 -11.139  13.725  0.00  0.00    +0.035 A 
ATOM     16  C   UNL     1      -1.603 -10.334  15.716  0.00  0.00    +0.049 A 
ATOM     17  C   UNL     1      -2.287 -10.504  13.378  0.00  0.00    -0.048 A 
ATOM     18  C   UNL     1      -1.365 -10.110  14.357  0.00  0.00    +0.007 A 
ATOM     19  C   UNL     1      -1.988 -10.243  11.939  0.00  0.00    +0.044 C 
ENDROOT
BRANCH  10   4
ATOM      2  N   UNL     1      -7.396 -12.401  19.147  0.00  0.00    -0.301 NA
ATOM      4  C   UNL     1      -5.253 -12.373  18.196  0.00  0.00    +0.090 C 
ATOM      5  C   UNL     1      -6.722 -12.676  17.875  0.00  0.00    +0.097 C 
ATOM      6  C   UNL     1      -5.305 -11.385  19.373  0.00  0.00    +0.029 C 
ATOM      7  C   UNL     1      -6.789 -11.161  19.634  0.00  0.00    +0.085 C 
BRANCH   2   8
ATOM      8  C   UNL     1      -8.840 -12.290  18.998  0.00  0.00    +0.087 C 
BRANCH   8   9
ATOM      9  C   UNL     1      -9.324 -10.831  19.041  0.00  0.00    -0.003 C 
ATOM     11  C   UNL     1      -9.891 -10.435  17.674  0.00  0.00    +0.008 C 
ATOM     12  C   UNL     1     -10.380 -10.594  20.124  0.00  0.00    +0.008 C 
ENDBRANCH   8   9
ENDBRANCH   2   8
ENDBRANCH  10   4
TORSDOF 3
ENDMDL
