MODEL 1
REMARK VINA RESULT:      -7.5      0.000      0.000
REMARK  Name = 11912821
REMARK  6 active torsions:
REMARK  status: ('A' for Active; 'I' for Inactive)
REMARK    1  A    between atoms: O_5  and  C_30
REMARK    2  A    between atoms: O_5  and  C_31
REMARK    3  A    between atoms: N_6  and  C_12
REMARK    4  A    between atoms: N_7  and  C_13
REMARK    5  A    between atoms: C_17  and  C_18
REMARK    6  A    between atoms: C_19  and  C_23
REMARK                            x       y       z     vdW  Elec       q    Type
REMARK                         _______ _______ _______ _____ _____    ______ ____
ROOT
ATOM      2  O   UNL     1      -5.224  -8.708  10.551  0.00  0.00    -0.370 OA
ATOM      3  O   UNL     1      -6.451 -11.574  10.461  0.00  0.00    -0.370 OA
ATOM     10  C   UNL     1      -5.116 -11.082  10.663  0.00  0.00    +0.171 C 
ATOM     11  C   UNL     1      -4.941  -9.874   9.763  0.00  0.00    +0.171 C 
ATOM     12  C   UNL     1      -4.972 -10.524  12.060  0.00  0.00    +0.130 C 
ATOM     13  C   UNL     1      -5.994 -10.057   8.694  0.00  0.00    +0.130 C 
ATOM     14  C   UNL     1      -5.483  -9.104  11.906  0.00  0.00    +0.185 C 
ATOM     15  C   UNL     1      -7.093 -10.791   9.442  0.00  0.00    +0.185 C 
ENDROOT
BRANCH  12   6
ATOM      6  N   UNL     1      -3.578 -10.515  12.447  0.00  0.00    -0.306 N 
ATOM      8  N   UNL     1      -4.098 -10.615  14.734  0.00  0.00    -0.214 NA
ATOM      9  N   UNL     1      -1.808 -10.548  13.988  0.00  0.00    -0.223 NA
ATOM     16  C   UNL     1      -3.149 -10.562  13.762  0.00  0.00    +0.216 A 
ATOM     19  C   UNL     1      -3.645 -10.659  16.004  0.00  0.00    +0.076 A 
ATOM     21  C   UNL     1      -1.425 -10.594  15.281  0.00  0.00    +0.116 A 
ATOM     22  C   UNL     1      -2.308 -10.651  16.340  0.00  0.00    +0.048 A 
ATOM     32  H   UNL     1      -2.861 -10.528  11.731  0.00  0.00    +0.149 HD
BRANCH  19  23
ATOM     23  C   UNL     1      -4.670 -10.717  17.019  0.00  0.00    +0.001 A 
ATOM     26  C   UNL     1      -5.901 -10.091  16.809  0.00  0.00    +0.013 A 
ATOM     27  C   UNL     1      -4.434 -11.399  18.215  0.00  0.00    +0.013 A 
ATOM     28  C   UNL     1      -6.890 -10.146  17.790  0.00  0.00    +0.046 A 
ATOM     29  C   UNL     1      -5.424 -11.455  19.195  0.00  0.00    +0.046 A 
ATOM     30  C   UNL     1      -6.652 -10.828  18.984  0.00  0.00    +0.120 A 
BRANCH  30   5
ATOM      5  O   UNL     1      -7.617 -10.881  19.942  0.00  0.00    -0.495 OA
ATOM     31  C   UNL     1      -8.956 -11.108  19.503  0.00  0.00    +0.277 C 
ENDBRANCH  30   5
ENDBRANCH  19  23
ENDBRANCH  12   6
BRANCH  13   7
ATOM      4  O   UNL     1      -6.445  -9.545   5.957  0.00  0.00    -0.270 OA
ATOM      7  N   UNL     1      -5.493 -10.846   7.595  0.00  0.00    -0.303 N 
ATOM     17  C   UNL     1      -5.762 -10.524   6.265  0.00  0.00    +0.251 C 
ATOM     33  H   UNL     1      -4.885 -11.624   7.825  0.00  0.00    +0.149 HD
BRANCH  17  18
ATOM      1  S   UNL     1      -6.047 -11.741   3.860  0.00  0.00    -0.092 S 
ATOM     18  C   UNL     1      -5.155 -11.405   5.257  0.00  0.00    +0.074 A 
ATOM     20  C   UNL     1      -3.940 -11.994   5.307  0.00  0.00    +0.021 A 
ATOM     24  C   UNL     1      -3.711 -12.774   4.136  0.00  0.00    +0.008 A 
ATOM     25  C   UNL     1      -4.778 -12.724   3.265  0.00  0.00    +0.046 A 
ENDBRANCH  17  18
ENDBRANCH  13   7
TORSDOF 5
ENDMDL
MODEL 2
REMARK VINA RESULT:      -7.1     28.259     31.866
REMARK  Name = 11912821
REMARK  6 active torsions:
REMARK  status: ('A' for Active; 'I' for Inactive)
REMARK    1  A    between atoms: O_5  and  C_30
REMARK    2  A    between atoms: O_5  and  C_31
REMARK    3  A    between atoms: N_6  and  C_12
REMARK    4  A    between atoms: N_7  and  C_13
REMARK    5  A    between atoms: C_17  and  C_18
REMARK    6  A    between atoms: C_19  and  C_23
REMARK                            x       y       z     vdW  Elec       q    Type
REMARK                         _______ _______ _______ _____ _____    ______ ____
ROOT
ATOM      2  O   UNL     1      10.927  13.205  24.018  0.00  0.00    -0.370 OA
ATOM      3  O   UNL     1      13.871  12.297  23.532  0.00  0.00    -0.370 OA
ATOM     10  C   UNL     1      12.649  11.582  23.776  0.00  0.00    +0.171 C 
ATOM     11  C   UNL     1      11.843  12.395  24.771  0.00  0.00    +0.171 C 
ATOM     12  C   UNL     1      11.793  11.568  22.531  0.00  0.00    +0.130 C 
ATOM     13  C   UNL     1      12.873  13.263  25.457  0.00  0.00    +0.130 C 
ATOM     14  C   UNL     1      11.050  12.888  22.624  0.00  0.00    +0.185 C 
ATOM     15  C   UNL     1      13.906  13.468  24.362  0.00  0.00    +0.185 C 
ENDROOT
BRANCH  12   6
ATOM      6  N   UNL     1      10.860  10.464  22.584  0.00  0.00    -0.306 N 
ATOM      8  N   UNL     1      12.453   8.936  21.786  0.00  0.00    -0.214 NA
ATOM      9  N   UNL     1      10.213   8.223  22.318  0.00  0.00    -0.223 NA
ATOM     16  C   UNL     1      11.186   9.169  22.219  0.00  0.00    +0.216 A 
ATOM     19  C   UNL     1      12.736   7.664  21.439  0.00  0.00    +0.076 A 
ATOM     21  C   UNL     1      10.565   6.973  21.954  0.00  0.00    +0.116 A 
ATOM     22  C   UNL     1      11.824   6.631  21.503  0.00  0.00    +0.048 A 
ATOM     32  H   UNL     1       9.929  10.615  22.955  0.00  0.00    +0.149 HD
BRANCH  19  23
ATOM     23  C   UNL     1      14.087   7.438  20.983  0.00  0.00    +0.001 A 
ATOM     26  C   UNL     1      14.319   6.838  19.744  0.00  0.00    +0.013 A 
ATOM     27  C   UNL     1      15.168   7.819  21.782  0.00  0.00    +0.013 A 
ATOM     28  C   UNL     1      15.624   6.620  19.305  0.00  0.00    +0.046 A 
ATOM     29  C   UNL     1      16.474   7.601  21.342  0.00  0.00    +0.046 A 
ATOM     30  C   UNL     1      16.702   7.001  20.105  0.00  0.00    +0.120 A 
BRANCH  30   5
ATOM      5  O   UNL     1      17.976   6.786  19.677  0.00  0.00    -0.495 OA
ATOM     31  C   UNL     1      18.805   5.961  20.494  0.00  0.00    +0.277 C 
ENDBRANCH  30   5
ENDBRANCH  19  23
ENDBRANCH  12   6
BRANCH  13   7
ATOM      4  O   UNL     1      14.654  14.408  27.320  0.00  0.00    -0.270 OA
ATOM      7  N   UNL     1      13.448  12.591  26.597  0.00  0.00    -0.303 N 
ATOM     17  C   UNL     1      14.323  13.231  27.473  0.00  0.00    +0.251 C 
ATOM     33  H   UNL     1      13.147  11.639  26.772  0.00  0.00    +0.149 HD
BRANCH  17  18
ATOM      1  S   UNL     1      15.853  11.142  28.277  0.00  0.00    -0.092 S 
ATOM     18  C   UNL     1      14.799  12.424  28.607  0.00  0.00    +0.074 A 
ATOM     20  C   UNL     1      14.495  12.584  29.913  0.00  0.00    +0.021 A 
ATOM     24  C   UNL     1      15.155  11.602  30.707  0.00  0.00    +0.008 A 
ATOM     25  C   UNL     1      15.927  10.753  29.943  0.00  0.00    +0.046 A 
ENDBRANCH  17  18
ENDBRANCH  13   7
TORSDOF 5
ENDMDL
MODEL 3
REMARK VINA RESULT:      -6.8      7.367      8.491
REMARK  Name = 11912821
REMARK  6 active torsions:
REMARK  status: ('A' for Active; 'I' for Inactive)
REMARK    1  A    between atoms: O_5  and  C_30
REMARK    2  A    between atoms: O_5  and  C_31
REMARK    3  A    between atoms: N_6  and  C_12
REMARK    4  A    between atoms: N_7  and  C_13
REMARK    5  A    between atoms: C_17  and  C_18
REMARK    6  A    between atoms: C_19  and  C_23
REMARK                            x       y       z     vdW  Elec       q    Type
REMARK                         _______ _______ _______ _____ _____    ______ ____
ROOT
ATOM      2  O   UNL     1     -11.001  -5.995  16.511  0.00  0.00    -0.370 OA
ATOM      3  O   UNL     1     -12.455  -7.956  14.568  0.00  0.00    -0.370 OA
ATOM     10  C   UNL     1     -11.077  -7.589  14.746  0.00  0.00    +0.171 C 
ATOM     11  C   UNL     1     -11.045  -6.110  15.080  0.00  0.00    +0.171 C 
ATOM     12  C   UNL     1     -10.512  -8.258  15.978  0.00  0.00    +0.130 C 
ATOM     13  C   UNL     1     -12.359  -5.584  14.550  0.00  0.00    +0.130 C 
ATOM     14  C   UNL     1     -10.918  -7.307  17.089  0.00  0.00    +0.185 C 
ATOM     15  C   UNL     1     -13.276  -6.785  14.704  0.00  0.00    +0.185 C 
ENDROOT
BRANCH  12   6
ATOM      6  N   UNL     1      -9.071  -8.331  15.884  0.00  0.00    -0.306 N 
ATOM      8  N   UNL     1      -8.942 -10.032  17.496  0.00  0.00    -0.214 NA
ATOM      9  N   UNL     1      -6.952  -9.172  16.444  0.00  0.00    -0.223 NA
ATOM     16  C   UNL     1      -8.299  -9.205  16.630  0.00  0.00    +0.216 A 
ATOM     19  C   UNL     1      -8.160 -10.870  18.207  0.00  0.00    +0.076 A 
ATOM     21  C   UNL     1      -6.231 -10.036  17.187  0.00  0.00    +0.116 A 
ATOM     22  C   UNL     1      -6.786 -10.917  18.093  0.00  0.00    +0.048 A 
ATOM     32  H   UNL     1      -8.585  -7.756  15.204  0.00  0.00    +0.149 HD
BRANCH  19  23
ATOM     23  C   UNL     1      -8.864 -11.740  19.119  0.00  0.00    +0.001 A 
ATOM     26  C   UNL     1      -8.278 -12.936  19.540  0.00  0.00    +0.013 A 
ATOM     27  C   UNL     1     -10.134 -11.389  19.582  0.00  0.00    +0.013 A 
ATOM     28  C   UNL     1      -8.958 -13.776  20.420  0.00  0.00    +0.046 A 
ATOM     29  C   UNL     1     -10.814 -12.230  20.464  0.00  0.00    +0.046 A 
ATOM     30  C   UNL     1     -10.227 -13.424  20.881  0.00  0.00    +0.120 A 
BRANCH  30   5
ATOM      5  O   UNL     1     -10.891 -14.245  21.740  0.00  0.00    -0.495 OA
ATOM     31  C   UNL     1     -12.119 -13.761  22.281  0.00  0.00    +0.277 C 
ENDBRANCH  30   5
ENDBRANCH  19  23
ENDBRANCH  12   6
BRANCH  13   7
ATOM      4  O   UNL     1     -13.843  -3.544  13.289  0.00  0.00    -0.270 OA
ATOM      7  N   UNL     1     -12.244  -5.190  13.166  0.00  0.00    -0.303 N 
ATOM     17  C   UNL     1     -13.018  -4.167  12.619  0.00  0.00    +0.251 C 
ATOM     33  H   UNL     1     -11.533  -5.653  12.612  0.00  0.00    +0.149 HD
BRANCH  17  18
ATOM      1  S   UNL     1     -14.072  -3.360  10.256  0.00  0.00    -0.092 S 
ATOM     18  C   UNL     1     -12.763  -3.859  11.204  0.00  0.00    +0.074 A 
ATOM     20  C   UNL     1     -11.583  -3.924  10.549  0.00  0.00    +0.021 A 
ATOM     24  C   UNL     1     -11.744  -3.546   9.184  0.00  0.00    +0.008 A 
ATOM     25  C   UNL     1     -13.049  -3.216   8.890  0.00  0.00    +0.046 A 
ENDBRANCH  17  18
ENDBRANCH  13   7
TORSDOF 5
ENDMDL
MODEL 4
REMARK VINA RESULT:      -6.7     25.648     27.302
REMARK  Name = 11912821
REMARK  6 active torsions:
REMARK  status: ('A' for Active; 'I' for Inactive)
REMARK    1  A    between atoms: O_5  and  C_30
REMARK    2  A    between atoms: O_5  and  C_31
REMARK    3  A    between atoms: N_6  and  C_12
REMARK    4  A    between atoms: N_7  and  C_13
REMARK    5  A    between atoms: C_17  and  C_18
REMARK    6  A    between atoms: C_19  and  C_23
REMARK                            x       y       z     vdW  Elec       q    Type
REMARK                         _______ _______ _______ _____ _____    ______ ____
ROOT
ATOM      2  O   UNL     1      11.593  13.760  10.023  0.00  0.00    -0.370 OA
ATOM      3  O   UNL     1      10.121  11.823  11.976  0.00  0.00    -0.370 OA
ATOM     10  C   UNL     1      11.499  11.979  11.598  0.00  0.00    +0.171 C 
ATOM     11  C   UNL     1      11.524  12.328  10.123  0.00  0.00    +0.171 C 
ATOM     12  C   UNL     1      12.092  13.193  12.275  0.00  0.00    +0.130 C 
ATOM     13  C   UNL     1      10.195  11.828   9.604  0.00  0.00    +0.130 C 
ATOM     14  C   UNL     1      11.698  14.321  11.340  0.00  0.00    +0.185 C 
ATOM     15  C   UNL     1       9.293  11.986  10.815  0.00  0.00    +0.185 C 
ENDROOT
BRANCH  12   6
ATOM      6  N   UNL     1      13.533  13.072  12.334  0.00  0.00    -0.306 N 
ATOM      8  N   UNL     1      13.445  11.619  14.175  0.00  0.00    -0.214 NA
ATOM      9  N   UNL     1      15.556  12.269  13.211  0.00  0.00    -0.223 NA
ATOM     16  C   UNL     1      14.198  12.296  13.268  0.00  0.00    +0.216 A 
ATOM     19  C   UNL     1      14.126  10.874  15.071  0.00  0.00    +0.076 A 
ATOM     21  C   UNL     1      16.171  11.504  14.136  0.00  0.00    +0.116 A 
ATOM     22  C   UNL     1      15.501  10.777  15.099  0.00  0.00    +0.048 A 
ATOM     32  H   UNL     1      14.101  13.530  11.630  0.00  0.00    +0.149 HD
BRANCH  19  23
ATOM     23  C   UNL     1      13.307  10.162  16.024  0.00  0.00    +0.001 A 
ATOM     26  C   UNL     1      12.114   9.565  15.614  0.00  0.00    +0.013 A 
ATOM     27  C   UNL     1      13.707  10.071  17.359  0.00  0.00    +0.013 A 
ATOM     28  C   UNL     1      11.324   8.878  16.535  0.00  0.00    +0.046 A 
ATOM     29  C   UNL     1      12.916   9.383  18.280  0.00  0.00    +0.046 A 
ATOM     30  C   UNL     1      11.724   8.788  17.868  0.00  0.00    +0.120 A 
BRANCH  30   5
ATOM      5  O   UNL     1      10.952   8.119  18.768  0.00  0.00    -0.495 OA
ATOM     31  C   UNL     1      11.028   8.540  20.129  0.00  0.00    +0.277 C 
ENDBRANCH  30   5
ENDBRANCH  19  23
ENDBRANCH  12   6
BRANCH  13   7
ATOM      4  O   UNL     1       9.048  10.726   7.275  0.00  0.00    -0.270 OA
ATOM      7  N   UNL     1      10.281  10.447   9.194  0.00  0.00    -0.303 N 
ATOM     17  C   UNL     1       9.683   9.981   8.023  0.00  0.00    +0.251 C 
ATOM     33  H   UNL     1      10.844   9.829   9.767  0.00  0.00    +0.149 HD
BRANCH  17  18
ATOM      1  S   UNL     1      11.326   8.107   6.958  0.00  0.00    -0.092 S 
ATOM     18  C   UNL     1       9.886   8.556   7.723  0.00  0.00    +0.074 A 
ATOM     20  C   UNL     1       9.045   7.533   7.992  0.00  0.00    +0.021 A 
ATOM     24  C   UNL     1       9.599   6.298   7.548  0.00  0.00    +0.008 A 
ATOM     25  C   UNL     1      10.837   6.465   6.966  0.00  0.00    +0.046 A 
ENDBRANCH  17  18
ENDBRANCH  13   7
TORSDOF 5
ENDMDL
MODEL 5
REMARK VINA RESULT:      -6.6      5.970     10.234
REMARK  Name = 11912821
REMARK  6 active torsions:
REMARK  status: ('A' for Active; 'I' for Inactive)
REMARK    1  A    between atoms: O_5  and  C_30
REMARK    2  A    between atoms: O_5  and  C_31
REMARK    3  A    between atoms: N_6  and  C_12
REMARK    4  A    between atoms: N_7  and  C_13
REMARK    5  A    between atoms: C_17  and  C_18
REMARK    6  A    between atoms: C_19  and  C_23
REMARK                            x       y       z     vdW  Elec       q    Type
REMARK                         _______ _______ _______ _____ _____    ______ ____
ROOT
ATOM      2  O   UNL     1     -10.135 -10.207  15.898  0.00  0.00    -0.370 OA
ATOM      3  O   UNL     1     -10.290  -7.110  16.247  0.00  0.00    -0.370 OA
ATOM     10  C   UNL     1     -10.076  -8.194  17.166  0.00  0.00    +0.171 C 
ATOM     11  C   UNL     1     -10.950  -9.348  16.712  0.00  0.00    +0.171 C 
ATOM     12  C   UNL     1      -8.667  -8.723  17.033  0.00  0.00    +0.130 C 
ATOM     13  C   UNL     1     -12.021  -8.690  15.874  0.00  0.00    +0.130 C 
ATOM     14  C   UNL     1      -8.789  -9.708  15.885  0.00  0.00    +0.185 C 
ATOM     15  C   UNL     1     -11.290  -7.494  15.291  0.00  0.00    +0.185 C 
ENDROOT
BRANCH  12   6
ATOM      6  N   UNL     1      -8.281  -9.412  18.245  0.00  0.00    -0.306 N 
ATOM      8  N   UNL     1      -6.223 -10.083  17.338  0.00  0.00    -0.214 NA
ATOM      9  N   UNL     1      -6.838 -10.686  19.588  0.00  0.00    -0.223 NA
ATOM     16  C   UNL     1      -7.078 -10.080  18.395  0.00  0.00    +0.216 A 
ATOM     19  C   UNL     1      -5.060 -10.743  17.518  0.00  0.00    +0.076 A 
ATOM     21  C   UNL     1      -5.657 -11.327  19.699  0.00  0.00    +0.116 A 
ATOM     22  C   UNL     1      -4.719 -11.389  18.688  0.00  0.00    +0.048 A 
ATOM     32  H   UNL     1      -8.887  -9.372  19.057  0.00  0.00    +0.149 HD
BRANCH  19  23
ATOM     23  C   UNL     1      -4.167 -10.733  16.384  0.00  0.00    +0.001 A 
ATOM     26  C   UNL     1      -2.786 -10.800  16.579  0.00  0.00    +0.013 A 
ATOM     27  C   UNL     1      -4.681 -10.653  15.088  0.00  0.00    +0.013 A 
ATOM     28  C   UNL     1      -1.923 -10.790  15.484  0.00  0.00    +0.046 A 
ATOM     29  C   UNL     1      -3.818 -10.643  13.992  0.00  0.00    +0.046 A 
ATOM     30  C   UNL     1      -2.439 -10.710  14.190  0.00  0.00    +0.120 A 
BRANCH  30   5
ATOM      5  O   UNL     1      -1.597 -10.698  13.121  0.00  0.00    -0.495 OA
ATOM     31  C   UNL     1      -2.162 -10.364  11.853  0.00  0.00    +0.277 C 
ENDBRANCH  30   5
ENDBRANCH  19  23
ENDBRANCH  12   6
BRANCH  13   7
ATOM      4  O   UNL     1     -14.729  -8.702  15.085  0.00  0.00    -0.270 OA
ATOM      7  N   UNL     1     -13.138  -8.273  16.687  0.00  0.00    -0.303 N 
ATOM     17  C   UNL     1     -14.452  -8.310  16.220  0.00  0.00    +0.251 C 
ATOM     33  H   UNL     1     -12.938  -7.999  17.642  0.00  0.00    +0.149 HD
BRANCH  17  18
ATOM      1  S   UNL     1     -15.823  -8.906  18.481  0.00  0.00    -0.092 S 
ATOM     18  C   UNL     1     -15.484  -7.884  17.177  0.00  0.00    +0.074 A 
ATOM     20  C   UNL     1     -16.214  -6.747  17.145  0.00  0.00    +0.021 A 
ATOM     24  C   UNL     1     -17.112  -6.696  18.250  0.00  0.00    +0.008 A 
ATOM     25  C   UNL     1     -17.004  -7.808  19.056  0.00  0.00    +0.046 A 
ENDBRANCH  17  18
ENDBRANCH  13   7
TORSDOF 5
ENDMDL
MODEL 6
REMARK VINA RESULT:      -6.5     28.447     32.117
REMARK  Name = 11912821
REMARK  6 active torsions:
REMARK  status: ('A' for Active; 'I' for Inactive)
REMARK    1  A    between atoms: O_5  and  C_30
REMARK    2  A    between atoms: O_5  and  C_31
REMARK    3  A    between atoms: N_6  and  C_12
REMARK    4  A    between atoms: N_7  and  C_13
REMARK    5  A    between atoms: C_17  and  C_18
REMARK    6  A    between atoms: C_19  and  C_23
REMARK                            x       y       z     vdW  Elec       q    Type
REMARK                         _______ _______ _______ _____ _____    ______ ____
ROOT
ATOM      2  O   UNL     1      10.706  12.439  24.573  0.00  0.00    -0.370 OA
ATOM      3  O   UNL     1      13.699  12.809  23.775  0.00  0.00    -0.370 OA
ATOM     10  C   UNL     1      12.909  11.660  24.123  0.00  0.00    +0.171 C 
ATOM     11  C   UNL     1      11.945  12.091  25.212  0.00  0.00    +0.171 C 
ATOM     12  C   UNL     1      12.013  11.272  22.969  0.00  0.00    +0.130 C 
ATOM     13  C   UNL     1      12.591  13.318  25.812  0.00  0.00    +0.130 C 
ATOM     14  C   UNL     1      10.808  12.173  23.166  0.00  0.00    +0.185 C 
ATOM     15  C   UNL     1      13.334  13.907  24.625  0.00  0.00    +0.185 C 
ENDROOT
BRANCH  12   6
ATOM      6  N   UNL     1      11.625   9.884  23.089  0.00  0.00    -0.306 N 
ATOM      8  N   UNL     1      12.115   9.438  20.838  0.00  0.00    -0.214 NA
ATOM      9  N   UNL     1      11.284   7.704  22.289  0.00  0.00    -0.223 NA
ATOM     16  C   UNL     1      11.677   8.982  22.041  0.00  0.00    +0.216 A 
ATOM     19  C   UNL     1      12.153   8.533  19.839  0.00  0.00    +0.076 A 
ATOM     21  C   UNL     1      11.347   6.852  21.246  0.00  0.00    +0.116 A 
ATOM     22  C   UNL     1      11.778   7.214  19.985  0.00  0.00    +0.048 A 
ATOM     32  H   UNL     1      11.347   9.520  23.994  0.00  0.00    +0.149 HD
BRANCH  19  23
ATOM     23  C   UNL     1      12.623   9.039  18.570  0.00  0.00    +0.001 A 
ATOM     26  C   UNL     1      13.796   9.793  18.508  0.00  0.00    +0.013 A 
ATOM     27  C   UNL     1      11.904   8.776  17.402  0.00  0.00    +0.013 A 
ATOM     28  C   UNL     1      14.249  10.282  17.284  0.00  0.00    +0.046 A 
ATOM     29  C   UNL     1      12.359   9.264  16.177  0.00  0.00    +0.046 A 
ATOM     30  C   UNL     1      13.530  10.018  16.118  0.00  0.00    +0.120 A 
BRANCH  30   5
ATOM      5  O   UNL     1      13.972  10.496  14.922  0.00  0.00    -0.495 OA
ATOM     31  C   UNL     1      15.365  10.784  14.813  0.00  0.00    +0.277 C 
ENDBRANCH  30   5
ENDBRANCH  19  23
ENDBRANCH  12   6
BRANCH  13   7
ATOM      4  O   UNL     1      13.268  14.944  28.015  0.00  0.00    -0.270 OA
ATOM      7  N   UNL     1      13.502  12.963  26.873  0.00  0.00    -0.303 N 
ATOM     17  C   UNL     1      13.783  13.828  27.930  0.00  0.00    +0.251 C 
ATOM     33  H   UNL     1      13.895  12.029  26.852  0.00  0.00    +0.149 HD
BRANCH  17  18
ATOM      1  S   UNL     1      14.874  14.194  30.385  0.00  0.00    -0.092 S 
ATOM     18  C   UNL     1      14.706  13.311  28.952  0.00  0.00    +0.074 A 
ATOM     20  C   UNL     1      15.456  12.189  28.889  0.00  0.00    +0.021 A 
ATOM     24  C   UNL     1      16.222  12.028  30.079  0.00  0.00    +0.008 A 
ATOM     25  C   UNL     1      16.001  13.049  30.978  0.00  0.00    +0.046 A 
ENDBRANCH  17  18
ENDBRANCH  13   7
TORSDOF 5
ENDMDL
MODEL 7
REMARK VINA RESULT:      -6.4      3.579     10.889
REMARK  Name = 11912821
REMARK  6 active torsions:
REMARK  status: ('A' for Active; 'I' for Inactive)
REMARK    1  A    between atoms: O_5  and  C_30
REMARK    2  A    between atoms: O_5  and  C_31
REMARK    3  A    between atoms: N_6  and  C_12
REMARK    4  A    between atoms: N_7  and  C_13
REMARK    5  A    between atoms: C_17  and  C_18
REMARK    6  A    between atoms: C_19  and  C_23
REMARK                            x       y       z     vdW  Elec       q    Type
REMARK                         _______ _______ _______ _____ _____    ______ ____
ROOT
ATOM      2  O   UNL     1      -3.568  -9.110  10.421  0.00  0.00    -0.370 OA
ATOM      3  O   UNL     1      -5.240 -11.707  10.855  0.00  0.00    -0.370 OA
ATOM     10  C   UNL     1      -5.572 -10.309  10.871  0.00  0.00    +0.171 C 
ATOM     11  C   UNL     1      -4.402  -9.575  11.494  0.00  0.00    +0.171 C 
ATOM     12  C   UNL     1      -5.636  -9.772   9.460  0.00  0.00    +0.130 C 
ATOM     13  C   UNL     1      -3.685 -10.638  12.295  0.00  0.00    +0.130 C 
ATOM     14  C   UNL     1      -4.186  -9.433   9.167  0.00  0.00    +0.185 C 
ATOM     15  C   UNL     1      -3.966 -11.895  11.491  0.00  0.00    +0.185 C 
ENDROOT
BRANCH  12   6
ATOM      6  N   UNL     1      -6.447  -8.575   9.423  0.00  0.00    -0.306 N 
ATOM      8  N   UNL     1      -7.079  -8.939   7.192  0.00  0.00    -0.214 NA
ATOM      9  N   UNL     1      -7.882  -7.019   8.408  0.00  0.00    -0.223 NA
ATOM     16  C   UNL     1      -7.158  -8.166   8.308  0.00  0.00    +0.216 A 
ATOM     19  C   UNL     1      -7.783  -8.511   6.124  0.00  0.00    +0.076 A 
ATOM     21  C   UNL     1      -8.562  -6.651   7.302  0.00  0.00    +0.116 A 
ATOM     22  C   UNL     1      -8.550  -7.364   6.121  0.00  0.00    +0.048 A 
ATOM     32  H   UNL     1      -6.555  -8.019  10.264  0.00  0.00    +0.149 HD
BRANCH  19  23
ATOM     23  C   UNL     1      -7.686  -9.347   4.951  0.00  0.00    +0.001 A 
ATOM     26  C   UNL     1      -8.311  -8.963   3.763  0.00  0.00    +0.013 A 
ATOM     27  C   UNL     1      -6.968 -10.544   5.001  0.00  0.00    +0.013 A 
ATOM     28  C   UNL     1      -8.218  -9.771   2.630  0.00  0.00    +0.046 A 
ATOM     29  C   UNL     1      -6.874 -11.352   3.868  0.00  0.00    +0.046 A 
ATOM     30  C   UNL     1      -7.500 -10.966   2.683  0.00  0.00    +0.120 A 
BRANCH  30   5
ATOM      5  O   UNL     1      -7.411 -11.755   1.578  0.00  0.00    -0.495 OA
ATOM     31  C   UNL     1      -8.479 -11.677   0.635  0.00  0.00    +0.277 C 
ENDBRANCH  30   5
ENDBRANCH  19  23
ENDBRANCH  12   6
BRANCH  13   7
ATOM      4  O   UNL     1      -2.211 -10.426  14.690  0.00  0.00    -0.270 OA
ATOM      7  N   UNL     1      -4.225 -10.740  13.629  0.00  0.00    -0.303 N 
ATOM     17  C   UNL     1      -3.425 -10.623  14.765  0.00  0.00    +0.251 C 
ATOM     33  H   UNL     1      -5.229 -10.848  13.714  0.00  0.00    +0.149 HD
BRANCH  17  18
ATOM      1  S   UNL     1      -5.637  -9.970  16.189  0.00  0.00    -0.092 S 
ATOM     18  C   UNL     1      -4.126 -10.717  16.055  0.00  0.00    +0.074 A 
ATOM     20  C   UNL     1      -3.703 -11.345  17.175  0.00  0.00    +0.021 A 
ATOM     24  C   UNL     1      -4.665 -11.212  18.217  0.00  0.00    +0.008 A 
ATOM     25  C   UNL     1      -5.766 -10.487  17.817  0.00  0.00    +0.046 A 
ENDBRANCH  17  18
ENDBRANCH  13   7
TORSDOF 5
ENDMDL
MODEL 8
REMARK VINA RESULT:      -6.4     23.109     25.562
REMARK  Name = 11912821
REMARK  6 active torsions:
REMARK  status: ('A' for Active; 'I' for Inactive)
REMARK    1  A    between atoms: O_5  and  C_30
REMARK    2  A    between atoms: O_5  and  C_31
REMARK    3  A    between atoms: N_6  and  C_12
REMARK    4  A    between atoms: N_7  and  C_13
REMARK    5  A    between atoms: C_17  and  C_18
REMARK    6  A    between atoms: C_19  and  C_23
REMARK                            x       y       z     vdW  Elec       q    Type
REMARK                         _______ _______ _______ _____ _____    ______ ____
ROOT
ATOM      2  O   UNL     1       7.858   6.588  -6.106  0.00  0.00    -0.370 OA
ATOM      3  O   UNL     1       6.821   6.252  -3.183  0.00  0.00    -0.370 OA
ATOM     10  C   UNL     1       7.592   5.410  -4.056  0.00  0.00    +0.171 C 
ATOM     11  C   UNL     1       7.045   5.596  -5.459  0.00  0.00    +0.171 C 
ATOM     12  C   UNL     1       9.015   5.912  -4.145  0.00  0.00    +0.130 C 
ATOM     13  C   UNL     1       5.645   6.122  -5.241  0.00  0.00    +0.130 C 
ATOM     14  C   UNL     1       8.927   6.971  -5.228  0.00  0.00    +0.185 C 
ATOM     15  C   UNL     1       5.788   6.897  -3.943  0.00  0.00    +0.185 C 
ENDROOT
BRANCH  12   6
ATOM      6  N   UNL     1       9.892   4.840  -4.563  0.00  0.00    -0.306 N 
ATOM      8  N   UNL     1      10.662   4.471  -2.377  0.00  0.00    -0.214 NA
ATOM      9  N   UNL     1      11.478   3.145  -4.217  0.00  0.00    -0.223 NA
ATOM     16  C   UNL     1      10.701   4.131  -3.692  0.00  0.00    +0.216 A 
ATOM     19  C   UNL     1      11.463   3.759  -1.557  0.00  0.00    +0.076 A 
ATOM     21  C   UNL     1      12.254   2.475  -3.340  0.00  0.00    +0.116 A 
ATOM     22  C   UNL     1      12.288   2.740  -1.986  0.00  0.00    +0.048 A 
ATOM     32  H   UNL     1       9.890   4.543  -5.532  0.00  0.00    +0.149 HD
BRANCH  19  23
ATOM     23  C   UNL     1      11.405   4.136  -0.164  0.00  0.00    +0.001 A 
ATOM     26  C   UNL     1      12.419   3.742   0.711  0.00  0.00    +0.013 A 
ATOM     27  C   UNL     1      10.333   4.894   0.312  0.00  0.00    +0.013 A 
ATOM     28  C   UNL     1      12.362   4.105   2.056  0.00  0.00    +0.046 A 
ATOM     29  C   UNL     1      10.277   5.258   1.657  0.00  0.00    +0.046 A 
ATOM     30  C   UNL     1      11.291   4.862   2.530  0.00  0.00    +0.120 A 
BRANCH  30   5
ATOM      5  O   UNL     1      11.234   5.216   3.843  0.00  0.00    -0.495 OA
ATOM     31  C   UNL     1      10.122   4.735   4.597  0.00  0.00    +0.277 C 
ENDBRANCH  30   5
ENDBRANCH  19  23
ENDBRANCH  12   6
BRANCH  13   7
ATOM      4  O   UNL     1       2.954   6.176  -6.084  0.00  0.00    -0.270 OA
ATOM      7  N   UNL     1       4.697   5.043  -5.103  0.00  0.00    -0.303 N 
ATOM     17  C   UNL     1       3.380   5.151  -5.548  0.00  0.00    +0.251 C 
ATOM     33  H   UNL     1       5.041   4.173  -4.714  0.00  0.00    +0.149 HD
BRANCH  17  18
ATOM      1  S   UNL     1       1.081   4.132  -4.535  0.00  0.00    -0.092 S 
ATOM     18  C   UNL     1       2.543   3.955  -5.367  0.00  0.00    +0.074 A 
ATOM     20  C   UNL     1       2.801   2.700  -5.796  0.00  0.00    +0.021 A 
ATOM     24  C   UNL     1       1.746   1.816  -5.426  0.00  0.00    +0.008 A 
ATOM     25  C   UNL     1       0.746   2.465  -4.734  0.00  0.00    +0.046 A 
ENDBRANCH  17  18
ENDBRANCH  13   7
TORSDOF 5
ENDMDL
MODEL 9
REMARK VINA RESULT:      -6.4      3.101     10.859
REMARK  Name = 11912821
REMARK  6 active torsions:
REMARK  status: ('A' for Active; 'I' for Inactive)
REMARK    1  A    between atoms: O_5  and  C_30
REMARK    2  A    between atoms: O_5  and  C_31
REMARK    3  A    between atoms: N_6  and  C_12
REMARK    4  A    between atoms: N_7  and  C_13
REMARK    5  A    between atoms: C_17  and  C_18
REMARK    6  A    between atoms: C_19  and  C_23
REMARK                            x       y       z     vdW  Elec       q    Type
REMARK                         _______ _______ _______ _____ _____    ______ ____
ROOT
ATOM      2  O   UNL     1      -3.286  -9.602  11.257  0.00  0.00    -0.370 OA
ATOM      3  O   UNL     1      -4.532 -12.371  11.970  0.00  0.00    -0.370 OA
ATOM     10  C   UNL     1      -5.094 -11.123  11.533  0.00  0.00    +0.171 C 
ATOM     11  C   UNL     1      -4.296 -10.015  12.192  0.00  0.00    +0.171 C 
ATOM     12  C   UNL     1      -4.847 -10.928  10.055  0.00  0.00    +0.130 C 
ATOM     13  C   UNL     1      -3.662 -10.681  13.391  0.00  0.00    +0.130 C 
ATOM     14  C   UNL     1      -3.457 -10.321  10.027  0.00  0.00    +0.185 C 
ATOM     15  C   UNL     1      -3.479 -12.110  12.911  0.00  0.00    +0.185 C 
ENDROOT
BRANCH  12   6
ATOM      6  N   UNL     1      -5.810  -9.995   9.512  0.00  0.00    -0.306 N 
ATOM      8  N   UNL     1      -5.450 -10.733   7.313  0.00  0.00    -0.214 NA
ATOM      9  N   UNL     1      -7.035  -8.980   7.785  0.00  0.00    -0.223 NA
ATOM     16  C   UNL     1      -6.107  -9.901   8.163  0.00  0.00    +0.216 A 
ATOM     19  C   UNL     1      -5.763 -10.614   6.007  0.00  0.00    +0.076 A 
ATOM     21  C   UNL     1      -7.299  -8.915   6.464  0.00  0.00    +0.116 A 
ATOM     22  C   UNL     1      -6.689  -9.715   5.520  0.00  0.00    +0.048 A 
ATOM     32  H   UNL     1      -6.345  -9.406  10.141  0.00  0.00    +0.149 HD
BRANCH  19  23
ATOM     23  C   UNL     1      -5.054 -11.508   5.122  0.00  0.00    +0.001 A 
ATOM     26  C   UNL     1      -5.608 -11.859   3.889  0.00  0.00    +0.013 A 
ATOM     27  C   UNL     1      -3.814 -12.027   5.498  0.00  0.00    +0.013 A 
ATOM     28  C   UNL     1      -4.923 -12.723   3.036  0.00  0.00    +0.046 A 
ATOM     29  C   UNL     1      -3.129 -12.891   4.644  0.00  0.00    +0.046 A 
ATOM     30  C   UNL     1      -3.684 -13.240   3.413  0.00  0.00    +0.120 A 
BRANCH  30   5
ATOM      5  O   UNL     1      -3.016 -14.085   2.581  0.00  0.00    -0.495 OA
ATOM     31  C   UNL     1      -2.907 -15.448   2.989  0.00  0.00    +0.277 C 
ENDBRANCH  30   5
ENDBRANCH  19  23
ENDBRANCH  12   6
BRANCH  13   7
ATOM      4  O   UNL     1      -2.831 -10.560  16.084  0.00  0.00    -0.270 OA
ATOM      7  N   UNL     1      -4.533 -10.625  14.541  0.00  0.00    -0.303 N 
ATOM     17  C   UNL     1      -4.039 -10.566  15.844  0.00  0.00    +0.251 C 
ATOM     33  H   UNL     1      -5.529 -10.575  14.364  0.00  0.00    +0.149 HD
BRANCH  17  18
ATOM      1  S   UNL     1      -6.528  -9.745  16.537  0.00  0.00    -0.092 S 
ATOM     18  C   UNL     1      -5.050 -10.480  16.908  0.00  0.00    +0.074 A 
ATOM     20  C   UNL     1      -4.945 -10.928  18.179  0.00  0.00    +0.021 A 
ATOM     24  C   UNL     1      -6.140 -10.659  18.907  0.00  0.00    +0.008 A 
ATOM     25  C   UNL     1      -7.084 -10.019  18.134  0.00  0.00    +0.046 A 
ENDBRANCH  17  18
ENDBRANCH  13   7
TORSDOF 5
ENDMDL
MODEL 10
REMARK VINA RESULT:      -6.4     21.837     23.789
REMARK  Name = 11912821
REMARK  6 active torsions:
REMARK  status: ('A' for Active; 'I' for Inactive)
REMARK    1  A    between atoms: O_5  and  C_30
REMARK    2  A    between atoms: O_5  and  C_31
REMARK    3  A    between atoms: N_6  and  C_12
REMARK    4  A    between atoms: N_7  and  C_13
REMARK    5  A    between atoms: C_17  and  C_18
REMARK    6  A    between atoms: C_19  and  C_23
REMARK                            x       y       z     vdW  Elec       q    Type
REMARK                         _______ _______ _______ _____ _____    ______ ____
ROOT
ATOM      2  O   UNL     1     -12.397  11.436  17.679  0.00  0.00    -0.370 OA
ATOM      3  O   UNL     1      -9.970   9.533  18.151  0.00  0.00    -0.370 OA
ATOM     10  C   UNL     1     -10.559  10.588  18.929  0.00  0.00    +0.171 C 
ATOM     11  C   UNL     1     -11.007  11.666  17.961  0.00  0.00    +0.171 C 
ATOM     12  C   UNL     1     -11.842  10.110  19.570  0.00  0.00    +0.130 C 
ATOM     13  C   UNL     1     -10.171  11.421  16.726  0.00  0.00    +0.130 C 
ATOM     14  C   UNL     1     -12.865  10.336  18.473  0.00  0.00    +0.185 C 
ATOM     15  C   UNL     1      -9.962   9.918  16.767  0.00  0.00    +0.185 C 
ENDROOT
BRANCH  12   6
ATOM      6  N   UNL     1     -12.154  10.928  20.721  0.00  0.00    -0.306 N 
ATOM      8  N   UNL     1     -13.412   9.223  21.729  0.00  0.00    -0.214 NA
ATOM      9  N   UNL     1     -13.142  11.362  22.806  0.00  0.00    -0.223 NA
ATOM     16  C   UNL     1     -12.925  10.491  21.784  0.00  0.00    +0.216 A 
ATOM     19  C   UNL     1     -14.160   8.829  22.781  0.00  0.00    +0.076 A 
ATOM     21  C   UNL     1     -13.897  10.902  23.824  0.00  0.00    +0.116 A 
ATOM     22  C   UNL     1     -14.438   9.633  23.867  0.00  0.00    +0.048 A 
ATOM     32  H   UNL     1     -11.753  11.856  20.798  0.00  0.00    +0.149 HD
BRANCH  19  23
ATOM     23  C   UNL     1     -14.665   7.479  22.703  0.00  0.00    +0.001 A 
ATOM     26  C   UNL     1     -15.895   7.157  23.281  0.00  0.00    +0.013 A 
ATOM     27  C   UNL     1     -13.925   6.491  22.051  0.00  0.00    +0.013 A 
ATOM     28  C   UNL     1     -16.383   5.853  23.206  0.00  0.00    +0.046 A 
ATOM     29  C   UNL     1     -14.414   5.186  21.975  0.00  0.00    +0.046 A 
ATOM     30  C   UNL     1     -15.642   4.867  22.554  0.00  0.00    +0.120 A 
BRANCH  30   5
ATOM      5  O   UNL     1     -16.117   3.594  22.482  0.00  0.00    -0.495 OA
ATOM     31  C   UNL     1     -16.616   3.018  23.688  0.00  0.00    +0.277 C 
ENDBRANCH  30   5
ENDBRANCH  19  23
ENDBRANCH  12   6
BRANCH  13   7
ATOM      4  O   UNL     1      -9.293  13.416  14.936  0.00  0.00    -0.270 OA
ATOM      7  N   UNL     1      -8.913  12.125  16.798  0.00  0.00    -0.303 N 
ATOM     17  C   UNL     1      -8.554  13.102  15.870  0.00  0.00    +0.251 C 
ATOM     33  H   UNL     1      -8.314  11.920  17.590  0.00  0.00    +0.149 HD
BRANCH  17  18
ATOM      1  S   UNL     1      -6.238  13.969  14.761  0.00  0.00    -0.092 S 
ATOM     18  C   UNL     1      -7.255  13.752  16.095  0.00  0.00    +0.074 A 
ATOM     20  C   UNL     1      -6.760  14.213  17.265  0.00  0.00    +0.021 A 
ATOM     24  C   UNL     1      -5.467  14.780  17.074  0.00  0.00    +0.008 A 
ATOM     25  C   UNL     1      -5.061  14.713  15.759  0.00  0.00    +0.046 A 
ENDBRANCH  17  18
ENDBRANCH  13   7
TORSDOF 5
ENDMDL
