MODEL 1
REMARK VINA RESULT:      -6.3      0.000      0.000
REMARK  Name = 75536809
REMARK  11 active torsions:
REMARK  status: ('A' for Active; 'I' for Inactive)
REMARK    1  A    between atoms: O_2  and  C_8
REMARK    2  A    between atoms: N_4  and  C_7
REMARK    3  A    between atoms: N_4  and  C_14
REMARK    4  A    between atoms: N_5  and  C_11
REMARK    5  A    between atoms: C_9  and  C_11
REMARK    6  A    between atoms: C_12  and  C_13
REMARK    7  A    between atoms: C_12  and  C_16
REMARK    8  A    between atoms: C_12  and  C_17
REMARK    9  A    between atoms: C_12  and  C_18
REMARK   10  A    between atoms: C_13  and  C_15
REMARK   11  A    between atoms: C_14  and  C_19
REMARK                            x       y       z     vdW  Elec       q    Type
REMARK                         _______ _______ _______ _____ _____    ______ ____
ROOT
ATOM      1  O   UNL     1      11.029   8.831  20.314  0.00  0.00    -0.371 OA
ATOM      7  C   UNL     1      12.386   6.967  19.745  0.00  0.00    +0.111 C 
ATOM      8  C   UNL     1      12.076   6.919  21.230  0.00  0.00    +0.164 C 
ATOM      9  C   UNL     1      10.839   7.803  21.300  0.00  0.00    +0.165 C 
ATOM     10  C   UNL     1      12.078   8.420  19.421  0.00  0.00    +0.181 C 
ENDROOT
BRANCH   8   2
ATOM      2  O   UNL     1      11.814   5.608  21.691  0.00  0.00    -0.388 OA
ATOM     26  H   UNL     1      12.589   5.299  22.190  0.00  0.00    +0.210 HD
ENDBRANCH   8   2
BRANCH   7   4
ATOM      4  N   UNL     1      13.753   6.592  19.423  0.00  0.00    -0.305 NA
ATOM     24  H   UNL     1      13.818   6.398  18.423  0.00  0.00    +0.123 HD
BRANCH   4  14
ATOM     14  C   UNL     1      14.683   7.666  19.756  0.00  0.00    +0.116 C 
BRANCH  14  19
ATOM      6  N   UNL     1      18.718   6.222  20.139  0.00  0.00    -0.263 NA
ATOM     19  C   UNL     1      16.095   7.160  19.891  0.00  0.00    -0.031 A 
ATOM     20  C   UNL     1      16.947   7.712  20.843  0.00  0.00    +0.024 A 
ATOM     21  C   UNL     1      16.554   6.140  19.064  0.00  0.00    +0.024 A 
ATOM     22  C   UNL     1      18.237   7.212  20.925  0.00  0.00    +0.111 A 
ATOM     23  C   UNL     1      17.860   5.711  19.226  0.00  0.00    +0.111 A 
ENDBRANCH  14  19
ENDBRANCH   4  14
ENDBRANCH   7   4
BRANCH   9  11
ATOM     11  C   UNL     1      10.628   8.434  22.665  0.00  0.00    +0.138 C 
BRANCH  11   5
ATOM      3  O   UNL     1      10.292  11.094  23.760  0.00  0.00    -0.276 OA
ATOM      5  N   UNL     1      11.665   9.394  22.970  0.00  0.00    -0.313 N 
ATOM     15  C   UNL     1      11.406  10.649  23.495  0.00  0.00    +0.214 C 
ATOM     25  H   UNL     1      12.627   9.116  22.795  0.00  0.00    +0.149 HD
BRANCH  15  13
ATOM     13  C   UNL     1      12.666  11.471  23.719  0.00  0.00    +0.102 C 
BRANCH  13  12
ATOM     12  C   UNL     1      13.285  12.068  22.433  0.00  0.00    -0.029 C 
ATOM     16  C   UNL     1      14.208  11.053  21.740  0.00  0.00    +0.011 C 
ATOM     17  C   UNL     1      12.135  12.419  21.469  0.00  0.00    +0.011 C 
ATOM     18  C   UNL     1      14.077  13.351  22.733  0.00  0.00    +0.011 C 
ENDBRANCH  13  12
ENDBRANCH  15  13
ENDBRANCH  11   5
ENDBRANCH   9  11
TORSDOF 8
ENDMDL
MODEL 2
REMARK VINA RESULT:      -6.2      2.231      2.872
REMARK  Name = 75536809
REMARK  11 active torsions:
REMARK  status: ('A' for Active; 'I' for Inactive)
REMARK    1  A    between atoms: O_2  and  C_8
REMARK    2  A    between atoms: N_4  and  C_7
REMARK    3  A    between atoms: N_4  and  C_14
REMARK    4  A    between atoms: N_5  and  C_11
REMARK    5  A    between atoms: C_9  and  C_11
REMARK    6  A    between atoms: C_12  and  C_13
REMARK    7  A    between atoms: C_12  and  C_16
REMARK    8  A    between atoms: C_12  and  C_17
REMARK    9  A    between atoms: C_12  and  C_18
REMARK   10  A    between atoms: C_13  and  C_15
REMARK   11  A    between atoms: C_14  and  C_19
REMARK                            x       y       z     vdW  Elec       q    Type
REMARK                         _______ _______ _______ _____ _____    ______ ____
ROOT
ATOM      1  O   UNL     1      10.622   8.735  21.138  0.00  0.00    -0.371 OA
ATOM      7  C   UNL     1      12.417   7.275  21.671  0.00  0.00    +0.111 C 
ATOM      8  C   UNL     1      12.923   8.706  21.682  0.00  0.00    +0.164 C 
ATOM      9  C   UNL     1      11.621   9.476  21.858  0.00  0.00    +0.165 C 
ATOM     10  C   UNL     1      11.131   7.417  20.874  0.00  0.00    +0.181 C 
ENDROOT
BRANCH   8   2
ATOM      2  O   UNL     1      13.830   8.957  22.737  0.00  0.00    -0.388 OA
ATOM     26  H   UNL     1      13.320   9.192  23.530  0.00  0.00    +0.210 HD
ENDBRANCH   8   2
BRANCH   7   4
ATOM      4  N   UNL     1      13.351   6.332  21.078  0.00  0.00    -0.305 NA
ATOM     24  H   UNL     1      12.831   5.534  20.713  0.00  0.00    +0.123 HD
BRANCH   4  14
ATOM     14  C   UNL     1      14.097   6.949  19.987  0.00  0.00    +0.116 C 
BRANCH  14  19
ATOM      6  N   UNL     1      18.306   6.104  20.255  0.00  0.00    -0.263 NA
ATOM     19  C   UNL     1      15.571   6.654  20.080  0.00  0.00    -0.031 A 
ATOM     20  C   UNL     1      16.258   6.175  18.970  0.00  0.00    +0.024 A 
ATOM     21  C   UNL     1      16.249   6.857  21.277  0.00  0.00    +0.024 A 
ATOM     22  C   UNL     1      17.613   5.918  19.108  0.00  0.00    +0.111 A 
ATOM     23  C   UNL     1      17.604   6.569  21.312  0.00  0.00    +0.111 A 
ENDBRANCH  14  19
ENDBRANCH   4  14
ENDBRANCH   7   4
BRANCH   9  11
ATOM     11  C   UNL     1      11.687  10.897  21.328  0.00  0.00    +0.138 C 
BRANCH  11   5
ATOM      3  O   UNL     1      11.390  13.756  20.977  0.00  0.00    -0.276 OA
ATOM      5  N   UNL     1      10.990  11.818  22.196  0.00  0.00    -0.313 N 
ATOM     15  C   UNL     1      10.901  13.177  21.944  0.00  0.00    +0.214 C 
ATOM     25  H   UNL     1      10.540  11.435  23.022  0.00  0.00    +0.149 HD
BRANCH  15  13
ATOM     13  C   UNL     1      10.121  13.930  23.011  0.00  0.00    +0.102 C 
BRANCH  13  12
ATOM     12  C   UNL     1      10.908  14.202  24.315  0.00  0.00    -0.029 C 
ATOM     16  C   UNL     1      12.422  14.242  24.049  0.00  0.00    +0.011 C 
ATOM     17  C   UNL     1      10.473  15.578  24.857  0.00  0.00    +0.011 C 
ATOM     18  C   UNL     1      10.608  13.140  25.386  0.00  0.00    +0.011 C 
ENDBRANCH  13  12
ENDBRANCH  15  13
ENDBRANCH  11   5
ENDBRANCH   9  11
TORSDOF 8
ENDMDL
MODEL 3
REMARK VINA RESULT:      -6.1     27.205     29.389
REMARK  Name = 75536809
REMARK  11 active torsions:
REMARK  status: ('A' for Active; 'I' for Inactive)
REMARK    1  A    between atoms: O_2  and  C_8
REMARK    2  A    between atoms: N_4  and  C_7
REMARK    3  A    between atoms: N_4  and  C_14
REMARK    4  A    between atoms: N_5  and  C_11
REMARK    5  A    between atoms: C_9  and  C_11
REMARK    6  A    between atoms: C_12  and  C_13
REMARK    7  A    between atoms: C_12  and  C_16
REMARK    8  A    between atoms: C_12  and  C_17
REMARK    9  A    between atoms: C_12  and  C_18
REMARK   10  A    between atoms: C_13  and  C_15
REMARK   11  A    between atoms: C_14  and  C_19
REMARK                            x       y       z     vdW  Elec       q    Type
REMARK                         _______ _______ _______ _____ _____    ______ ____
ROOT
ATOM      1  O   UNL     1     -12.374  -7.521  16.677  0.00  0.00    -0.371 OA
ATOM      7  C   UNL     1      -9.999  -7.541  16.641  0.00  0.00    +0.111 C 
ATOM      8  C   UNL     1     -10.505  -6.701  15.483  0.00  0.00    +0.164 C 
ATOM      9  C   UNL     1     -11.913  -6.367  15.956  0.00  0.00    +0.165 C 
ATOM     10  C   UNL     1     -11.239  -8.346  16.991  0.00  0.00    +0.181 C 
ENDROOT
BRANCH   8   2
ATOM      2  O   UNL     1      -9.729  -5.537  15.272  0.00  0.00    -0.388 OA
ATOM     26  H   UNL     1     -10.023  -4.856  15.900  0.00  0.00    +0.210 HD
ENDBRANCH   8   2
BRANCH   7   4
ATOM      4  N   UNL     1      -8.858  -8.376  16.301  0.00  0.00    -0.305 NA
ATOM     24  H   UNL     1      -8.029  -7.788  16.217  0.00  0.00    +0.123 HD
BRANCH   4  14
ATOM     14  C   UNL     1      -8.622  -9.384  17.329  0.00  0.00    +0.116 C 
BRANCH  14  19
ATOM      6  N   UNL     1      -4.499 -10.607  17.444  0.00  0.00    -0.263 NA
ATOM     19  C   UNL     1      -7.179  -9.813  17.369  0.00  0.00    -0.031 A 
ATOM     20  C   UNL     1      -6.648 -10.370  18.528  0.00  0.00    +0.024 A 
ATOM     21  C   UNL     1      -6.371  -9.653  16.249  0.00  0.00    +0.024 A 
ATOM     22  C   UNL     1      -5.315 -10.747  18.514  0.00  0.00    +0.111 A 
ATOM     23  C   UNL     1      -5.051 -10.062  16.337  0.00  0.00    +0.111 A 
ENDBRANCH  14  19
ENDBRANCH   4  14
ENDBRANCH   7   4
BRANCH   9  11
ATOM     11  C   UNL     1     -12.870  -6.057  14.819  0.00  0.00    +0.138 C 
BRANCH  11   5
ATOM      3  O   UNL     1     -13.921  -3.753  13.413  0.00  0.00    -0.276 OA
ATOM      5  N   UNL     1     -12.222  -5.297  13.774  0.00  0.00    -0.313 N 
ATOM     15  C   UNL     1     -12.807  -4.203  13.158  0.00  0.00    +0.214 C 
ATOM     25  H   UNL     1     -11.288  -5.585  13.495  0.00  0.00    +0.149 HD
BRANCH  15  13
ATOM     13  C   UNL     1     -11.924  -3.583  12.086  0.00  0.00    +0.102 C 
BRANCH  13  12
ATOM     12  C   UNL     1     -12.270  -4.005  10.639  0.00  0.00    -0.029 C 
ATOM     16  C   UNL     1     -13.644  -3.458  10.216  0.00  0.00    +0.011 C 
ATOM     17  C   UNL     1     -11.200  -3.415   9.700  0.00  0.00    +0.011 C 
ATOM     18  C   UNL     1     -12.264  -5.535  10.482  0.00  0.00    +0.011 C 
ENDBRANCH  13  12
ENDBRANCH  15  13
ENDBRANCH  11   5
ENDBRANCH   9  11
TORSDOF 8
ENDMDL
MODEL 4
REMARK VINA RESULT:      -6.0      2.752      6.636
REMARK  Name = 75536809
REMARK  11 active torsions:
REMARK  status: ('A' for Active; 'I' for Inactive)
REMARK    1  A    between atoms: O_2  and  C_8
REMARK    2  A    between atoms: N_4  and  C_7
REMARK    3  A    between atoms: N_4  and  C_14
REMARK    4  A    between atoms: N_5  and  C_11
REMARK    5  A    between atoms: C_9  and  C_11
REMARK    6  A    between atoms: C_12  and  C_13
REMARK    7  A    between atoms: C_12  and  C_16
REMARK    8  A    between atoms: C_12  and  C_17
REMARK    9  A    between atoms: C_12  and  C_18
REMARK   10  A    between atoms: C_13  and  C_15
REMARK   11  A    between atoms: C_14  and  C_19
REMARK                            x       y       z     vdW  Elec       q    Type
REMARK                         _______ _______ _______ _____ _____    ______ ____
ROOT
ATOM      1  O   UNL     1      13.187   8.012  21.740  0.00  0.00    -0.371 OA
ATOM      7  C   UNL     1      11.224   9.002  22.637  0.00  0.00    +0.111 C 
ATOM      8  C   UNL     1      10.827   7.975  21.593  0.00  0.00    +0.164 C 
ATOM      9  C   UNL     1      12.082   7.116  21.535  0.00  0.00    +0.165 C 
ATOM     10  C   UNL     1      12.682   9.244  22.282  0.00  0.00    +0.181 C 
ENDROOT
BRANCH   8   2
ATOM      2  O   UNL     1       9.690   7.223  21.970  0.00  0.00    -0.388 OA
ATOM     26  H   UNL     1       9.035   7.831  22.353  0.00  0.00    +0.210 HD
ENDBRANCH   8   2
BRANCH   7   4
ATOM      4  N   UNL     1      10.422  10.215  22.596  0.00  0.00    -0.305 NA
ATOM     24  H   UNL     1      10.033  10.388  23.524  0.00  0.00    +0.123 HD
BRANCH   4  14
ATOM     14  C   UNL     1      11.230  11.363  22.201  0.00  0.00    +0.116 C 
BRANCH  14  19
ATOM      6  N   UNL     1      11.591  14.232  25.386  0.00  0.00    -0.263 NA
ATOM     19  C   UNL     1      11.356  12.368  23.315  0.00  0.00    -0.031 A 
ATOM     20  C   UNL     1      12.262  13.418  23.209  0.00  0.00    +0.024 A 
ATOM     21  C   UNL     1      10.568  12.250  24.455  0.00  0.00    +0.024 A 
ATOM     22  C   UNL     1      12.341  14.315  24.263  0.00  0.00    +0.111 A 
ATOM     23  C   UNL     1      10.722  13.199  25.452  0.00  0.00    +0.111 A 
ENDBRANCH  14  19
ENDBRANCH   4  14
ENDBRANCH   7   4
BRANCH   9  11
ATOM     11  C   UNL     1      12.251   6.387  20.214  0.00  0.00    +0.138 C 
BRANCH  11   5
ATOM      3  O   UNL     1      11.730   7.301  17.516  0.00  0.00    -0.276 OA
ATOM      5  N   UNL     1      13.159   7.087  19.336  0.00  0.00    -0.313 N 
ATOM     15  C   UNL     1      12.818   7.488  18.054  0.00  0.00    +0.214 C 
ATOM     25  H   UNL     1      14.087   7.299  19.692  0.00  0.00    +0.149 HD
BRANCH  15  13
ATOM     13  C   UNL     1      13.952   8.199  17.332  0.00  0.00    +0.102 C 
BRANCH  13  12
ATOM     12  C   UNL     1      14.161   9.673  17.750  0.00  0.00    -0.029 C 
ATOM     16  C   UNL     1      12.845  10.302  18.236  0.00  0.00    +0.011 C 
ATOM     17  C   UNL     1      15.173   9.700  18.913  0.00  0.00    +0.011 C 
ATOM     18  C   UNL     1      14.728  10.512  16.593  0.00  0.00    +0.011 C 
ENDBRANCH  13  12
ENDBRANCH  15  13
ENDBRANCH  11   5
ENDBRANCH   9  11
TORSDOF 8
ENDMDL
MODEL 5
REMARK VINA RESULT:      -6.0      4.235      6.748
REMARK  Name = 75536809
REMARK  11 active torsions:
REMARK  status: ('A' for Active; 'I' for Inactive)
REMARK    1  A    between atoms: O_2  and  C_8
REMARK    2  A    between atoms: N_4  and  C_7
REMARK    3  A    between atoms: N_4  and  C_14
REMARK    4  A    between atoms: N_5  and  C_11
REMARK    5  A    between atoms: C_9  and  C_11
REMARK    6  A    between atoms: C_12  and  C_13
REMARK    7  A    between atoms: C_12  and  C_16
REMARK    8  A    between atoms: C_12  and  C_17
REMARK    9  A    between atoms: C_12  and  C_18
REMARK   10  A    between atoms: C_13  and  C_15
REMARK   11  A    between atoms: C_14  and  C_19
REMARK                            x       y       z     vdW  Elec       q    Type
REMARK                         _______ _______ _______ _____ _____    ______ ____
ROOT
ATOM      1  O   UNL     1      18.443   7.210  21.736  0.00  0.00    -0.371 OA
ATOM      7  C   UNL     1      19.714   5.954  20.172  0.00  0.00    +0.111 C 
ATOM      8  C   UNL     1      18.243   5.627  19.991  0.00  0.00    +0.164 C 
ATOM      9  C   UNL     1      17.591   6.840  20.640  0.00  0.00    +0.165 C 
ATOM     10  C   UNL     1      19.716   6.566  21.563  0.00  0.00    +0.181 C 
ENDROOT
BRANCH   8   2
ATOM      2  O   UNL     1      17.876   5.495  18.631  0.00  0.00    -0.388 OA
ATOM     26  H   UNL     1      18.565   4.980  18.177  0.00  0.00    +0.210 HD
ENDBRANCH   8   2
BRANCH   7   4
ATOM      4  N   UNL     1      20.587   4.796  20.060  0.00  0.00    -0.305 NA
ATOM     24  H   UNL     1      21.149   4.884  19.214  0.00  0.00    +0.123 HD
BRANCH   4  14
ATOM     14  C   UNL     1      21.478   4.699  21.211  0.00  0.00    +0.116 C 
BRANCH  14  19
ATOM      6  N   UNL     1      25.115   2.614  20.246  0.00  0.00    -0.263 NA
ATOM     19  C   UNL     1      22.751   3.969  20.873  0.00  0.00    -0.031 A 
ATOM     20  C   UNL     1      22.877   2.615  21.163  0.00  0.00    +0.024 A 
ATOM     21  C   UNL     1      23.805   4.646  20.270  0.00  0.00    +0.024 A 
ATOM     22  C   UNL     1      24.069   1.989  20.833  0.00  0.00    +0.111 A 
ATOM     23  C   UNL     1      24.955   3.930  19.979  0.00  0.00    +0.111 A 
ENDBRANCH  14  19
ENDBRANCH   4  14
ENDBRANCH   7   4
BRANCH   9  11
ATOM     11  C   UNL     1      16.188   6.566  21.149  0.00  0.00    +0.138 C 
BRANCH  11   5
ATOM      3  O   UNL     1      13.359   7.106  21.456  0.00  0.00    -0.276 OA
ATOM      5  N   UNL     1      15.205   6.714  20.100  0.00  0.00    -0.313 N 
ATOM     15  C   UNL     1      13.867   6.974  20.345  0.00  0.00    +0.214 C 
ATOM     25  H   UNL     1      15.528   6.631  19.140  0.00  0.00    +0.149 HD
BRANCH  15  13
ATOM     13  C   UNL     1      13.039   7.076  19.073  0.00  0.00    +0.102 C 
BRANCH  13  12
ATOM     12  C   UNL     1      12.318   8.431  18.879  0.00  0.00    -0.029 C 
ATOM     16  C   UNL     1      11.129   8.568  19.844  0.00  0.00    +0.011 C 
ATOM     17  C   UNL     1      13.326   9.556  19.185  0.00  0.00    +0.011 C 
ATOM     18  C   UNL     1      11.821   8.603  17.435  0.00  0.00    +0.011 C 
ENDBRANCH  13  12
ENDBRANCH  15  13
ENDBRANCH  11   5
ENDBRANCH   9  11
TORSDOF 8
ENDMDL
MODEL 6
REMARK VINA RESULT:      -5.8      4.458      9.230
REMARK  Name = 75536809
REMARK  11 active torsions:
REMARK  status: ('A' for Active; 'I' for Inactive)
REMARK    1  A    between atoms: O_2  and  C_8
REMARK    2  A    between atoms: N_4  and  C_7
REMARK    3  A    between atoms: N_4  and  C_14
REMARK    4  A    between atoms: N_5  and  C_11
REMARK    5  A    between atoms: C_9  and  C_11
REMARK    6  A    between atoms: C_12  and  C_13
REMARK    7  A    between atoms: C_12  and  C_16
REMARK    8  A    between atoms: C_12  and  C_17
REMARK    9  A    between atoms: C_12  and  C_18
REMARK   10  A    between atoms: C_13  and  C_15
REMARK   11  A    between atoms: C_14  and  C_19
REMARK                            x       y       z     vdW  Elec       q    Type
REMARK                         _______ _______ _______ _____ _____    ______ ____
ROOT
ATOM      1  O   UNL     1      18.289   6.799  21.675  0.00  0.00    -0.371 OA
ATOM      7  C   UNL     1      16.487   6.630  20.137  0.00  0.00    +0.111 C 
ATOM      8  C   UNL     1      17.786   6.326  19.413  0.00  0.00    +0.164 C 
ATOM      9  C   UNL     1      18.693   5.960  20.580  0.00  0.00    +0.165 C 
ATOM     10  C   UNL     1      16.995   7.349  21.375  0.00  0.00    +0.181 C 
ENDROOT
BRANCH   8   2
ATOM      2  O   UNL     1      17.661   5.262  18.489  0.00  0.00    -0.388 OA
ATOM     26  H   UNL     1      16.808   5.353  18.032  0.00  0.00    +0.210 HD
ENDBRANCH   8   2
BRANCH   7   4
ATOM      4  N   UNL     1      15.559   7.432  19.356  0.00  0.00    -0.305 NA
ATOM     24  H   UNL     1      15.981   7.641  18.451  0.00  0.00    +0.123 HD
BRANCH   4  14
ATOM     14  C   UNL     1      14.305   6.719  19.139  0.00  0.00    +0.116 C 
BRANCH  14  19
ATOM      6  N   UNL     1      11.014   8.627  21.147  0.00  0.00    -0.263 NA
ATOM     19  C   UNL     1      13.153   7.388  19.842  0.00  0.00    -0.031 A 
ATOM     20  C   UNL     1      13.060   7.340  21.229  0.00  0.00    +0.024 A 
ATOM     21  C   UNL     1      12.178   8.054  19.108  0.00  0.00    +0.024 A 
ATOM     22  C   UNL     1      11.980   7.970  21.828  0.00  0.00    +0.111 A 
ATOM     23  C   UNL     1      11.139   8.651  19.801  0.00  0.00    +0.111 A 
ENDBRANCH  14  19
ENDBRANCH   4  14
ENDBRANCH   7   4
BRANCH   9  11
ATOM     11  C   UNL     1      20.167   6.177  20.285  0.00  0.00    +0.138 C 
BRANCH  11   5
ATOM      3  O   UNL     1      21.365   4.835  22.555  0.00  0.00    -0.276 OA
ATOM      5  N   UNL     1      20.894   4.928  20.281  0.00  0.00    -0.313 N 
ATOM     15  C   UNL     1      21.434   4.360  21.424  0.00  0.00    +0.214 C 
ATOM     25  H   UNL     1      20.998   4.449  19.391  0.00  0.00    +0.149 HD
BRANCH  15  13
ATOM     13  C   UNL     1      22.157   3.050  21.152  0.00  0.00    +0.102 C 
BRANCH  13  12
ATOM     12  C   UNL     1      23.700   3.144  21.195  0.00  0.00    -0.029 C 
ATOM     16  C   UNL     1      24.212   4.273  20.286  0.00  0.00    +0.011 C 
ATOM     17  C   UNL     1      24.119   3.458  22.645  0.00  0.00    +0.011 C 
ATOM     18  C   UNL     1      24.357   1.818  20.776  0.00  0.00    +0.011 C 
ENDBRANCH  13  12
ENDBRANCH  15  13
ENDBRANCH  11   5
ENDBRANCH   9  11
TORSDOF 8
ENDMDL
MODEL 7
REMARK VINA RESULT:      -5.8     26.237     28.529
REMARK  Name = 75536809
REMARK  11 active torsions:
REMARK  status: ('A' for Active; 'I' for Inactive)
REMARK    1  A    between atoms: O_2  and  C_8
REMARK    2  A    between atoms: N_4  and  C_7
REMARK    3  A    between atoms: N_4  and  C_14
REMARK    4  A    between atoms: N_5  and  C_11
REMARK    5  A    between atoms: C_9  and  C_11
REMARK    6  A    between atoms: C_12  and  C_13
REMARK    7  A    between atoms: C_12  and  C_16
REMARK    8  A    between atoms: C_12  and  C_17
REMARK    9  A    between atoms: C_12  and  C_18
REMARK   10  A    between atoms: C_13  and  C_15
REMARK   11  A    between atoms: C_14  and  C_19
REMARK                            x       y       z     vdW  Elec       q    Type
REMARK                         _______ _______ _______ _____ _____    ______ ____
ROOT
ATOM      1  O   UNL     1      -4.389 -12.024  17.566  0.00  0.00    -0.371 OA
ATOM      7  C   UNL     1      -6.357 -10.704  17.417  0.00  0.00    +0.111 C 
ATOM      8  C   UNL     1      -5.230  -9.997  16.686  0.00  0.00    +0.164 C 
ATOM      9  C   UNL     1      -4.277 -11.156  16.427  0.00  0.00    +0.165 C 
ATOM     10  C   UNL     1      -5.585 -11.681  18.287  0.00  0.00    +0.181 C 
ENDROOT
BRANCH   8   2
ATOM      2  O   UNL     1      -5.656  -9.386  15.485  0.00  0.00    -0.388 OA
ATOM     26  H   UNL     1      -5.750 -10.076  14.807  0.00  0.00    +0.210 HD
ENDBRANCH   8   2
BRANCH   7   4
ATOM      4  N   UNL     1      -7.206  -9.808  18.186  0.00  0.00    -0.305 NA
ATOM     24  H   UNL     1      -7.058  -8.851  17.863  0.00  0.00    +0.123 HD
BRANCH   4  14
ATOM     14  C   UNL     1      -8.614 -10.150  18.021  0.00  0.00    +0.116 C 
BRANCH  14  19
ATOM      6  N   UNL     1     -10.562  -7.561  15.191  0.00  0.00    -0.263 NA
ATOM     19  C   UNL     1      -9.297  -9.244  17.030  0.00  0.00    -0.031 A 
ATOM     20  C   UNL     1      -9.369  -9.605  15.689  0.00  0.00    +0.024 A 
ATOM     21  C   UNL     1      -9.857  -8.043  17.453  0.00  0.00    +0.024 A 
ATOM     22  C   UNL     1     -10.006  -8.736  14.818  0.00  0.00    +0.111 A 
ATOM     23  C   UNL     1     -10.473  -7.245  16.503  0.00  0.00    +0.111 A 
ENDBRANCH  14  19
ENDBRANCH   4  14
ENDBRANCH   7   4
BRANCH   9  11
ATOM     11  C   UNL     1      -2.833 -10.718  16.256  0.00  0.00    +0.138 C 
BRANCH  11   5
ATOM      3  O   UNL     1      -2.152 -12.345  13.959  0.00  0.00    -0.276 OA
ATOM      5  N   UNL     1      -2.574 -10.266  14.908  0.00  0.00    -0.313 N 
ATOM     15  C   UNL     1      -2.254 -11.124  13.869  0.00  0.00    +0.214 C 
ATOM     25  H   UNL     1      -2.642  -9.269  14.727  0.00  0.00    +0.149 HD
BRANCH  15  13
ATOM     13  C   UNL     1      -2.020 -10.401  12.552  0.00  0.00    +0.102 C 
BRANCH  13  12
ATOM     12  C   UNL     1      -3.191 -10.495  11.546  0.00  0.00    -0.029 C 
ATOM     16  C   UNL     1      -4.534 -10.187  12.230  0.00  0.00    +0.011 C 
ATOM     17  C   UNL     1      -2.957  -9.446  10.441  0.00  0.00    +0.011 C 
ATOM     18  C   UNL     1      -3.262 -11.884  10.891  0.00  0.00    +0.011 C 
ENDBRANCH  13  12
ENDBRANCH  15  13
ENDBRANCH  11   5
ENDBRANCH   9  11
TORSDOF 8
ENDMDL
MODEL 8
REMARK VINA RESULT:      -5.6     26.029     28.482
REMARK  Name = 75536809
REMARK  11 active torsions:
REMARK  status: ('A' for Active; 'I' for Inactive)
REMARK    1  A    between atoms: O_2  and  C_8
REMARK    2  A    between atoms: N_4  and  C_7
REMARK    3  A    between atoms: N_4  and  C_14
REMARK    4  A    between atoms: N_5  and  C_11
REMARK    5  A    between atoms: C_9  and  C_11
REMARK    6  A    between atoms: C_12  and  C_13
REMARK    7  A    between atoms: C_12  and  C_16
REMARK    8  A    between atoms: C_12  and  C_17
REMARK    9  A    between atoms: C_12  and  C_18
REMARK   10  A    between atoms: C_13  and  C_15
REMARK   11  A    between atoms: C_14  and  C_19
REMARK                            x       y       z     vdW  Elec       q    Type
REMARK                         _______ _______ _______ _____ _____    ______ ____
ROOT
ATOM      1  O   UNL     1      -7.648 -12.859  18.561  0.00  0.00    -0.371 OA
ATOM      7  C   UNL     1      -5.659 -11.572  18.731  0.00  0.00    +0.111 C 
ATOM      8  C   UNL     1      -6.838 -10.722  19.170  0.00  0.00    +0.164 C 
ATOM      9  C   UNL     1      -7.865 -11.796  19.503  0.00  0.00    +0.165 C 
ATOM     10  C   UNL     1      -6.357 -12.675  17.954  0.00  0.00    +0.181 C 
ENDROOT
BRANCH   8   2
ATOM      2  O   UNL     1      -6.541  -9.912  20.290  0.00  0.00    -0.388 OA
ATOM     26  H   UNL     1      -6.164 -10.476  20.985  0.00  0.00    +0.210 HD
ENDBRANCH   8   2
BRANCH   7   4
ATOM      4  N   UNL     1      -4.683 -10.846  17.933  0.00  0.00    -0.305 NA
ATOM     24  H   UNL     1      -3.796 -11.348  17.957  0.00  0.00    +0.123 HD
BRANCH   4  14
ATOM     14  C   UNL     1      -5.123 -10.730  16.548  0.00  0.00    +0.116 C 
BRANCH  14  19
ATOM      6  N   UNL     1      -1.796 -10.520  13.829  0.00  0.00    -0.263 NA
ATOM     19  C   UNL     1      -3.958 -10.657  15.596  0.00  0.00    -0.031 A 
ATOM     20  C   UNL     1      -2.659 -10.585  16.087  0.00  0.00    +0.024 A 
ATOM     21  C   UNL     1      -4.177 -10.661  14.223  0.00  0.00    +0.024 A 
ATOM     22  C   UNL     1      -1.622 -10.518  15.170  0.00  0.00    +0.111 A 
ATOM     23  C   UNL     1      -3.073 -10.591  13.389  0.00  0.00    +0.111 A 
ENDBRANCH  14  19
ENDBRANCH   4  14
ENDBRANCH   7   4
BRANCH   9  11
ATOM     11  C   UNL     1      -9.299 -11.307  19.403  0.00  0.00    +0.138 C 
BRANCH  11   5
ATOM      3  O   UNL     1      -9.632 -10.692  16.592  0.00  0.00    -0.276 OA
ATOM      5  N   UNL     1      -9.370  -9.998  18.795  0.00  0.00    -0.313 N 
ATOM     15  C   UNL     1      -9.532  -9.802  17.434  0.00  0.00    +0.214 C 
ATOM     25  H   UNL     1      -9.307  -9.191  19.410  0.00  0.00    +0.149 HD
BRANCH  15  13
ATOM     13  C   UNL     1      -9.569  -8.332  17.045  0.00  0.00    +0.102 C 
BRANCH  13  12
ATOM     12  C   UNL     1     -10.885  -7.874  16.373  0.00  0.00    -0.029 C 
ATOM     16  C   UNL     1     -11.061  -6.350  16.483  0.00  0.00    +0.011 C 
ATOM     17  C   UNL     1     -10.814  -8.249  14.880  0.00  0.00    +0.011 C 
ATOM     18  C   UNL     1     -12.106  -8.572  16.993  0.00  0.00    +0.011 C 
ENDBRANCH  13  12
ENDBRANCH  15  13
ENDBRANCH  11   5
ENDBRANCH   9  11
TORSDOF 8
ENDMDL
MODEL 9
REMARK VINA RESULT:      -5.6     26.245     28.121
REMARK  Name = 75536809
REMARK  11 active torsions:
REMARK  status: ('A' for Active; 'I' for Inactive)
REMARK    1  A    between atoms: O_2  and  C_8
REMARK    2  A    between atoms: N_4  and  C_7
REMARK    3  A    between atoms: N_4  and  C_14
REMARK    4  A    between atoms: N_5  and  C_11
REMARK    5  A    between atoms: C_9  and  C_11
REMARK    6  A    between atoms: C_12  and  C_13
REMARK    7  A    between atoms: C_12  and  C_16
REMARK    8  A    between atoms: C_12  and  C_17
REMARK    9  A    between atoms: C_12  and  C_18
REMARK   10  A    between atoms: C_13  and  C_15
REMARK   11  A    between atoms: C_14  and  C_19
REMARK                            x       y       z     vdW  Elec       q    Type
REMARK                         _______ _______ _______ _____ _____    ______ ____
ROOT
ATOM      1  O   UNL     1      -3.735 -10.349  13.743  0.00  0.00    -0.371 OA
ATOM      7  C   UNL     1      -3.111 -10.802  15.989  0.00  0.00    +0.111 C 
ATOM      8  C   UNL     1      -2.013 -11.291  15.062  0.00  0.00    +0.164 C 
ATOM      9  C   UNL     1      -2.306 -10.479  13.808  0.00  0.00    +0.165 C 
ATOM     10  C   UNL     1      -4.283 -10.682  15.030  0.00  0.00    +0.181 C 
ENDROOT
BRANCH   8   2
ATOM      2  O   UNL     1      -0.717 -11.035  15.566  0.00  0.00    -0.388 OA
ATOM     26  H   UNL     1      -0.790 -10.846  16.517  0.00  0.00    +0.210 HD
ENDBRANCH   8   2
BRANCH   7   4
ATOM      4  N   UNL     1      -3.378 -11.700  17.102  0.00  0.00    -0.305 NA
ATOM     24  H   UNL     1      -3.376 -11.164  17.970  0.00  0.00    +0.123 HD
BRANCH   4  14
ATOM     14  C   UNL     1      -4.675 -12.349  16.950  0.00  0.00    +0.116 C 
BRANCH  14  19
ATOM      6  N   UNL     1      -7.413 -11.191  20.059  0.00  0.00    -0.263 NA
ATOM     19  C   UNL     1      -5.633 -11.944  18.039  0.00  0.00    -0.031 A 
ATOM     20  C   UNL     1      -6.703 -12.770  18.370  0.00  0.00    +0.024 A 
ATOM     21  C   UNL     1      -5.453 -10.743  18.717  0.00  0.00    +0.024 A 
ATOM     22  C   UNL     1      -7.557 -12.351  19.379  0.00  0.00    +0.111 A 
ATOM     23  C   UNL     1      -6.362 -10.415  19.709  0.00  0.00    +0.111 A 
ENDBRANCH  14  19
ENDBRANCH   4  14
ENDBRANCH   7   4
BRANCH   9  11
ATOM     11  C   UNL     1      -1.792 -11.132  12.537  0.00  0.00    +0.138 C 
BRANCH  11   5
ATOM      3  O   UNL     1      -2.135  -9.085  10.517  0.00  0.00    -0.276 OA
ATOM      5  N   UNL     1      -2.783 -11.096  11.486  0.00  0.00    -0.313 N 
ATOM     15  C   UNL     1      -2.869 -10.069  10.560  0.00  0.00    +0.214 C 
ATOM     25  H   UNL     1      -3.435 -11.873  11.430  0.00  0.00    +0.149 HD
BRANCH  15  13
ATOM     13  C   UNL     1      -4.002 -10.262   9.563  0.00  0.00    +0.102 C 
BRANCH  13  12
ATOM     12  C   UNL     1      -5.375  -9.728  10.033  0.00  0.00    -0.029 C 
ATOM     16  C   UNL     1      -6.090 -10.751  10.930  0.00  0.00    +0.011 C 
ATOM     17  C   UNL     1      -5.132  -8.446  10.855  0.00  0.00    +0.011 C 
ATOM     18  C   UNL     1      -6.281  -9.377   8.842  0.00  0.00    +0.011 C 
ENDBRANCH  13  12
ENDBRANCH  15  13
ENDBRANCH  11   5
ENDBRANCH   9  11
TORSDOF 8
ENDMDL
MODEL 10
REMARK VINA RESULT:      -5.6      2.784      6.140
REMARK  Name = 75536809
REMARK  11 active torsions:
REMARK  status: ('A' for Active; 'I' for Inactive)
REMARK    1  A    between atoms: O_2  and  C_8
REMARK    2  A    between atoms: N_4  and  C_7
REMARK    3  A    between atoms: N_4  and  C_14
REMARK    4  A    between atoms: N_5  and  C_11
REMARK    5  A    between atoms: C_9  and  C_11
REMARK    6  A    between atoms: C_12  and  C_13
REMARK    7  A    between atoms: C_12  and  C_16
REMARK    8  A    between atoms: C_12  and  C_17
REMARK    9  A    between atoms: C_12  and  C_18
REMARK   10  A    between atoms: C_13  and  C_15
REMARK   11  A    between atoms: C_14  and  C_19
REMARK                            x       y       z     vdW  Elec       q    Type
REMARK                         _______ _______ _______ _____ _____    ______ ____
ROOT
ATOM      1  O   UNL     1      14.678   8.035  20.662  0.00  0.00    -0.371 OA
ATOM      7  C   UNL     1      12.687   7.703  21.913  0.00  0.00    +0.111 C 
ATOM      8  C   UNL     1      12.458   7.239  20.487  0.00  0.00    +0.164 C 
ATOM      9  C   UNL     1      13.890   7.022  20.016  0.00  0.00    +0.165 C 
ATOM     10  C   UNL     1      13.914   8.584  21.749  0.00  0.00    +0.181 C 
ENDROOT
BRANCH   8   2
ATOM      2  O   UNL     1      11.694   6.051  20.414  0.00  0.00    -0.388 OA
ATOM     26  H   UNL     1      10.970   6.191  19.781  0.00  0.00    +0.210 HD
ENDBRANCH   8   2
BRANCH   7   4
ATOM      4  N   UNL     1      11.553   8.412  22.485  0.00  0.00    -0.305 NA
ATOM     24  H   UNL     1      11.784   8.697  23.437  0.00  0.00    +0.123 HD
BRANCH   4  14
ATOM     14  C   UNL     1      11.228   9.598  21.701  0.00  0.00    +0.116 C 
BRANCH  14  19
ATOM      6  N   UNL     1      10.924  13.107  24.172  0.00  0.00    -0.263 NA
ATOM     19  C   UNL     1      11.121  10.827  22.566  0.00  0.00    -0.031 A 
ATOM     20  C   UNL     1      11.107  12.090  21.985  0.00  0.00    +0.024 A 
ATOM     21  C   UNL     1      11.037  10.702  23.949  0.00  0.00    +0.024 A 
ATOM     22  C   UNL     1      11.008  13.189  22.825  0.00  0.00    +0.111 A 
ATOM     23  C   UNL     1      10.941  11.862  24.700  0.00  0.00    +0.111 A 
ENDBRANCH  14  19
ENDBRANCH   4  14
ENDBRANCH   7   4
BRANCH   9  11
ATOM     11  C   UNL     1      14.049   7.130  18.510  0.00  0.00    +0.138 C 
BRANCH  11   5
ATOM      3  O   UNL     1      12.693   9.123  16.904  0.00  0.00    -0.276 OA
ATOM      5  N   UNL     1      14.547   8.430  18.123  0.00  0.00    -0.313 N 
ATOM     15  C   UNL     1      13.822   9.321  17.349  0.00  0.00    +0.214 C 
ATOM     25  H   UNL     1      15.472   8.695  18.450  0.00  0.00    +0.149 HD
BRANCH  15  13
ATOM     13  C   UNL     1      14.570  10.616  17.074  0.00  0.00    +0.102 C 
BRANCH  13  12
ATOM     12  C   UNL     1      14.498  11.659  18.214  0.00  0.00    -0.029 C 
ATOM     16  C   UNL     1      15.806  11.690  19.020  0.00  0.00    +0.011 C 
ATOM     17  C   UNL     1      14.285  13.047  17.578  0.00  0.00    +0.011 C 
ATOM     18  C   UNL     1      13.323  11.374  19.164  0.00  0.00    +0.011 C 
ENDBRANCH  13  12
ENDBRANCH  15  13
ENDBRANCH  11   5
ENDBRANCH   9  11
TORSDOF 8
ENDMDL
