MODEL 1
REMARK VINA RESULT:      -7.4      0.000      0.000
REMARK  Name = 11941649
REMARK  5 active torsions:
REMARK  status: ('A' for Active; 'I' for Inactive)
REMARK    1  A    between atoms: N_5  and  C_12
REMARK    2  A    between atoms: N_6  and  C_13
REMARK    3  A    between atoms: N_7  and  C_18
REMARK    4  A    between atoms: C_18  and  C_22
REMARK    5  A    between atoms: C_19  and  C_23
REMARK                            x       y       z     vdW  Elec       q    Type
REMARK                         _______ _______ _______ _____ _____    ______ ____
ROOT
ATOM      1  O   UNL     1      -4.703 -11.510  19.571  0.00  0.00    -0.370 OA
ATOM      2  O   UNL     1      -6.367 -10.495  17.135  0.00  0.00    -0.370 OA
ATOM     10  C   UNL     1      -6.325 -11.743  17.846  0.00  0.00    +0.171 C 
ATOM     11  C   UNL     1      -4.879 -11.994  18.230  0.00  0.00    +0.171 C 
ATOM     12  C   UNL     1      -7.042 -11.616  19.170  0.00  0.00    +0.130 C 
ATOM     13  C   UNL     1      -4.089 -11.150  17.257  0.00  0.00    +0.131 C 
ATOM     14  C   UNL     1      -5.964 -11.052  20.078  0.00  0.00    +0.185 C 
ATOM     15  C   UNL     1      -5.032  -9.989  16.995  0.00  0.00    +0.185 C 
ENDROOT
BRANCH  12   5
ATOM      5  N   UNL     1      -7.456 -12.921  19.636  0.00  0.00    -0.306 N 
ATOM      8  N   UNL     1      -9.648 -12.197  20.058  0.00  0.00    -0.211 NA
ATOM      9  N   UNL     1      -8.995 -14.477  20.482  0.00  0.00    -0.223 NA
ATOM     16  C   UNL     1      -8.738 -13.206  20.072  0.00  0.00    +0.216 A 
ATOM     19  C   UNL     1     -10.888 -12.510  20.489  0.00  0.00    +0.111 A 
ATOM     20  C   UNL     1     -10.255 -14.720  20.901  0.00  0.00    +0.116 A 
ATOM     21  C   UNL     1     -11.252 -13.767  20.926  0.00  0.00    +0.051 A 
ATOM     32  H   UNL     1      -6.801 -13.694  19.602  0.00  0.00    +0.149 HD
BRANCH  19  23
ATOM      4  O   UNL     1     -13.060 -11.707  20.955  0.00  0.00    -0.461 OA
ATOM     23  C   UNL     1     -11.828 -11.421  20.462  0.00  0.00    +0.153 A 
ATOM     26  C   UNL     1     -11.765 -10.117  20.037  0.00  0.00    +0.051 A 
ATOM     29  C   UNL     1     -13.041  -9.562  20.286  0.00  0.00    +0.042 A 
ATOM     31  C   UNL     1     -13.793 -10.569  20.845  0.00  0.00    +0.196 A 
ENDBRANCH  19  23
ENDBRANCH  12   5
BRANCH  13   6
ATOM      3  O   UNL     1      -2.106 -10.501  15.263  0.00  0.00    -0.253 OA
ATOM      6  N   UNL     1      -3.806 -11.877  16.044  0.00  0.00    -0.292 N 
ATOM      7  N   UNL     1      -2.762 -12.369  14.053  0.00  0.00    -0.295 N 
ATOM     17  C   UNL     1      -2.825 -11.490  15.131  0.00  0.00    +0.300 C 
ATOM     33  H   UNL     1      -4.299 -12.748  15.875  0.00  0.00    +0.151 HD
ATOM     34  H   UNL     1      -3.382 -13.173  14.041  0.00  0.00    +0.151 HD
BRANCH   7  18
ATOM     18  C   UNL     1      -1.831 -12.201  12.961  0.00  0.00    +0.141 C 
BRANCH  18  22
ATOM     22  C   UNL     1      -2.360 -11.268  11.910  0.00  0.00    -0.030 A 
ATOM     24  C   UNL     1      -1.742 -10.039  11.711  0.00  0.00    +0.005 A 
ATOM     25  C   UNL     1      -3.460 -11.643  11.147  0.00  0.00    +0.005 A 
ATOM     27  C   UNL     1      -2.233  -9.172  10.734  0.00  0.00    +0.000 A 
ATOM     28  C   UNL     1      -3.949 -10.775  10.171  0.00  0.00    +0.000 A 
ATOM     30  C   UNL     1      -3.336  -9.540   9.964  0.00  0.00    +0.000 A 
ENDBRANCH  18  22
ENDBRANCH   7  18
ENDBRANCH  13   6
TORSDOF 5
ENDMDL
MODEL 2
REMARK VINA RESULT:      -7.1     18.886     20.726
REMARK  Name = 11941649
REMARK  5 active torsions:
REMARK  status: ('A' for Active; 'I' for Inactive)
REMARK    1  A    between atoms: N_5  and  C_12
REMARK    2  A    between atoms: N_6  and  C_13
REMARK    3  A    between atoms: N_7  and  C_18
REMARK    4  A    between atoms: C_18  and  C_22
REMARK    5  A    between atoms: C_19  and  C_23
REMARK                            x       y       z     vdW  Elec       q    Type
REMARK                         _______ _______ _______ _____ _____    ______ ____
ROOT
ATOM      1  O   UNL     1     -18.001   5.281  24.790  0.00  0.00    -0.370 OA
ATOM      2  O   UNL     1     -16.061   2.838  24.864  0.00  0.00    -0.370 OA
ATOM     10  C   UNL     1     -16.167   4.035  25.654  0.00  0.00    +0.171 C 
ATOM     11  C   UNL     1     -16.571   5.157  24.717  0.00  0.00    +0.171 C 
ATOM     12  C   UNL     1     -17.324   3.925  26.619  0.00  0.00    +0.130 C 
ATOM     13  C   UNL     1     -16.155   4.664  23.351  0.00  0.00    +0.131 C 
ATOM     14  C   UNL     1     -18.505   4.367  25.774  0.00  0.00    +0.185 C 
ATOM     15  C   UNL     1     -16.309   3.159  23.488  0.00  0.00    +0.185 C 
ENDROOT
BRANCH  12   5
ATOM      5  N   UNL     1     -17.133   4.835  27.726  0.00  0.00    -0.306 N 
ATOM      8  N   UNL     1     -16.043   3.208  29.020  0.00  0.00    -0.211 NA
ATOM      9  N   UNL     1     -16.387   5.437  29.868  0.00  0.00    -0.223 NA
ATOM     16  C   UNL     1     -16.502   4.483  28.907  0.00  0.00    +0.216 A 
ATOM     19  C   UNL     1     -15.433   2.898  30.183  0.00  0.00    +0.111 A 
ATOM     20  C   UNL     1     -15.767   5.059  31.006  0.00  0.00    +0.116 A 
ATOM     21  C   UNL     1     -15.265   3.791  31.221  0.00  0.00    +0.051 A 
ATOM     32  H   UNL     1     -17.424   5.801  27.633  0.00  0.00    +0.149 HD
BRANCH  19  23
ATOM      4  O   UNL     1     -13.673   1.352  29.881  0.00  0.00    -0.461 OA
ATOM     23  C   UNL     1     -14.959   1.544  30.272  0.00  0.00    +0.153 A 
ATOM     26  C   UNL     1     -15.526   0.359  30.674  0.00  0.00    +0.051 A 
ATOM     29  C   UNL     1     -14.524  -0.627  30.521  0.00  0.00    +0.042 A 
ATOM     31  C   UNL     1     -13.415   0.028  30.036  0.00  0.00    +0.196 A 
ENDBRANCH  19  23
ENDBRANCH  12   5
BRANCH  13   6
ATOM      3  O   UNL     1     -15.101   5.586  20.827  0.00  0.00    -0.253 OA
ATOM      6  N   UNL     1     -14.789   5.025  23.059  0.00  0.00    -0.292 N 
ATOM      7  N   UNL     1     -13.001   5.743  21.801  0.00  0.00    -0.295 N 
ATOM     17  C   UNL     1     -14.365   5.463  21.805  0.00  0.00    +0.300 C 
ATOM     33  H   UNL     1     -14.114   5.022  23.818  0.00  0.00    +0.151 HD
ATOM     34  H   UNL     1     -12.477   5.633  22.664  0.00  0.00    +0.151 HD
BRANCH   7  18
ATOM     18  C   UNL     1     -12.303   6.215  20.628  0.00  0.00    +0.141 C 
BRANCH  18  22
ATOM     22  C   UNL     1     -12.099   7.702  20.655  0.00  0.00    -0.030 A 
ATOM     24  C   UNL     1     -12.835   8.480  21.540  0.00  0.00    +0.005 A 
ATOM     25  C   UNL     1     -11.174   8.285  19.795  0.00  0.00    +0.005 A 
ATOM     27  C   UNL     1     -12.645   9.862  21.566  0.00  0.00    +0.000 A 
ATOM     28  C   UNL     1     -10.985   9.667  19.822  0.00  0.00    +0.000 A 
ATOM     30  C   UNL     1     -11.720  10.455  20.707  0.00  0.00    +0.000 A 
ENDBRANCH  18  22
ENDBRANCH   7  18
ENDBRANCH  13   6
TORSDOF 5
ENDMDL
MODEL 3
REMARK VINA RESULT:      -7.0      2.433      3.497
REMARK  Name = 11941649
REMARK  5 active torsions:
REMARK  status: ('A' for Active; 'I' for Inactive)
REMARK    1  A    between atoms: N_5  and  C_12
REMARK    2  A    between atoms: N_6  and  C_13
REMARK    3  A    between atoms: N_7  and  C_18
REMARK    4  A    between atoms: C_18  and  C_22
REMARK    5  A    between atoms: C_19  and  C_23
REMARK                            x       y       z     vdW  Elec       q    Type
REMARK                         _______ _______ _______ _____ _____    ______ ____
ROOT
ATOM      1  O   UNL     1      -7.208 -12.134  16.894  0.00  0.00    -0.370 OA
ATOM      2  O   UNL     1      -5.055 -10.508  18.462  0.00  0.00    -0.370 OA
ATOM     10  C   UNL     1      -5.861 -10.217  17.308  0.00  0.00    +0.171 C 
ATOM     11  C   UNL     1      -5.979 -11.499  16.506  0.00  0.00    +0.171 C 
ATOM     12  C   UNL     1      -7.281  -9.909  17.724  0.00  0.00    +0.130 C 
ATOM     13  C   UNL     1      -4.795 -12.323  16.956  0.00  0.00    +0.131 C 
ATOM     14  C   UNL     1      -7.905 -11.290  17.821  0.00  0.00    +0.185 C 
ATOM     15  C   UNL     1      -4.612 -11.871  18.394  0.00  0.00    +0.185 C 
ENDROOT
BRANCH  12   5
ATOM      5  N   UNL     1      -7.940  -9.134  16.696  0.00  0.00    -0.306 N 
ATOM      8  N   UNL     1     -10.027  -9.298  17.757  0.00  0.00    -0.211 NA
ATOM      9  N   UNL     1      -9.784  -8.093  15.685  0.00  0.00    -0.223 NA
ATOM     16  C   UNL     1      -9.291  -8.833  16.713  0.00  0.00    +0.216 A 
ATOM     19  C   UNL     1     -11.340  -8.986  17.743  0.00  0.00    +0.111 A 
ATOM     20  C   UNL     1     -11.104  -7.819  15.733  0.00  0.00    +0.116 A 
ATOM     21  C   UNL     1     -11.940  -8.242  16.747  0.00  0.00    +0.051 A 
ATOM     32  H   UNL     1      -7.392  -8.738  15.941  0.00  0.00    +0.149 HD
BRANCH  19  23
ATOM      4  O   UNL     1     -13.438  -9.519  18.686  0.00  0.00    -0.461 OA
ATOM     23  C   UNL     1     -12.092  -9.492  18.859  0.00  0.00    +0.153 A 
ATOM     26  C   UNL     1     -11.751  -9.967  20.102  0.00  0.00    +0.051 A 
ATOM     29  C   UNL     1     -12.967 -10.311  20.736  0.00  0.00    +0.042 A 
ATOM     31  C   UNL     1     -13.965 -10.020  19.834  0.00  0.00    +0.196 A 
ENDBRANCH  19  23
ENDBRANCH  12   5
BRANCH  13   6
ATOM      3  O   UNL     1      -4.275 -13.174  14.247  0.00  0.00    -0.253 OA
ATOM      6  N   UNL     1      -3.625 -12.034  16.164  0.00  0.00    -0.292 N 
ATOM      7  N   UNL     1      -2.239 -12.064  14.327  0.00  0.00    -0.295 N 
ATOM     17  C   UNL     1      -3.455 -12.488  14.856  0.00  0.00    +0.300 C 
ATOM     33  H   UNL     1      -2.918 -11.418  16.552  0.00  0.00    +0.151 HD
ATOM     34  H   UNL     1      -1.634 -11.481  14.898  0.00  0.00    +0.151 HD
BRANCH   7  18
ATOM     18  C   UNL     1      -1.811 -12.394  12.988  0.00  0.00    +0.141 C 
BRANCH  18  22
ATOM     22  C   UNL     1      -2.291 -11.390  11.981  0.00  0.00    -0.030 A 
ATOM     24  C   UNL     1      -3.385 -11.691  11.178  0.00  0.00    +0.005 A 
ATOM     25  C   UNL     1      -1.638 -10.168  11.862  0.00  0.00    +0.005 A 
ATOM     27  C   UNL     1      -3.831 -10.758  10.242  0.00  0.00    +0.000 A 
ATOM     28  C   UNL     1      -2.086  -9.236  10.927  0.00  0.00    +0.000 A 
ATOM     30  C   UNL     1      -3.182  -9.530  10.117  0.00  0.00    +0.000 A 
ENDBRANCH  18  22
ENDBRANCH   7  18
ENDBRANCH  13   6
TORSDOF 5
ENDMDL
MODEL 4
REMARK VINA RESULT:      -7.0      4.672      8.390
REMARK  Name = 11941649
REMARK  5 active torsions:
REMARK  status: ('A' for Active; 'I' for Inactive)
REMARK    1  A    between atoms: N_5  and  C_12
REMARK    2  A    between atoms: N_6  and  C_13
REMARK    3  A    between atoms: N_7  and  C_18
REMARK    4  A    between atoms: C_18  and  C_22
REMARK    5  A    between atoms: C_19  and  C_23
REMARK                            x       y       z     vdW  Elec       q    Type
REMARK                         _______ _______ _______ _____ _____    ______ ____
ROOT
ATOM      1  O   UNL     1      -5.779  -8.940  10.802  0.00  0.00    -0.370 OA
ATOM      2  O   UNL     1      -6.818 -11.862  11.142  0.00  0.00    -0.370 OA
ATOM     10  C   UNL     1      -5.504 -11.280  11.134  0.00  0.00    +0.171 C 
ATOM     11  C   UNL     1      -5.511 -10.167  10.103  0.00  0.00    +0.171 C 
ATOM     12  C   UNL     1      -5.237 -10.571  12.441  0.00  0.00    +0.130 C 
ATOM     13  C   UNL     1      -6.666 -10.517   9.193  0.00  0.00    +0.131 C 
ATOM     14  C   UNL     1      -5.854  -9.203  12.210  0.00  0.00    +0.185 C 
ATOM     15  C   UNL     1      -7.620 -11.226  10.137  0.00  0.00    +0.185 C 
ENDROOT
BRANCH  12   5
ATOM      5  N   UNL     1      -3.812 -10.447  12.654  0.00  0.00    -0.306 N 
ATOM      8  N   UNL     1      -4.024 -10.711  14.977  0.00  0.00    -0.211 NA
ATOM      9  N   UNL     1      -1.864 -10.385  13.961  0.00  0.00    -0.223 NA
ATOM     16  C   UNL     1      -3.216 -10.516  13.901  0.00  0.00    +0.216 A 
ATOM     19  C   UNL     1      -3.411 -10.775  16.176  0.00  0.00    +0.111 A 
ATOM     20  C   UNL     1      -1.316 -10.457  15.192  0.00  0.00    +0.116 A 
ATOM     21  C   UNL     1      -2.047 -10.653  16.347  0.00  0.00    +0.051 A 
ATOM     32  H   UNL     1      -3.194 -10.353  11.856  0.00  0.00    +0.149 HD
BRANCH  19  23
ATOM      4  O   UNL     1      -5.493 -10.354  17.209  0.00  0.00    -0.461 OA
ATOM     23  C   UNL     1      -4.292 -10.981  17.294  0.00  0.00    +0.153 A 
ATOM     26  C   UNL     1      -4.194 -11.687  18.468  0.00  0.00    +0.051 A 
ATOM     29  C   UNL     1      -5.416 -11.484  19.150  0.00  0.00    +0.042 A 
ATOM     31  C   UNL     1      -6.173 -10.665  18.343  0.00  0.00    +0.196 A 
ENDBRANCH  19  23
ENDBRANCH  12   5
BRANCH  13   6
ATOM      3  O   UNL     1      -5.726  -9.735   6.578  0.00  0.00    -0.253 OA
ATOM      6  N   UNL     1      -6.243 -11.389   8.125  0.00  0.00    -0.292 N 
ATOM      7  N   UNL     1      -5.455 -11.977   6.044  0.00  0.00    -0.295 N 
ATOM     17  C   UNL     1      -5.801 -10.924   6.887  0.00  0.00    +0.300 C 
ATOM     33  H   UNL     1      -6.203 -12.388   8.302  0.00  0.00    +0.151 HD
ATOM     34  H   UNL     1      -5.529 -12.928   6.394  0.00  0.00    +0.151 HD
BRANCH   7  18
ATOM     18  C   UNL     1      -4.966 -11.775   4.700  0.00  0.00    +0.141 C 
BRANCH  18  22
ATOM     22  C   UNL     1      -3.702 -12.543   4.441  0.00  0.00    -0.030 A 
ATOM     24  C   UNL     1      -3.070 -13.199   5.490  0.00  0.00    +0.005 A 
ATOM     25  C   UNL     1      -3.177 -12.591   3.154  0.00  0.00    +0.005 A 
ATOM     27  C   UNL     1      -1.896 -13.913   5.249  0.00  0.00    +0.000 A 
ATOM     28  C   UNL     1      -2.004 -13.305   2.914  0.00  0.00    +0.000 A 
ATOM     30  C   UNL     1      -1.362 -13.966   3.961  0.00  0.00    +0.000 A 
ENDBRANCH  18  22
ENDBRANCH   7  18
ENDBRANCH  13   6
TORSDOF 5
ENDMDL
MODEL 5
REMARK VINA RESULT:      -7.0      5.374     11.304
REMARK  Name = 11941649
REMARK  5 active torsions:
REMARK  status: ('A' for Active; 'I' for Inactive)
REMARK    1  A    between atoms: N_5  and  C_12
REMARK    2  A    between atoms: N_6  and  C_13
REMARK    3  A    between atoms: N_7  and  C_18
REMARK    4  A    between atoms: C_18  and  C_22
REMARK    5  A    between atoms: C_19  and  C_23
REMARK                            x       y       z     vdW  Elec       q    Type
REMARK                         _______ _______ _______ _____ _____    ______ ____
ROOT
ATOM      1  O   UNL     1      -3.656  -9.003  10.101  0.00  0.00    -0.370 OA
ATOM      2  O   UNL     1      -5.011 -11.814  10.092  0.00  0.00    -0.370 OA
ATOM     10  C   UNL     1      -5.488 -10.492  10.396  0.00  0.00    +0.171 C 
ATOM     11  C   UNL     1      -4.362  -9.758  11.099  0.00  0.00    +0.171 C 
ATOM     12  C   UNL     1      -5.704  -9.707   9.123  0.00  0.00    +0.130 C 
ATOM     13  C   UNL     1      -3.485 -10.863  11.641  0.00  0.00    +0.131 C 
ATOM     14  C   UNL     1      -4.320  -9.151   8.838  0.00  0.00    +0.185 C 
ATOM     15  C   UNL     1      -3.685 -11.968  10.619  0.00  0.00    +0.185 C 
ENDROOT
BRANCH  12   5
ATOM      5  N   UNL     1      -6.637  -8.628   9.360  0.00  0.00    -0.306 N 
ATOM      8  N   UNL     1      -7.384  -8.638   7.135  0.00  0.00    -0.211 NA
ATOM      9  N   UNL     1      -8.296  -7.089   8.740  0.00  0.00    -0.223 NA
ATOM     16  C   UNL     1      -7.464  -8.103   8.382  0.00  0.00    +0.216 A 
ATOM     19  C   UNL     1      -8.204  -8.104   6.207  0.00  0.00    +0.111 A 
ATOM     20  C   UNL     1      -9.088  -6.601   7.762  0.00  0.00    +0.116 A 
ATOM     21  C   UNL     1      -9.086  -7.074   6.465  0.00  0.00    +0.051 A 
ATOM     32  H   UNL     1      -6.742  -8.256  10.297  0.00  0.00    +0.149 HD
BRANCH  19  23
ATOM      4  O   UNL     1      -8.509  -7.901   3.873  0.00  0.00    -0.461 OA
ATOM     23  C   UNL     1      -8.096  -8.690   4.898  0.00  0.00    +0.153 A 
ATOM     26  C   UNL     1      -7.660  -9.906   4.431  0.00  0.00    +0.051 A 
ATOM     29  C   UNL     1      -7.813  -9.863   3.026  0.00  0.00    +0.042 A 
ATOM     31  C   UNL     1      -8.332  -8.622   2.736  0.00  0.00    +0.196 A 
ENDBRANCH  19  23
ENDBRANCH  12   5
BRANCH  13   6
ATOM      3  O   UNL     1      -2.293 -10.157  14.173  0.00  0.00    -0.253 OA
ATOM      6  N   UNL     1      -3.919 -11.279  12.952  0.00  0.00    -0.292 N 
ATOM      7  N   UNL     1      -3.906 -11.432  15.248  0.00  0.00    -0.295 N 
ATOM     17  C   UNL     1      -3.281 -10.889  14.129  0.00  0.00    +0.300 C 
ATOM     33  H   UNL     1      -4.768 -11.831  13.029  0.00  0.00    +0.151 HD
ATOM     34  H   UNL     1      -4.732 -12.008  15.115  0.00  0.00    +0.151 HD
BRANCH   7  18
ATOM     18  C   UNL     1      -3.448 -11.187  16.596  0.00  0.00    +0.141 C 
BRANCH  18  22
ATOM     22  C   UNL     1      -4.590 -11.014  17.555  0.00  0.00    -0.030 A 
ATOM     24  C   UNL     1      -5.716 -10.300  17.160  0.00  0.00    +0.005 A 
ATOM     25  C   UNL     1      -4.511 -11.569  18.827  0.00  0.00    +0.005 A 
ATOM     27  C   UNL     1      -6.777 -10.139  18.051  0.00  0.00    +0.000 A 
ATOM     28  C   UNL     1      -5.573 -11.408  19.716  0.00  0.00    +0.000 A 
ATOM     30  C   UNL     1      -6.706 -10.693  19.329  0.00  0.00    +0.000 A 
ENDBRANCH  18  22
ENDBRANCH   7  18
ENDBRANCH  13   6
TORSDOF 5
ENDMDL
MODEL 6
REMARK VINA RESULT:      -6.9      3.588     10.578
REMARK  Name = 11941649
REMARK  5 active torsions:
REMARK  status: ('A' for Active; 'I' for Inactive)
REMARK    1  A    between atoms: N_5  and  C_12
REMARK    2  A    between atoms: N_6  and  C_13
REMARK    3  A    between atoms: N_7  and  C_18
REMARK    4  A    between atoms: C_18  and  C_22
REMARK    5  A    between atoms: C_19  and  C_23
REMARK                            x       y       z     vdW  Elec       q    Type
REMARK                         _______ _______ _______ _____ _____    ______ ____
ROOT
ATOM      1  O   UNL     1      -1.907  -9.951  12.790  0.00  0.00    -0.370 OA
ATOM      2  O   UNL     1      -2.915 -12.879  12.402  0.00  0.00    -0.370 OA
ATOM     10  C   UNL     1      -3.587 -11.613  12.514  0.00  0.00    +0.171 C 
ATOM     11  C   UNL     1      -2.819 -10.783  13.525  0.00  0.00    +0.171 C 
ATOM     12  C   UNL     1      -3.460 -10.836  11.225  0.00  0.00    +0.130 C 
ATOM     13  C   UNL     1      -2.060 -11.806  14.338  0.00  0.00    +0.131 C 
ATOM     14  C   UNL     1      -2.117 -10.146  11.384  0.00  0.00    +0.185 C 
ATOM     15  C   UNL     1      -1.818 -12.912  13.327  0.00  0.00    +0.185 C 
ENDROOT
BRANCH  12   5
ATOM      5  N   UNL     1      -4.518  -9.855  11.132  0.00  0.00    -0.306 N 
ATOM      8  N   UNL     1      -4.913 -10.332   8.869  0.00  0.00    -0.211 NA
ATOM      9  N   UNL     1      -6.204  -8.657  10.024  0.00  0.00    -0.223 NA
ATOM     16  C   UNL     1      -5.233  -9.607   9.973  0.00  0.00    +0.216 A 
ATOM     19  C   UNL     1      -5.629 -10.066   7.757  0.00  0.00    +0.111 A 
ATOM     20  C   UNL     1      -6.881  -8.442   8.876  0.00  0.00    +0.116 A 
ATOM     21  C   UNL     1      -6.635  -9.123   7.701  0.00  0.00    +0.051 A 
ATOM     32  H   UNL     1      -4.800  -9.346  11.962  0.00  0.00    +0.149 HD
BRANCH  19  23
ATOM      4  O   UNL     1      -4.226 -11.700   6.787  0.00  0.00    -0.461 OA
ATOM     23  C   UNL     1      -5.267 -10.848   6.605  0.00  0.00    +0.153 A 
ATOM     26  C   UNL     1      -5.746 -10.931   5.321  0.00  0.00    +0.051 A 
ATOM     29  C   UNL     1      -4.949 -11.900   4.668  0.00  0.00    +0.042 A 
ATOM     31  C   UNL     1      -4.039 -12.338   5.602  0.00  0.00    +0.196 A 
ENDBRANCH  19  23
ENDBRANCH  12   5
BRANCH  13   6
ATOM      3  O   UNL     1      -2.826 -10.312  16.687  0.00  0.00    -0.253 OA
ATOM      6  N   UNL     1      -2.848 -12.279  15.451  0.00  0.00    -0.292 N 
ATOM      7  N   UNL     1      -3.940 -12.190  17.474  0.00  0.00    -0.295 N 
ATOM     17  C   UNL     1      -3.172 -11.485  16.550  0.00  0.00    +0.300 C 
ATOM     33  H   UNL     1      -3.240 -13.214  15.404  0.00  0.00    +0.151 HD
ATOM     34  H   UNL     1      -4.196 -13.150  17.266  0.00  0.00    +0.151 HD
BRANCH   7  18
ATOM     18  C   UNL     1      -4.413 -11.604  18.707  0.00  0.00    +0.141 C 
BRANCH  18  22
ATOM     22  C   UNL     1      -5.882 -11.300  18.657  0.00  0.00    -0.030 A 
ATOM     24  C   UNL     1      -6.772 -12.091  19.375  0.00  0.00    +0.005 A 
ATOM     25  C   UNL     1      -6.338 -10.231  17.894  0.00  0.00    +0.005 A 
ATOM     27  C   UNL     1      -8.137 -11.808  19.329  0.00  0.00    +0.000 A 
ATOM     28  C   UNL     1      -7.704  -9.949  17.849  0.00  0.00    +0.000 A 
ATOM     30  C   UNL     1      -8.603 -10.737  18.566  0.00  0.00    +0.000 A 
ENDBRANCH  18  22
ENDBRANCH   7  18
ENDBRANCH  13   6
TORSDOF 5
ENDMDL
MODEL 7
REMARK VINA RESULT:      -6.8      3.986      9.597
REMARK  Name = 11941649
REMARK  5 active torsions:
REMARK  status: ('A' for Active; 'I' for Inactive)
REMARK    1  A    between atoms: N_5  and  C_12
REMARK    2  A    between atoms: N_6  and  C_13
REMARK    3  A    between atoms: N_7  and  C_18
REMARK    4  A    between atoms: C_18  and  C_22
REMARK    5  A    between atoms: C_19  and  C_23
REMARK                            x       y       z     vdW  Elec       q    Type
REMARK                         _______ _______ _______ _____ _____    ______ ____
ROOT
ATOM      1  O   UNL     1      -7.056 -11.507  18.343  0.00  0.00    -0.370 OA
ATOM      2  O   UNL     1      -7.685 -11.386  15.289  0.00  0.00    -0.370 OA
ATOM     10  C   UNL     1      -6.627 -10.845  16.098  0.00  0.00    +0.171 C 
ATOM     11  C   UNL     1      -7.242 -10.423  17.419  0.00  0.00    +0.171 C 
ATOM     12  C   UNL     1      -5.649 -11.932  16.477  0.00  0.00    +0.130 C 
ATOM     13  C   UNL     1      -8.709 -10.247  17.101  0.00  0.00    +0.131 C 
ATOM     14  C   UNL     1      -6.291 -12.543  17.710  0.00  0.00    +0.185 C 
ATOM     15  C   UNL     1      -8.927 -11.266  15.997  0.00  0.00    +0.185 C 
ENDROOT
BRANCH  12   5
ATOM      5  N   UNL     1      -4.369 -11.350  16.817  0.00  0.00    -0.306 N 
ATOM      8  N   UNL     1      -3.721 -11.190  14.567  0.00  0.00    -0.211 NA
ATOM      9  N   UNL     1      -2.259 -10.446  16.332  0.00  0.00    -0.223 NA
ATOM     16  C   UNL     1      -3.421 -10.985  15.877  0.00  0.00    +0.216 A 
ATOM     19  C   UNL     1      -2.775 -10.823  13.678  0.00  0.00    +0.111 A 
ATOM     20  C   UNL     1      -1.357 -10.101  15.389  0.00  0.00    +0.116 A 
ATOM     21  C   UNL     1      -1.563 -10.268  14.034  0.00  0.00    +0.051 A 
ATOM     32  H   UNL     1      -4.157 -11.144  17.786  0.00  0.00    +0.149 HD
BRANCH  19  23
ATOM      4  O   UNL     1      -3.283  -9.934  11.549  0.00  0.00    -0.461 OA
ATOM     23  C   UNL     1      -3.120 -11.053  12.301  0.00  0.00    +0.153 A 
ATOM     26  C   UNL     1      -3.332 -12.181  11.547  0.00  0.00    +0.051 A 
ATOM     29  C   UNL     1      -3.645 -11.728  10.244  0.00  0.00    +0.042 A 
ATOM     31  C   UNL     1      -3.602 -10.354  10.297  0.00  0.00    +0.196 A 
ENDBRANCH  19  23
ENDBRANCH  12   5
BRANCH  13   6
ATOM      3  O   UNL     1     -11.028  -8.642  17.716  0.00  0.00    -0.253 OA
ATOM      6  N   UNL     1      -8.987  -8.909  16.640  0.00  0.00    -0.292 N 
ATOM      7  N   UNL     1     -10.153  -6.938  16.406  0.00  0.00    -0.295 N 
ATOM     17  C   UNL     1     -10.139  -8.203  16.988  0.00  0.00    +0.300 C 
ATOM     33  H   UNL     1      -8.283  -8.431  16.087  0.00  0.00    +0.151 HD
ATOM     34  H   UNL     1      -9.362  -6.654  15.836  0.00  0.00    +0.151 HD
BRANCH   7  18
ATOM     18  C   UNL     1     -11.232  -5.999  16.602  0.00  0.00    +0.141 C 
BRANCH  18  22
ATOM     22  C   UNL     1     -12.250  -6.074  15.500  0.00  0.00    -0.030 A 
ATOM     24  C   UNL     1     -13.486  -6.660  15.746  0.00  0.00    +0.005 A 
ATOM     25  C   UNL     1     -11.945  -5.556  14.247  0.00  0.00    +0.005 A 
ATOM     27  C   UNL     1     -14.431  -6.730  14.723  0.00  0.00    +0.000 A 
ATOM     28  C   UNL     1     -12.891  -5.626  13.224  0.00  0.00    +0.000 A 
ATOM     30  C   UNL     1     -14.134  -6.212  13.462  0.00  0.00    +0.000 A 
ENDBRANCH  18  22
ENDBRANCH   7  18
ENDBRANCH  13   6
TORSDOF 5
ENDMDL
MODEL 8
REMARK VINA RESULT:      -6.8     19.403     22.246
REMARK  Name = 11941649
REMARK  5 active torsions:
REMARK  status: ('A' for Active; 'I' for Inactive)
REMARK    1  A    between atoms: N_5  and  C_12
REMARK    2  A    between atoms: N_6  and  C_13
REMARK    3  A    between atoms: N_7  and  C_18
REMARK    4  A    between atoms: C_18  and  C_22
REMARK    5  A    between atoms: C_19  and  C_23
REMARK                            x       y       z     vdW  Elec       q    Type
REMARK                         _______ _______ _______ _____ _____    ______ ____
ROOT
ATOM      1  O   UNL     1     -15.004   4.695  21.700  0.00  0.00    -0.370 OA
ATOM      2  O   UNL     1     -16.609   6.832  23.310  0.00  0.00    -0.370 OA
ATOM     10  C   UNL     1     -15.207   6.634  23.063  0.00  0.00    +0.171 C 
ATOM     11  C   UNL     1     -14.956   5.138  23.066  0.00  0.00    +0.171 C 
ATOM     12  C   UNL     1     -14.855   7.065  21.658  0.00  0.00    +0.130 C 
ATOM     13  C   UNL     1     -16.122   4.573  23.844  0.00  0.00    +0.131 C 
ATOM     14  C   UNL     1     -15.183   5.829  20.840  0.00  0.00    +0.185 C 
ATOM     15  C   UNL     1     -17.232   5.559  23.530  0.00  0.00    +0.185 C 
ENDROOT
BRANCH  12   5
ATOM      5  N   UNL     1     -13.443   7.363  21.571  0.00  0.00    -0.306 N 
ATOM      8  N   UNL     1     -13.560   7.774  19.263  0.00  0.00    -0.211 NA
ATOM      9  N   UNL     1     -11.472   7.969  20.451  0.00  0.00    -0.223 NA
ATOM     16  C   UNL     1     -12.806   7.712  20.393  0.00  0.00    +0.216 A 
ATOM     19  C   UNL     1     -12.907   8.118  18.133  0.00  0.00    +0.111 A 
ATOM     20  C   UNL     1     -10.883   8.306  19.284  0.00  0.00    +0.116 A 
ATOM     21  C   UNL     1     -11.557   8.398  18.083  0.00  0.00    +0.051 A 
ATOM     32  H   UNL     1     -12.882   7.372  22.415  0.00  0.00    +0.149 HD
BRANCH  19  23
ATOM      4  O   UNL     1     -15.034   7.842  17.143  0.00  0.00    -0.461 OA
ATOM     23  C   UNL     1     -13.730   8.174  16.955  0.00  0.00    +0.153 A 
ATOM     26  C   UNL     1     -13.494   8.494  15.641  0.00  0.00    +0.051 A 
ATOM     29  C   UNL     1     -14.733   8.352  14.974  0.00  0.00    +0.042 A 
ATOM     31  C   UNL     1     -15.638   7.953  15.931  0.00  0.00    +0.196 A 
ENDBRANCH  19  23
ENDBRANCH  12   5
BRANCH  13   6
ATOM      3  O   UNL     1     -17.514   3.047  25.860  0.00  0.00    -0.253 OA
ATOM      6  N   UNL     1     -15.838   4.537  25.258  0.00  0.00    -0.292 N 
ATOM      7  N   UNL     1     -16.080   3.920  27.462  0.00  0.00    -0.295 N 
ATOM     17  C   UNL     1     -16.565   3.768  26.166  0.00  0.00    +0.300 C 
ATOM     33  H   UNL     1     -15.030   5.047  25.603  0.00  0.00    +0.151 HD
ATOM     34  H   UNL     1     -15.276   4.522  27.615  0.00  0.00    +0.151 HD
BRANCH   7  18
ATOM     18  C   UNL     1     -16.653   3.235  28.597  0.00  0.00    +0.141 C 
BRANCH  18  22
ATOM     22  C   UNL     1     -15.646   2.368  29.296  0.00  0.00    -0.030 A 
ATOM     24  C   UNL     1     -15.816   0.989  29.306  0.00  0.00    +0.005 A 
ATOM     25  C   UNL     1     -14.553   2.953  29.926  0.00  0.00    +0.005 A 
ATOM     27  C   UNL     1     -14.881   0.183  29.955  0.00  0.00    +0.000 A 
ATOM     28  C   UNL     1     -13.619   2.147  30.575  0.00  0.00    +0.000 A 
ATOM     30  C   UNL     1     -13.782   0.762  30.590  0.00  0.00    +0.000 A 
ENDBRANCH  18  22
ENDBRANCH   7  18
ENDBRANCH  13   6
TORSDOF 5
ENDMDL
MODEL 9
REMARK VINA RESULT:      -6.7     20.086     24.024
REMARK  Name = 11941649
REMARK  5 active torsions:
REMARK  status: ('A' for Active; 'I' for Inactive)
REMARK    1  A    between atoms: N_5  and  C_12
REMARK    2  A    between atoms: N_6  and  C_13
REMARK    3  A    between atoms: N_7  and  C_18
REMARK    4  A    between atoms: C_18  and  C_22
REMARK    5  A    between atoms: C_19  and  C_23
REMARK                            x       y       z     vdW  Elec       q    Type
REMARK                         _______ _______ _______ _____ _____    ______ ____
ROOT
ATOM      1  O   UNL     1     -15.830   6.731  33.954  0.00  0.00    -0.370 OA
ATOM      2  O   UNL     1     -16.055   6.894  30.846  0.00  0.00    -0.370 OA
ATOM     10  C   UNL     1     -15.380   5.991  31.738  0.00  0.00    +0.171 C 
ATOM     11  C   UNL     1     -14.857   6.813  32.900  0.00  0.00    +0.171 C 
ATOM     12  C   UNL     1     -16.371   5.043  32.372  0.00  0.00    +0.130 C 
ATOM     13  C   UNL     1     -14.790   8.221  32.353  0.00  0.00    +0.131 C 
ATOM     14  C   UNL     1     -16.884   5.843  33.556  0.00  0.00    +0.185 C 
ATOM     15  C   UNL     1     -15.927   8.232  31.346  0.00  0.00    +0.185 C 
ENDROOT
BRANCH  12   5
ATOM      5  N   UNL     1     -15.692   3.851  32.830  0.00  0.00    -0.306 N 
ATOM      8  N   UNL     1     -15.852   2.818  30.729  0.00  0.00    -0.211 NA
ATOM      9  N   UNL     1     -14.787   1.701  32.579  0.00  0.00    -0.223 NA
ATOM     16  C   UNL     1     -15.436   2.757  32.022  0.00  0.00    +0.216 A 
ATOM     19  C   UNL     1     -15.586   1.736  29.969  0.00  0.00    +0.111 A 
ATOM     20  C   UNL     1     -14.554   0.652  31.763  0.00  0.00    +0.116 A 
ATOM     21  C   UNL     1     -14.934   0.613  30.436  0.00  0.00    +0.051 A 
ATOM     32  H   UNL     1     -15.331   3.816  33.777  0.00  0.00    +0.149 HD
BRANCH  19  23
ATOM      4  O   UNL     1     -16.460   0.663  28.054  0.00  0.00    -0.461 OA
ATOM     23  C   UNL     1     -16.039   1.830  28.607  0.00  0.00    +0.153 A 
ATOM     26  C   UNL     1     -16.143   2.861  27.706  0.00  0.00    +0.051 A 
ATOM     29  C   UNL     1     -16.665   2.294  26.521  0.00  0.00    +0.042 A 
ATOM     31  C   UNL     1     -16.841   0.954  26.783  0.00  0.00    +0.196 A 
ENDBRANCH  19  23
ENDBRANCH  12   5
BRANCH  13   6
ATOM      3  O   UNL     1     -13.805  10.755  31.385  0.00  0.00    -0.253 OA
ATOM      6  N   UNL     1     -13.522   8.473  31.713  0.00  0.00    -0.292 N 
ATOM      7  N   UNL     1     -11.860   9.695  30.695  0.00  0.00    -0.295 N 
ATOM     17  C   UNL     1     -13.125   9.735  31.274  0.00  0.00    +0.300 C 
ATOM     33  H   UNL     1     -12.859   7.709  31.635  0.00  0.00    +0.151 HD
ATOM     34  H   UNL     1     -11.363   8.810  30.668  0.00  0.00    +0.151 HD
BRANCH   7  18
ATOM     18  C   UNL     1     -11.208  10.866  30.156  0.00  0.00    +0.141 C 
BRANCH  18  22
ATOM     22  C   UNL     1     -11.360  10.957  28.665  0.00  0.00    -0.030 A 
ATOM     24  C   UNL     1     -10.830   9.957  27.859  0.00  0.00    +0.005 A 
ATOM     25  C   UNL     1     -12.029  12.040  28.106  0.00  0.00    +0.005 A 
ATOM     27  C   UNL     1     -10.971  10.041  26.474  0.00  0.00    +0.000 A 
ATOM     28  C   UNL     1     -12.169  12.123  26.721  0.00  0.00    +0.000 A 
ATOM     30  C   UNL     1     -11.641  11.124  25.904  0.00  0.00    +0.000 A 
ENDBRANCH  18  22
ENDBRANCH   7  18
ENDBRANCH  13   6
TORSDOF 5
ENDMDL
MODEL 10
REMARK VINA RESULT:      -6.7      1.908      2.398
REMARK  Name = 11941649
REMARK  5 active torsions:
REMARK  status: ('A' for Active; 'I' for Inactive)
REMARK    1  A    between atoms: N_5  and  C_12
REMARK    2  A    between atoms: N_6  and  C_13
REMARK    3  A    between atoms: N_7  and  C_18
REMARK    4  A    between atoms: C_18  and  C_22
REMARK    5  A    between atoms: C_19  and  C_23
REMARK                            x       y       z     vdW  Elec       q    Type
REMARK                         _______ _______ _______ _____ _____    ______ ____
ROOT
ATOM      1  O   UNL     1      -4.486 -12.353  18.910  0.00  0.00    -0.370 OA
ATOM      2  O   UNL     1      -5.516 -10.046  17.079  0.00  0.00    -0.370 OA
ATOM     10  C   UNL     1      -6.107 -11.270  17.546  0.00  0.00    +0.171 C 
ATOM     11  C   UNL     1      -5.010 -12.317  17.573  0.00  0.00    +0.171 C 
ATOM     12  C   UNL     1      -6.523 -11.134  18.992  0.00  0.00    +0.130 C 
ATOM     13  C   UNL     1      -3.971 -11.785  16.614  0.00  0.00    +0.131 C 
ATOM     14  C   UNL     1      -5.241 -11.458  19.738  0.00  0.00    +0.185 C 
ATOM     15  C   UNL     1      -4.140 -10.282  16.753  0.00  0.00    +0.185 C 
ENDROOT
BRANCH  12   5
ATOM      5  N   UNL     1      -7.545 -12.108  19.307  0.00  0.00    -0.306 N 
ATOM      8  N   UNL     1      -9.258 -10.751  18.454  0.00  0.00    -0.211 NA
ATOM      9  N   UNL     1      -9.745 -12.918  19.388  0.00  0.00    -0.223 NA
ATOM     16  C   UNL     1      -8.890 -11.920  19.042  0.00  0.00    +0.216 A 
ATOM     19  C   UNL     1     -10.577 -10.600  18.209  0.00  0.00    +0.111 A 
ATOM     20  C   UNL     1     -11.049 -12.700  19.115  0.00  0.00    +0.116 A 
ATOM     21  C   UNL     1     -11.527 -11.550  18.521  0.00  0.00    +0.051 A 
ATOM     32  H   UNL     1      -7.276 -13.004  19.697  0.00  0.00    +0.149 HD
BRANCH  19  23
ATOM      4  O   UNL     1      -9.926  -8.454  17.467  0.00  0.00    -0.461 OA
ATOM     23  C   UNL     1     -10.935  -9.353  17.588  0.00  0.00    +0.153 A 
ATOM     26  C   UNL     1     -12.103  -8.846  17.074  0.00  0.00    +0.051 A 
ATOM     29  C   UNL     1     -11.793  -7.549  16.604  0.00  0.00    +0.042 A 
ATOM     31  C   UNL     1     -10.456  -7.357  16.866  0.00  0.00    +0.196 A 
ENDBRANCH  19  23
ENDBRANCH  12   5
BRANCH  13   6
ATOM      3  O   UNL     1      -2.140 -11.741  14.383  0.00  0.00    -0.253 OA
ATOM      6  N   UNL     1      -4.235 -12.218  15.263  0.00  0.00    -0.292 N 
ATOM      7  N   UNL     1      -3.806 -12.641  13.042  0.00  0.00    -0.295 N 
ATOM     17  C   UNL     1      -3.288 -12.161  14.242  0.00  0.00    +0.300 C 
ATOM     33  H   UNL     1      -5.134 -12.644  15.058  0.00  0.00    +0.151 HD
ATOM     34  H   UNL     1      -4.761 -12.989  13.027  0.00  0.00    +0.151 HD
BRANCH   7  18
ATOM     18  C   UNL     1      -3.035 -12.694  11.822  0.00  0.00    +0.141 C 
BRANCH  18  22
ATOM     22  C   UNL     1      -3.346 -11.542  10.911  0.00  0.00    -0.030 A 
ATOM     24  C   UNL     1      -2.765 -10.302  11.148  0.00  0.00    +0.005 A 
ATOM     25  C   UNL     1      -4.211 -11.728   9.838  0.00  0.00    +0.005 A 
ATOM     27  C   UNL     1      -3.053  -9.232  10.301  0.00  0.00    +0.000 A 
ATOM     28  C   UNL     1      -4.499 -10.657   8.992  0.00  0.00    +0.000 A 
ATOM     30  C   UNL     1      -3.920  -9.409   9.223  0.00  0.00    +0.000 A 
ENDBRANCH  18  22
ENDBRANCH   7  18
ENDBRANCH  13   6
TORSDOF 5
ENDMDL
