REMARK  Name = 26744652
REMARK  11 active torsions:
REMARK  status: ('A' for Active; 'I' for Inactive)
REMARK    1  A    between atoms: O_3  and  C_10
REMARK    2  A    between atoms: O_4  and  C_11
REMARK    3  A    between atoms: N_7  and  C_15
REMARK    4  A    between atoms: N_7  and  C_19
REMARK    5  A    between atoms: N_8  and  C_18
REMARK    6  A    between atoms: N_9  and  C_17
REMARK    7  A    between atoms: C_12  and  C_14
REMARK    8  A    between atoms: C_13  and  C_15
REMARK    9  A    between atoms: C_14  and  C_16
REMARK   10  A    between atoms: C_17  and  C_18
REMARK   11  A    between atoms: C_19  and  C_24
REMARK                            x       y       z     vdW  Elec       q    Type
REMARK                         _______ _______ _______ _____ _____    ______ ____
ROOT
ATOM      2  O   UNL     1      -2.527  -0.308  -0.463  0.00  0.00    -0.366 OA
ATOM     10  C   UNL     1      -4.772  -0.204   0.249  0.00  0.00    +0.175 C 
ATOM     11  C   UNL     1      -4.633   0.668  -0.981  0.00  0.00    +0.175 C 
ATOM     12  C   UNL     1      -3.567  -1.119   0.111  0.00  0.00    +0.158 C 
ATOM     13  C   UNL     1      -3.123   0.865  -1.062  0.00  0.00    +0.163 C 
ENDROOT
BRANCH  10   3
ATOM      3  O   UNL     1      -5.984  -0.927   0.288  0.00  0.00    -0.387 OA
ATOM     30  H   UNL     1      -6.710  -0.280   0.257  0.00  0.00    +0.210 HD
ENDBRANCH  10   3
BRANCH  11   4
ATOM      4  O   UNL     1      -5.049  -0.046  -2.145  0.00  0.00    -0.387 OA
ATOM     31  H   UNL     1      -4.910   0.539  -2.910  0.00  0.00    +0.210 HD
ENDBRANCH  11   4
BRANCH  12  14
ATOM     14  C   UNL     1      -3.095  -1.697   1.433  0.00  0.00    +0.130 C 
BRANCH  14  16
ATOM      5  O   UNL     1      -1.844  -3.739   1.089  0.00  0.00    -0.276 OA
ATOM      8  N   UNL     1      -0.693  -1.746   1.413  0.00  0.00    -0.314 N 
ATOM     16  C   UNL     1      -1.833  -2.527   1.289  0.00  0.00    +0.216 C 
ATOM     33  H   UNL     1      -0.787  -0.744   1.554  0.00  0.00    +0.149 HD
BRANCH   8  18
ATOM     18  C   UNL     1       0.645  -2.283   1.319  0.00  0.00    +0.119 C 
BRANCH  18  17
ATOM     17  C   UNL     1       1.150  -2.256  -0.116  0.00  0.00    +0.103 C 
BRANCH  17   9
ATOM      6  O   UNL     1       5.150  -2.874  -1.227  0.00  0.00    -0.377 OA
ATOM      9  N   UNL     1       2.500  -2.812  -0.191  0.00  0.00    -0.297 NA
ATOM     20  C   UNL     1       3.500  -1.806   0.196  0.00  0.00    +0.112 C 
ATOM     21  C   UNL     1       2.784  -3.312  -1.542  0.00  0.00    +0.112 C 
ATOM     22  C   UNL     1       4.900  -2.405   0.098  0.00  0.00    +0.175 C 
ATOM     23  C   UNL     1       4.202  -3.876  -1.598  0.00  0.00    +0.175 C 
ENDBRANCH  17   9
ENDBRANCH  18  17
ENDBRANCH   8  18
ENDBRANCH  14  16
ENDBRANCH  12  14
BRANCH  13  15
ATOM     15  C   UNL     1      -2.638   2.082  -0.285  0.00  0.00    +0.115 C 
BRANCH  15   7
ATOM      7  N   UNL     1      -1.196   2.242  -0.410  0.00  0.00    -0.309 NA
ATOM     32  H   UNL     1      -0.734   1.405  -0.056  0.00  0.00    +0.122 HD
BRANCH   7  19
ATOM     19  C   UNL     1      -0.736   3.412   0.325  0.00  0.00    +0.116 C 
BRANCH  19  24
ATOM      1 CL   UNL     1       4.077   1.977   1.715  0.00  0.00    -0.084 Cl
ATOM     24  C   UNL     1       0.752   3.604   0.200  0.00  0.00    -0.032 A 
ATOM     25  C   UNL     1       1.623   2.796   0.930  0.00  0.00    +0.025 A 
ATOM     26  C   UNL     1       1.259   4.590  -0.647  0.00  0.00    +0.005 A 
ATOM     27  C   UNL     1       3.002   2.973   0.813  0.00  0.00    +0.041 A 
ATOM     28  C   UNL     1       2.638   4.767  -0.764  0.00  0.00    +0.002 A 
ATOM     29  C   UNL     1       3.509   3.959  -0.034  0.00  0.00    +0.020 A 
ENDBRANCH  19  24
ENDBRANCH   7  19
ENDBRANCH  15   7
ENDBRANCH  13  15
TORSDOF 11
