MODEL 1
REMARK VINA RESULT:      -6.1      0.000      0.000
REMARK  Name = 38027239
REMARK  18 active torsions:
REMARK  status: ('A' for Active; 'I' for Inactive)
REMARK    1  A    between atoms: O_3  and  C_29
REMARK    2  A    between atoms: N_5  and  C_14
REMARK    3  A    between atoms: N_6  and  C_26
REMARK    4  A    between atoms: N_6  and  C_27
REMARK    5  A    between atoms: C_7  and  C_11
REMARK    6  A    between atoms: C_8  and  C_14
REMARK    7  A    between atoms: C_10  and  C_15
REMARK    8  A    between atoms: C_11  and  C_16
REMARK    9  A    between atoms: C_11  and  C_17
REMARK   10  A    between atoms: C_12  and  C_18
REMARK   11  A    between atoms: C_15  and  C_19
REMARK   12  A    between atoms: C_20  and  C_22
REMARK   13  A    between atoms: C_21  and  C_22
REMARK   14  A    between atoms: C_21  and  C_23
REMARK   15  A    between atoms: C_21  and  C_24
REMARK   16  A    between atoms: C_21  and  C_25
REMARK   17  A    between atoms: C_23  and  C_29
REMARK   18  A    between atoms: C_26  and  C_28
REMARK                            x       y       z     vdW  Elec       q    Type
REMARK                         _______ _______ _______ _____ _____    ______ ____
ROOT
ATOM      7  C   UNL     1       8.807   8.457   5.816  0.00  0.00    +0.000 C 
ATOM      8  C   UNL     1       8.763   8.371   7.362  0.00  0.00    +0.032 C 
ATOM      9  C   UNL     1       8.321   7.140   5.191  0.00  0.00    +0.012 C 
ATOM     10  C   UNL     1       9.169   5.935   5.638  0.00  0.00    +0.023 C 
ATOM     12  C   UNL     1       9.395   5.930   7.136  0.00  0.00    -0.073 C 
ATOM     13  C   UNL     1       9.196   7.024   7.892  0.00  0.00    -0.022 C 
ATOM     18  C   UNL     1       9.814   4.625   7.753  0.00  0.00    +0.039 C 
ENDROOT
BRANCH   7  11
ATOM     11  C   UNL     1       7.968   9.624   5.287  0.00  0.00    -0.013 C 
ATOM     16  C   UNL     1       8.864  10.810   4.942  0.00  0.00    +0.007 C 
ATOM     17  C   UNL     1       7.156   9.188   4.072  0.00  0.00    +0.007 C 
ENDBRANCH   7  11
BRANCH   8  14
ATOM     14  C   UNL     1       9.618   9.471   8.002  0.00  0.00    +0.112 C 
BRANCH  14   5
ATOM      2  O   UNL     1      11.427  11.567   7.215  0.00  0.00    -0.276 OA
ATOM      5  N   UNL     1      10.992   9.325   7.635  0.00  0.00    -0.315 N 
ATOM     20  C   UNL     1      11.799  10.397   7.266  0.00  0.00    +0.214 C 
ATOM     35  H   UNL     1      11.413   8.402   7.700  0.00  0.00    +0.149 HD
BRANCH  20  22
ATOM     22  C   UNL     1      13.226   9.995   6.923  0.00  0.00    +0.102 C 
BRANCH  22  21
ATOM     21  C   UNL     1      13.435   9.519   5.463  0.00  0.00    -0.017 C 
ATOM     24  C   UNL     1      12.347  10.113   4.542  0.00  0.00    +0.012 C 
ATOM     25  C   UNL     1      14.796  10.061   4.977  0.00  0.00    +0.012 C 
BRANCH  21  23
ATOM     23  C   UNL     1      13.392   7.979   5.321  0.00  0.00    +0.127 C 
BRANCH  23  29
ATOM      4  O   UNL     1      15.275   7.379   6.720  0.00  0.00    -0.251 OA
ATOM     29  C   UNL     1      14.099   7.220   6.423  0.00  0.00    +0.305 C 
BRANCH  29   3
ATOM      3  O   UNL     1      13.291   6.329   7.050  0.00  0.00    -0.481 OA
ATOM     36  H   UNL     1      13.609   5.407   6.948  0.00  0.00    +0.295 HD
ENDBRANCH  29   3
ENDBRANCH  23  29
ENDBRANCH  21  23
ENDBRANCH  22  21
ENDBRANCH  20  22
ENDBRANCH  14   5
ENDBRANCH   8  14
BRANCH  10  15
ATOM     15  C   UNL     1      10.500   5.887   4.881  0.00  0.00    +0.103 C 
BRANCH  15  19
ATOM      1  O   UNL     1      10.554   3.566   4.284  0.00  0.00    -0.276 OA
ATOM      6  N   UNL     1      10.617   5.097   2.543  0.00  0.00    -0.300 N 
ATOM     19  C   UNL     1      10.559   4.736   3.894  0.00  0.00    +0.216 C 
ATOM     27  C   UNL     1      10.621   6.487   2.105  0.00  0.00    +0.132 C 
BRANCH   6  26
ATOM     26  C   UNL     1      10.678   4.107   1.469  0.00  0.00    +0.142 C 
BRANCH  26  28
ATOM     28  C   UNL     1      12.052   4.008   0.874  0.00  0.00    -0.030 A 
ATOM     30  C   UNL     1      13.137   3.655   1.676  0.00  0.00    +0.005 A 
ATOM     31  C   UNL     1      12.244   4.269  -0.483  0.00  0.00    +0.005 A 
ATOM     32  C   UNL     1      14.414   3.564   1.122  0.00  0.00    +0.000 A 
ATOM     33  C   UNL     1      13.521   4.177  -1.037  0.00  0.00    +0.000 A 
ATOM     34  C   UNL     1      14.606   3.825  -0.233  0.00  0.00    +0.000 A 
ENDBRANCH  26  28
ENDBRANCH   6  26
ENDBRANCH  15  19
ENDBRANCH  10  15
TORSDOF 12
ENDMDL
MODEL 2
REMARK VINA RESULT:      -6.0     23.209     26.421
REMARK  Name = 38027239
REMARK  18 active torsions:
REMARK  status: ('A' for Active; 'I' for Inactive)
REMARK    1  A    between atoms: O_3  and  C_29
REMARK    2  A    between atoms: N_5  and  C_14
REMARK    3  A    between atoms: N_6  and  C_26
REMARK    4  A    between atoms: N_6  and  C_27
REMARK    5  A    between atoms: C_7  and  C_11
REMARK    6  A    between atoms: C_8  and  C_14
REMARK    7  A    between atoms: C_10  and  C_15
REMARK    8  A    between atoms: C_11  and  C_16
REMARK    9  A    between atoms: C_11  and  C_17
REMARK   10  A    between atoms: C_12  and  C_18
REMARK   11  A    between atoms: C_15  and  C_19
REMARK   12  A    between atoms: C_20  and  C_22
REMARK   13  A    between atoms: C_21  and  C_22
REMARK   14  A    between atoms: C_21  and  C_23
REMARK   15  A    between atoms: C_21  and  C_24
REMARK   16  A    between atoms: C_21  and  C_25
REMARK   17  A    between atoms: C_23  and  C_29
REMARK   18  A    between atoms: C_26  and  C_28
REMARK                            x       y       z     vdW  Elec       q    Type
REMARK                         _______ _______ _______ _____ _____    ______ ____
ROOT
ATOM      7  C   UNL     1      -3.278 -12.341  13.341  0.00  0.00    +0.000 C 
ATOM      8  C   UNL     1      -2.004 -11.460  13.368  0.00  0.00    +0.032 C 
ATOM      9  C   UNL     1      -3.708 -12.616  11.892  0.00  0.00    +0.012 C 
ATOM     10  C   UNL     1      -3.995 -11.318  11.112  0.00  0.00    +0.023 C 
ATOM     12  C   UNL     1      -2.900 -10.290  11.309  0.00  0.00    -0.073 C 
ATOM     13  C   UNL     1      -2.011 -10.376  12.314  0.00  0.00    -0.022 C 
ATOM     18  C   UNL     1      -2.821  -9.182  10.296  0.00  0.00    +0.039 C 
ENDROOT
BRANCH   7  11
ATOM     11  C   UNL     1      -3.069 -13.665  14.081  0.00  0.00    -0.013 C 
ATOM     16  C   UNL     1      -4.301 -14.555  13.938  0.00  0.00    +0.007 C 
ATOM     17  C   UNL     1      -1.825 -14.376  13.559  0.00  0.00    +0.007 C 
ENDBRANCH   7  11
BRANCH   8  14
ATOM     14  C   UNL     1      -1.798 -10.827  14.750  0.00  0.00    +0.112 C 
BRANCH  14   5
ATOM      2  O   UNL     1      -3.117 -11.439  17.234  0.00  0.00    -0.276 OA
ATOM      5  N   UNL     1      -3.018 -10.260  15.235  0.00  0.00    -0.315 N 
ATOM     20  C   UNL     1      -3.590 -10.614  16.454  0.00  0.00    +0.214 C 
ATOM     35  H   UNL     1      -3.459  -9.525  14.690  0.00  0.00    +0.149 HD
BRANCH  20  22
ATOM     22  C   UNL     1      -4.884  -9.874  16.759  0.00  0.00    +0.102 C 
BRANCH  22  21
ATOM     21  C   UNL     1      -6.167 -10.736  16.647  0.00  0.00    -0.017 C 
ATOM     24  C   UNL     1      -7.420  -9.835  16.623  0.00  0.00    +0.012 C 
ATOM     25  C   UNL     1      -6.116 -11.491  15.303  0.00  0.00    +0.012 C 
BRANCH  21  23
ATOM     23  C   UNL     1      -6.322 -11.737  17.816  0.00  0.00    +0.127 C 
BRANCH  23  29
ATOM      4  O   UNL     1      -6.607 -10.390  19.808  0.00  0.00    -0.251 OA
ATOM     29  C   UNL     1      -5.936 -11.193  19.174  0.00  0.00    +0.305 C 
BRANCH  29   3
ATOM      3  O   UNL     1      -4.752 -11.683  19.620  0.00  0.00    -0.481 OA
ATOM     36  H   UNL     1      -4.064 -11.683  18.922  0.00  0.00    +0.295 HD
ENDBRANCH  29   3
ENDBRANCH  23  29
ENDBRANCH  21  23
ENDBRANCH  22  21
ENDBRANCH  20  22
ENDBRANCH  14   5
ENDBRANCH   8  14
BRANCH  10  15
ATOM     15  C   UNL     1      -5.364 -10.741  11.487  0.00  0.00    +0.103 C 
BRANCH  15  19
ATOM      1  O   UNL     1      -5.954 -11.085   9.189  0.00  0.00    -0.276 OA
ATOM      6  N   UNL     1      -7.549 -10.081  10.541  0.00  0.00    -0.300 N 
ATOM     19  C   UNL     1      -6.299 -10.659  10.295  0.00  0.00    +0.216 C 
ATOM     27  C   UNL     1      -7.935  -9.586  11.857  0.00  0.00    +0.132 C 
BRANCH   6  26
ATOM     26  C   UNL     1      -8.562  -9.930   9.498  0.00  0.00    +0.142 C 
BRANCH  26  28
ATOM     28  C   UNL     1      -8.741  -8.495   9.093  0.00  0.00    -0.030 A 
ATOM     30  C   UNL     1      -7.691  -7.803   8.489  0.00  0.00    +0.005 A 
ATOM     31  C   UNL     1      -9.959  -7.854   9.322  0.00  0.00    +0.005 A 
ATOM     32  C   UNL     1      -7.859  -6.470   8.114  0.00  0.00    +0.000 A 
ATOM     33  C   UNL     1     -10.127  -6.521   8.947  0.00  0.00    +0.000 A 
ATOM     34  C   UNL     1      -9.076  -5.830   8.343  0.00  0.00    +0.000 A 
ENDBRANCH  26  28
ENDBRANCH   6  26
ENDBRANCH  15  19
ENDBRANCH  10  15
TORSDOF 12
ENDMDL
MODEL 3
REMARK VINA RESULT:      -5.8      1.961      4.450
REMARK  Name = 38027239
REMARK  18 active torsions:
REMARK  status: ('A' for Active; 'I' for Inactive)
REMARK    1  A    between atoms: O_3  and  C_29
REMARK    2  A    between atoms: N_5  and  C_14
REMARK    3  A    between atoms: N_6  and  C_26
REMARK    4  A    between atoms: N_6  and  C_27
REMARK    5  A    between atoms: C_7  and  C_11
REMARK    6  A    between atoms: C_8  and  C_14
REMARK    7  A    between atoms: C_10  and  C_15
REMARK    8  A    between atoms: C_11  and  C_16
REMARK    9  A    between atoms: C_11  and  C_17
REMARK   10  A    between atoms: C_12  and  C_18
REMARK   11  A    between atoms: C_15  and  C_19
REMARK   12  A    between atoms: C_20  and  C_22
REMARK   13  A    between atoms: C_21  and  C_22
REMARK   14  A    between atoms: C_21  and  C_23
REMARK   15  A    between atoms: C_21  and  C_24
REMARK   16  A    between atoms: C_21  and  C_25
REMARK   17  A    between atoms: C_23  and  C_29
REMARK   18  A    between atoms: C_26  and  C_28
REMARK                            x       y       z     vdW  Elec       q    Type
REMARK                         _______ _______ _______ _____ _____    ______ ____
ROOT
ATOM      7  C   UNL     1      12.349   7.946   2.166  0.00  0.00    +0.000 C 
ATOM      8  C   UNL     1      11.945   9.332   2.725  0.00  0.00    +0.032 C 
ATOM      9  C   UNL     1      11.437   7.554   0.993  0.00  0.00    +0.012 C 
ATOM     10  C   UNL     1       9.952   7.503   1.400  0.00  0.00    +0.023 C 
ATOM     12  C   UNL     1       9.544   8.726   2.195  0.00  0.00    -0.073 C 
ATOM     13  C   UNL     1      10.448   9.539   2.769  0.00  0.00    -0.022 C 
ATOM     18  C   UNL     1       8.072   9.019   2.279  0.00  0.00    +0.039 C 
ENDROOT
BRANCH   7  11
ATOM     11  C   UNL     1      13.813   7.918   1.717  0.00  0.00    -0.013 C 
ATOM     16  C   UNL     1      14.627   6.989   2.613  0.00  0.00    +0.007 C 
ATOM     17  C   UNL     1      13.914   7.487   0.257  0.00  0.00    +0.007 C 
ENDBRANCH   7  11
BRANCH   8  14
ATOM     14  C   UNL     1      12.533   9.557   4.123  0.00  0.00    +0.112 C 
BRANCH  14   5
ATOM      2  O   UNL     1      12.710   8.166   6.637  0.00  0.00    -0.276 OA
ATOM      5  N   UNL     1      11.516   9.462   5.123  0.00  0.00    -0.315 N 
ATOM     20  C   UNL     1      11.686   8.765   6.317  0.00  0.00    +0.214 C 
ATOM     35  H   UNL     1      10.649   9.972   4.981  0.00  0.00    +0.149 HD
BRANCH  20  22
ATOM     22  C   UNL     1      10.467   8.808   7.226  0.00  0.00    +0.102 C 
BRANCH  22  21
ATOM     21  C   UNL     1       9.429   7.684   6.976  0.00  0.00    -0.017 C 
ATOM     24  C   UNL     1       8.721   7.302   8.294  0.00  0.00    +0.012 C 
ATOM     25  C   UNL     1       8.354   8.236   6.018  0.00  0.00    +0.012 C 
BRANCH  21  23
ATOM     23  C   UNL     1      10.063   6.402   6.386  0.00  0.00    +0.127 C 
BRANCH  23  29
ATOM      4  O   UNL     1       9.853   4.394   7.724  0.00  0.00    -0.251 OA
ATOM     29  C   UNL     1      10.505   5.382   7.413  0.00  0.00    +0.305 C 
BRANCH  29   3
ATOM      3  O   UNL     1      11.706   5.679   7.967  0.00  0.00    -0.481 OA
ATOM     36  H   UNL     1      12.174   4.879   8.289  0.00  0.00    +0.295 HD
ENDBRANCH  29   3
ENDBRANCH  23  29
ENDBRANCH  21  23
ENDBRANCH  22  21
ENDBRANCH  20  22
ENDBRANCH  14   5
ENDBRANCH   8  14
BRANCH  10  15
ATOM     15  C   UNL     1       9.636   6.217   2.170  0.00  0.00    +0.103 C 
BRANCH  15  19
ATOM      1  O   UNL     1       9.849   4.607   0.407  0.00  0.00    -0.276 OA
ATOM      6  N   UNL     1      11.247   4.344   2.238  0.00  0.00    -0.300 N 
ATOM     19  C   UNL     1      10.240   4.990   1.513  0.00  0.00    +0.216 C 
ATOM     27  C   UNL     1      11.694   4.816   3.544  0.00  0.00    +0.132 C 
BRANCH   6  26
ATOM     26  C   UNL     1      11.928   3.150   1.742  0.00  0.00    +0.142 C 
BRANCH  26  28
ATOM     28  C   UNL     1      13.148   3.492   0.937  0.00  0.00    -0.030 A 
ATOM     30  C   UNL     1      14.399   3.543   1.552  0.00  0.00    +0.005 A 
ATOM     31  C   UNL     1      13.030   3.761  -0.427  0.00  0.00    +0.005 A 
ATOM     32  C   UNL     1      15.532   3.862   0.803  0.00  0.00    +0.000 A 
ATOM     33  C   UNL     1      14.163   4.079  -1.176  0.00  0.00    +0.000 A 
ATOM     34  C   UNL     1      15.414   4.130  -0.560  0.00  0.00    +0.000 A 
ENDBRANCH  26  28
ENDBRANCH   6  26
ENDBRANCH  15  19
ENDBRANCH  10  15
TORSDOF 12
ENDMDL
MODEL 4
REMARK VINA RESULT:      -5.7      1.480      2.184
REMARK  Name = 38027239
REMARK  18 active torsions:
REMARK  status: ('A' for Active; 'I' for Inactive)
REMARK    1  A    between atoms: O_3  and  C_29
REMARK    2  A    between atoms: N_5  and  C_14
REMARK    3  A    between atoms: N_6  and  C_26
REMARK    4  A    between atoms: N_6  and  C_27
REMARK    5  A    between atoms: C_7  and  C_11
REMARK    6  A    between atoms: C_8  and  C_14
REMARK    7  A    between atoms: C_10  and  C_15
REMARK    8  A    between atoms: C_11  and  C_16
REMARK    9  A    between atoms: C_11  and  C_17
REMARK   10  A    between atoms: C_12  and  C_18
REMARK   11  A    between atoms: C_15  and  C_19
REMARK   12  A    between atoms: C_20  and  C_22
REMARK   13  A    between atoms: C_21  and  C_22
REMARK   14  A    between atoms: C_21  and  C_23
REMARK   15  A    between atoms: C_21  and  C_24
REMARK   16  A    between atoms: C_21  and  C_25
REMARK   17  A    between atoms: C_23  and  C_29
REMARK   18  A    between atoms: C_26  and  C_28
REMARK                            x       y       z     vdW  Elec       q    Type
REMARK                         _______ _______ _______ _____ _____    ______ ____
ROOT
ATOM      7  C   UNL     1       8.835   8.619   4.541  0.00  0.00    +0.000 C 
ATOM      8  C   UNL     1       8.528   8.952   6.022  0.00  0.00    +0.032 C 
ATOM      9  C   UNL     1       8.472   7.158   4.233  0.00  0.00    +0.012 C 
ATOM     10  C   UNL     1       9.240   6.165   5.127  0.00  0.00    +0.023 C 
ATOM     12  C   UNL     1       9.207   6.578   6.584  0.00  0.00    -0.073 C 
ATOM     13  C   UNL     1       8.874   7.824   6.966  0.00  0.00    -0.022 C 
ATOM     18  C   UNL     1       9.523   5.514   7.596  0.00  0.00    +0.039 C 
ENDROOT
BRANCH   7  11
ATOM     11  C   UNL     1       8.091   9.552   3.582  0.00  0.00    -0.013 C 
ATOM     16  C   UNL     1       8.174   9.023   2.153  0.00  0.00    +0.007 C 
ATOM     17  C   UNL     1       6.637   9.711   4.015  0.00  0.00    +0.007 C 
ENDBRANCH   7  11
BRANCH   8  14
ATOM     14  C   UNL     1       9.254  10.229   6.463  0.00  0.00    +0.112 C 
BRANCH  14   5
ATOM      2  O   UNL     1      11.520  10.266   8.237  0.00  0.00    -0.276 OA
ATOM      5  N   UNL     1      10.633  10.183   6.092  0.00  0.00    -0.315 N 
ATOM     20  C   UNL     1      11.672  10.205   7.019  0.00  0.00    +0.214 C 
ATOM     35  H   UNL     1      10.866  10.073   5.109  0.00  0.00    +0.149 HD
BRANCH  20  22
ATOM     22  C   UNL     1      13.055  10.143   6.387  0.00  0.00    +0.102 C 
BRANCH  22  21
ATOM     21  C   UNL     1      13.541   8.716   6.028  0.00  0.00    -0.017 C 
ATOM     24  C   UNL     1      15.057   8.582   6.290  0.00  0.00    +0.012 C 
ATOM     25  C   UNL     1      12.822   7.720   6.961  0.00  0.00    +0.012 C 
BRANCH  21  23
ATOM     23  C   UNL     1      13.278   8.347   4.549  0.00  0.00    +0.127 C 
BRANCH  23  29
ATOM      4  O   UNL     1      12.017   9.968   3.267  0.00  0.00    -0.251 OA
ATOM     29  C   UNL     1      13.103   9.529   3.621  0.00  0.00    +0.305 C 
BRANCH  29   3
ATOM      3  O   UNL     1      14.283  10.054   3.208  0.00  0.00    -0.481 OA
ATOM     36  H   UNL     1      15.049   9.503   3.478  0.00  0.00    +0.295 HD
ENDBRANCH  29   3
ENDBRANCH  23  29
ENDBRANCH  21  23
ENDBRANCH  22  21
ENDBRANCH  20  22
ENDBRANCH  14   5
ENDBRANCH   8  14
BRANCH  10  15
ATOM     15  C   UNL     1      10.681   5.986   4.639  0.00  0.00    +0.103 C 
BRANCH  15  19
ATOM      1  O   UNL     1      10.630   3.669   4.024  0.00  0.00    -0.276 OA
ATOM      6  N   UNL     1      11.164   5.185   2.352  0.00  0.00    -0.300 N 
ATOM     19  C   UNL     1      10.818   4.833   3.661  0.00  0.00    +0.216 C 
ATOM     27  C   UNL     1      11.381   6.568   1.946  0.00  0.00    +0.132 C 
BRANCH   6  26
ATOM     26  C   UNL     1      11.334   4.192   1.293  0.00  0.00    +0.142 C 
BRANCH  26  28
ATOM     28  C   UNL     1      12.761   4.094   0.838  0.00  0.00    -0.030 A 
ATOM     30  C   UNL     1      13.098   4.413  -0.478  0.00  0.00    +0.005 A 
ATOM     31  C   UNL     1      13.751   3.685   1.732  0.00  0.00    +0.005 A 
ATOM     32  C   UNL     1      14.425   4.322  -0.900  0.00  0.00    +0.000 A 
ATOM     33  C   UNL     1      15.078   3.594   1.310  0.00  0.00    +0.000 A 
ATOM     34  C   UNL     1      15.414   3.913  -0.006  0.00  0.00    +0.000 A 
ENDBRANCH  26  28
ENDBRANCH   6  26
ENDBRANCH  15  19
ENDBRANCH  10  15
TORSDOF 12
ENDMDL
MODEL 5
REMARK VINA RESULT:      -5.7      2.702      7.225
REMARK  Name = 38027239
REMARK  18 active torsions:
REMARK  status: ('A' for Active; 'I' for Inactive)
REMARK    1  A    between atoms: O_3  and  C_29
REMARK    2  A    between atoms: N_5  and  C_14
REMARK    3  A    between atoms: N_6  and  C_26
REMARK    4  A    between atoms: N_6  and  C_27
REMARK    5  A    between atoms: C_7  and  C_11
REMARK    6  A    between atoms: C_8  and  C_14
REMARK    7  A    between atoms: C_10  and  C_15
REMARK    8  A    between atoms: C_11  and  C_16
REMARK    9  A    between atoms: C_11  and  C_17
REMARK   10  A    between atoms: C_12  and  C_18
REMARK   11  A    between atoms: C_15  and  C_19
REMARK   12  A    between atoms: C_20  and  C_22
REMARK   13  A    between atoms: C_21  and  C_22
REMARK   14  A    between atoms: C_21  and  C_23
REMARK   15  A    between atoms: C_21  and  C_24
REMARK   16  A    between atoms: C_21  and  C_25
REMARK   17  A    between atoms: C_23  and  C_29
REMARK   18  A    between atoms: C_26  and  C_28
REMARK                            x       y       z     vdW  Elec       q    Type
REMARK                         _______ _______ _______ _____ _____    ______ ____
ROOT
ATOM      7  C   UNL     1      15.451   9.592   5.082  0.00  0.00    +0.000 C 
ATOM      8  C   UNL     1      15.927   8.122   5.192  0.00  0.00    +0.032 C 
ATOM      9  C   UNL     1      14.792  10.042   6.395  0.00  0.00    +0.012 C 
ATOM     10  C   UNL     1      13.583   9.164   6.771  0.00  0.00    +0.023 C 
ATOM     12  C   UNL     1      13.897   7.688   6.643  0.00  0.00    -0.073 C 
ATOM     13  C   UNL     1      14.956   7.241   5.944  0.00  0.00    -0.022 C 
ATOM     18  C   UNL     1      12.992   6.737   7.373  0.00  0.00    +0.039 C 
ENDROOT
BRANCH   7  11
ATOM     11  C   UNL     1      16.604  10.537   4.729  0.00  0.00    -0.013 C 
ATOM     16  C   UNL     1      16.143  11.585   3.720  0.00  0.00    +0.007 C 
ATOM     17  C   UNL     1      17.150  11.203   5.988  0.00  0.00    +0.007 C 
ENDBRANCH   7  11
BRANCH   8  14
ATOM     14  C   UNL     1      16.192   7.522   3.806  0.00  0.00    +0.112 C 
BRANCH  14   5
ATOM      2  O   UNL     1      14.559   7.482   1.436  0.00  0.00    -0.276 OA
ATOM      5  N   UNL     1      15.192   6.557   3.470  0.00  0.00    -0.315 N 
ATOM     20  C   UNL     1      14.444   6.613   2.297  0.00  0.00    +0.214 C 
ATOM     35  H   UNL     1      15.060   5.763   4.090  0.00  0.00    +0.149 HD
BRANCH  20  22
ATOM     22  C   UNL     1      13.444   5.474   2.157  0.00  0.00    +0.102 C 
BRANCH  22  21
ATOM     21  C   UNL     1      13.801   4.425   1.074  0.00  0.00    -0.017 C 
ATOM     24  C   UNL     1      12.968   3.141   1.273  0.00  0.00    +0.012 C 
ATOM     25  C   UNL     1      13.419   5.014  -0.301  0.00  0.00    +0.012 C 
BRANCH  21  23
ATOM     23  C   UNL     1      15.297   4.031   1.089  0.00  0.00    +0.127 C 
BRANCH  23  29
ATOM      4  O   UNL     1      16.163   3.970  -1.172  0.00  0.00    -0.251 OA
ATOM     29  C   UNL     1      16.099   4.538  -0.090  0.00  0.00    +0.305 C 
BRANCH  29   3
ATOM      3  O   UNL     1      16.754   5.695   0.178  0.00  0.00    -0.481 OA
ATOM     36  H   UNL     1      16.166   6.477   0.115  0.00  0.00    +0.295 HD
ENDBRANCH  29   3
ENDBRANCH  23  29
ENDBRANCH  21  23
ENDBRANCH  22  21
ENDBRANCH  20  22
ENDBRANCH  14   5
ENDBRANCH   8  14
BRANCH  10  15
ATOM     15  C   UNL     1      12.351   9.538   5.940  0.00  0.00    +0.103 C 
BRANCH  15  19
ATOM      1  O   UNL     1      10.729   9.401   7.699  0.00  0.00    -0.276 OA
ATOM      6  N   UNL     1      10.300   8.169   5.782  0.00  0.00    -0.300 N 
ATOM     19  C   UNL     1      11.062   9.041   6.567  0.00  0.00    +0.216 C 
ATOM     27  C   UNL     1      10.713   7.758   4.445  0.00  0.00    +0.132 C 
BRANCH   6  26
ATOM     26  C   UNL     1       9.034   7.603   6.242  0.00  0.00    +0.142 C 
BRANCH  26  28
ATOM     28  C   UNL     1       9.240   6.403   7.120  0.00  0.00    -0.030 A 
ATOM     30  C   UNL     1       9.664   5.196   6.563  0.00  0.00    +0.005 A 
ATOM     31  C   UNL     1       9.007   6.494   8.492  0.00  0.00    +0.005 A 
ATOM     32  C   UNL     1       9.856   4.081   7.379  0.00  0.00    +0.000 A 
ATOM     33  C   UNL     1       9.199   5.379   9.308  0.00  0.00    +0.000 A 
ATOM     34  C   UNL     1       9.623   4.172   8.751  0.00  0.00    +0.000 A 
ENDBRANCH  26  28
ENDBRANCH   6  26
ENDBRANCH  15  19
ENDBRANCH  10  15
TORSDOF 12
ENDMDL
MODEL 6
REMARK VINA RESULT:      -5.7      1.981      6.529
REMARK  Name = 38027239
REMARK  18 active torsions:
REMARK  status: ('A' for Active; 'I' for Inactive)
REMARK    1  A    between atoms: O_3  and  C_29
REMARK    2  A    between atoms: N_5  and  C_14
REMARK    3  A    between atoms: N_6  and  C_26
REMARK    4  A    between atoms: N_6  and  C_27
REMARK    5  A    between atoms: C_7  and  C_11
REMARK    6  A    between atoms: C_8  and  C_14
REMARK    7  A    between atoms: C_10  and  C_15
REMARK    8  A    between atoms: C_11  and  C_16
REMARK    9  A    between atoms: C_11  and  C_17
REMARK   10  A    between atoms: C_12  and  C_18
REMARK   11  A    between atoms: C_15  and  C_19
REMARK   12  A    between atoms: C_20  and  C_22
REMARK   13  A    between atoms: C_21  and  C_22
REMARK   14  A    between atoms: C_21  and  C_23
REMARK   15  A    between atoms: C_21  and  C_24
REMARK   16  A    between atoms: C_21  and  C_25
REMARK   17  A    between atoms: C_23  and  C_29
REMARK   18  A    between atoms: C_26  and  C_28
REMARK                            x       y       z     vdW  Elec       q    Type
REMARK                         _______ _______ _______ _____ _____    ______ ____
ROOT
ATOM      7  C   UNL     1      10.930   6.972   5.635  0.00  0.00    +0.000 C 
ATOM      8  C   UNL     1      10.793   5.432   5.714  0.00  0.00    +0.032 C 
ATOM      9  C   UNL     1      11.238   7.556   7.023  0.00  0.00    +0.012 C 
ATOM     10  C   UNL     1      10.145   7.215   8.054  0.00  0.00    +0.023 C 
ATOM     12  C   UNL     1       9.762   5.750   8.005  0.00  0.00    -0.073 C 
ATOM     13  C   UNL     1      10.071   4.966   6.958  0.00  0.00    -0.022 C 
ATOM     18  C   UNL     1       9.053   5.196   9.209  0.00  0.00    +0.039 C 
ENDROOT
BRANCH   7  11
ATOM     11  C   UNL     1      12.017   7.396   4.642  0.00  0.00    -0.013 C 
ATOM     16  C   UNL     1      11.448   8.373   3.616  0.00  0.00    +0.007 C 
ATOM     17  C   UNL     1      13.200   8.014   5.379  0.00  0.00    +0.007 C 
ENDBRANCH   7  11
BRANCH   8  14
ATOM     14  C   UNL     1      10.085   4.875   4.473  0.00  0.00    +0.112 C 
BRANCH  14   5
ATOM      2  O   UNL     1      10.367   5.157   1.623  0.00  0.00    -0.276 OA
ATOM      5  N   UNL     1      11.007   4.181   3.631  0.00  0.00    -0.315 N 
ATOM     20  C   UNL     1      11.078   4.378   2.254  0.00  0.00    +0.214 C 
ATOM     35  H   UNL     1      11.679   3.554   4.064  0.00  0.00    +0.149 HD
BRANCH  20  22
ATOM     22  C   UNL     1      12.139   3.529   1.570  0.00  0.00    +0.102 C 
BRANCH  22  21
ATOM     21  C   UNL     1      13.447   4.283   1.219  0.00  0.00    -0.017 C 
ATOM     24  C   UNL     1      14.677   3.468   1.672  0.00  0.00    +0.012 C 
ATOM     25  C   UNL     1      13.521   4.415  -0.316  0.00  0.00    +0.012 C 
BRANCH  21  23
ATOM     23  C   UNL     1      13.532   5.680   1.879  0.00  0.00    +0.127 C 
BRANCH  23  29
ATOM      4  O   UNL     1      15.638   6.668   1.209  0.00  0.00    -0.251 OA
ATOM     29  C   UNL     1      14.937   6.197   2.094  0.00  0.00    +0.305 C 
BRANCH  29   3
ATOM      3  O   UNL     1      15.351   6.076   3.380  0.00  0.00    -0.481 OA
ATOM     36  H   UNL     1      16.227   6.494   3.528  0.00  0.00    +0.295 HD
ENDBRANCH  29   3
ENDBRANCH  23  29
ENDBRANCH  21  23
ENDBRANCH  22  21
ENDBRANCH  20  22
ENDBRANCH  14   5
ENDBRANCH   8  14
BRANCH  10  15
ATOM     15  C   UNL     1       8.915   8.111   7.869  0.00  0.00    +0.103 C 
BRANCH  15  19
ATOM      1  O   UNL     1       9.851  10.191   8.605  0.00  0.00    -0.276 OA
ATOM      6  N   UNL     1       8.954  10.145   6.467  0.00  0.00    -0.300 N 
ATOM     19  C   UNL     1       9.288   9.572   7.699  0.00  0.00    +0.216 C 
ATOM     27  C   UNL     1       8.289   9.392   5.410  0.00  0.00    +0.132 C 
BRANCH   6  26
ATOM     26  C   UNL     1       9.245  11.541   6.147  0.00  0.00    +0.142 C 
BRANCH  26  28
ATOM     28  C   UNL     1      10.479  11.677   5.303  0.00  0.00    -0.030 A 
ATOM     30  C   UNL     1      10.368  11.998   3.950  0.00  0.00    +0.005 A 
ATOM     31  C   UNL     1      11.738  11.483   5.872  0.00  0.00    +0.005 A 
ATOM     32  C   UNL     1      11.515  12.124   3.166  0.00  0.00    +0.000 A 
ATOM     33  C   UNL     1      12.885  11.609   5.088  0.00  0.00    +0.000 A 
ATOM     34  C   UNL     1      12.772  11.930   3.735  0.00  0.00    +0.000 A 
ENDBRANCH  26  28
ENDBRANCH   6  26
ENDBRANCH  15  19
ENDBRANCH  10  15
TORSDOF 12
ENDMDL
MODEL 7
REMARK VINA RESULT:      -5.6      1.582      2.252
REMARK  Name = 38027239
REMARK  18 active torsions:
REMARK  status: ('A' for Active; 'I' for Inactive)
REMARK    1  A    between atoms: O_3  and  C_29
REMARK    2  A    between atoms: N_5  and  C_14
REMARK    3  A    between atoms: N_6  and  C_26
REMARK    4  A    between atoms: N_6  and  C_27
REMARK    5  A    between atoms: C_7  and  C_11
REMARK    6  A    between atoms: C_8  and  C_14
REMARK    7  A    between atoms: C_10  and  C_15
REMARK    8  A    between atoms: C_11  and  C_16
REMARK    9  A    between atoms: C_11  and  C_17
REMARK   10  A    between atoms: C_12  and  C_18
REMARK   11  A    between atoms: C_15  and  C_19
REMARK   12  A    between atoms: C_20  and  C_22
REMARK   13  A    between atoms: C_21  and  C_22
REMARK   14  A    between atoms: C_21  and  C_23
REMARK   15  A    between atoms: C_21  and  C_24
REMARK   16  A    between atoms: C_21  and  C_25
REMARK   17  A    between atoms: C_23  and  C_29
REMARK   18  A    between atoms: C_26  and  C_28
REMARK                            x       y       z     vdW  Elec       q    Type
REMARK                         _______ _______ _______ _____ _____    ______ ____
ROOT
ATOM      7  C   UNL     1       9.209   8.449   3.569  0.00  0.00    +0.000 C 
ATOM      8  C   UNL     1       8.615   8.163   4.971  0.00  0.00    +0.032 C 
ATOM      9  C   UNL     1       9.105   7.202   2.678  0.00  0.00    +0.012 C 
ATOM     10  C   UNL     1       9.840   5.990   3.282  0.00  0.00    +0.023 C 
ATOM     12  C   UNL     1       9.508   5.804   4.748  0.00  0.00    -0.073 C 
ATOM     13  C   UNL     1       8.949   6.781   5.484  0.00  0.00    -0.022 C 
ATOM     18  C   UNL     1       9.793   4.452   5.340  0.00  0.00    +0.039 C 
ENDROOT
BRANCH   7  11
ATOM     11  C   UNL     1       8.515   9.633   2.889  0.00  0.00    -0.013 C 
ATOM     16  C   UNL     1       9.499  10.781   2.685  0.00  0.00    +0.007 C 
ATOM     17  C   UNL     1       7.906   9.200   1.559  0.00  0.00    +0.007 C 
ENDBRANCH   7  11
BRANCH   8  14
ATOM     14  C   UNL     1       9.075   9.211   5.991  0.00  0.00    +0.112 C 
BRANCH  14   5
ATOM      2  O   UNL     1      11.126  11.186   6.411  0.00  0.00    -0.276 OA
ATOM      5  N   UNL     1      10.427   8.972   6.391  0.00  0.00    -0.315 N 
ATOM     20  C   UNL     1      11.359   9.990   6.572  0.00  0.00    +0.214 C 
ATOM     35  H   UNL     1      10.705   8.019   6.606  0.00  0.00    +0.149 HD
BRANCH  20  22
ATOM     22  C   UNL     1      12.730   9.492   7.003  0.00  0.00    +0.102 C 
BRANCH  22  21
ATOM     21  C   UNL     1      13.548   8.793   5.888  0.00  0.00    -0.017 C 
ATOM     24  C   UNL     1      13.277   9.460   4.522  0.00  0.00    +0.012 C 
ATOM     25  C   UNL     1      15.046   8.985   6.206  0.00  0.00    +0.012 C 
BRANCH  21  23
ATOM     23  C   UNL     1      13.219   7.287   5.756  0.00  0.00    +0.127 C 
BRANCH  23  29
ATOM      4  O   UNL     1      11.775   6.454   7.512  0.00  0.00    -0.251 OA
ATOM     29  C   UNL     1      12.905   6.590   7.062  0.00  0.00    +0.305 C 
BRANCH  29   3
ATOM      3  O   UNL     1      14.013   6.131   7.694  0.00  0.00    -0.481 OA
ATOM     36  H   UNL     1      14.769   6.752   7.614  0.00  0.00    +0.295 HD
ENDBRANCH  29   3
ENDBRANCH  23  29
ENDBRANCH  21  23
ENDBRANCH  22  21
ENDBRANCH  20  22
ENDBRANCH  14   5
ENDBRANCH   8  14
BRANCH  10  15
ATOM     15  C   UNL     1      11.354   6.104   3.072  0.00  0.00    +0.103 C 
BRANCH  15  19
ATOM      1  O   UNL     1      11.257   3.836   2.302  0.00  0.00    -0.276 OA
ATOM      6  N   UNL     1      13.293   4.926   2.094  0.00  0.00    -0.300 N 
ATOM     19  C   UNL     1      11.945   4.848   2.459  0.00  0.00    +0.216 C 
ATOM     27  C   UNL     1      14.086   6.134   2.288  0.00  0.00    +0.132 C 
BRANCH   6  26
ATOM     26  C   UNL     1      14.009   3.803   1.491  0.00  0.00    +0.142 C 
BRANCH  26  28
ATOM     28  C   UNL     1      14.448   4.106   0.087  0.00  0.00    -0.030 A 
ATOM     30  C   UNL     1      15.806   4.224  -0.209  0.00  0.00    +0.005 A 
ATOM     31  C   UNL     1      13.498   4.270  -0.920  0.00  0.00    +0.005 A 
ATOM     32  C   UNL     1      16.214   4.506  -1.513  0.00  0.00    +0.000 A 
ATOM     33  C   UNL     1      13.905   4.552  -2.224  0.00  0.00    +0.000 A 
ATOM     34  C   UNL     1      15.264   4.670  -2.520  0.00  0.00    +0.000 A 
ENDBRANCH  26  28
ENDBRANCH   6  26
ENDBRANCH  15  19
ENDBRANCH  10  15
TORSDOF 12
ENDMDL
MODEL 8
REMARK VINA RESULT:      -5.6     33.170     36.927
REMARK  Name = 38027239
REMARK  18 active torsions:
REMARK  status: ('A' for Active; 'I' for Inactive)
REMARK    1  A    between atoms: O_3  and  C_29
REMARK    2  A    between atoms: N_5  and  C_14
REMARK    3  A    between atoms: N_6  and  C_26
REMARK    4  A    between atoms: N_6  and  C_27
REMARK    5  A    between atoms: C_7  and  C_11
REMARK    6  A    between atoms: C_8  and  C_14
REMARK    7  A    between atoms: C_10  and  C_15
REMARK    8  A    between atoms: C_11  and  C_16
REMARK    9  A    between atoms: C_11  and  C_17
REMARK   10  A    between atoms: C_12  and  C_18
REMARK   11  A    between atoms: C_15  and  C_19
REMARK   12  A    between atoms: C_20  and  C_22
REMARK   13  A    between atoms: C_21  and  C_22
REMARK   14  A    between atoms: C_21  and  C_23
REMARK   15  A    between atoms: C_21  and  C_24
REMARK   16  A    between atoms: C_21  and  C_25
REMARK   17  A    between atoms: C_23  and  C_29
REMARK   18  A    between atoms: C_26  and  C_28
REMARK                            x       y       z     vdW  Elec       q    Type
REMARK                         _______ _______ _______ _____ _____    ______ ____
ROOT
ATOM      7  C   UNL     1     -15.431   1.390  29.732  0.00  0.00    +0.000 C 
ATOM      8  C   UNL     1     -16.731   1.440  28.891  0.00  0.00    +0.032 C 
ATOM      9  C   UNL     1     -15.683   1.943  31.143  0.00  0.00    +0.012 C 
ATOM     10  C   UNL     1     -16.194   3.396  31.118  0.00  0.00    +0.023 C 
ATOM     12  C   UNL     1     -17.308   3.584  30.108  0.00  0.00    -0.073 C 
ATOM     13  C   UNL     1     -17.542   2.693  29.128  0.00  0.00    -0.022 C 
ATOM     18  C   UNL     1     -18.177   4.799  30.278  0.00  0.00    +0.039 C 
ENDROOT
BRANCH   7  11
ATOM     11  C   UNL     1     -14.867  -0.031  29.823  0.00  0.00    -0.013 C 
ATOM     16  C   UNL     1     -13.343   0.005  29.894  0.00  0.00    +0.007 C 
ATOM     17  C   UNL     1     -15.448  -0.756  31.033  0.00  0.00    +0.007 C 
ENDBRANCH   7  11
BRANCH   8  14
ATOM     14  C   UNL     1     -16.428   1.303  27.394  0.00  0.00    +0.112 C 
BRANCH  14   5
ATOM      2  O   UNL     1     -16.717   1.451  24.535  0.00  0.00    -0.276 OA
ATOM      5  N   UNL     1     -17.065   2.344  26.650  0.00  0.00    -0.315 N 
ATOM     20  C   UNL     1     -17.161   2.337  25.261  0.00  0.00    +0.214 C 
ATOM     35  H   UNL     1     -17.516   3.097  27.162  0.00  0.00    +0.149 HD
BRANCH  20  22
ATOM     22  C   UNL     1     -17.886   3.549  24.694  0.00  0.00    +0.102 C 
BRANCH  22  21
ATOM     21  C   UNL     1     -17.006   4.486  23.828  0.00  0.00    -0.017 C 
ATOM     24  C   UNL     1     -17.282   4.250  22.327  0.00  0.00    +0.012 C 
ATOM     25  C   UNL     1     -17.408   5.942  24.146  0.00  0.00    +0.012 C 
BRANCH  21  23
ATOM     23  C   UNL     1     -15.492   4.285  24.072  0.00  0.00    +0.127 C 
BRANCH  23  29
ATOM      4  O   UNL     1     -14.375   6.165  23.033  0.00  0.00    -0.251 OA
ATOM     29  C   UNL     1     -14.591   4.961  23.062  0.00  0.00    +0.305 C 
BRANCH  29   3
ATOM      3  O   UNL     1     -14.045   4.090  22.177  0.00  0.00    -0.481 OA
ATOM     36  H   UNL     1     -13.166   4.388  21.859  0.00  0.00    +0.295 HD
ENDBRANCH  29   3
ENDBRANCH  23  29
ENDBRANCH  21  23
ENDBRANCH  22  21
ENDBRANCH  20  22
ENDBRANCH  14   5
ENDBRANCH   8  14
BRANCH  10  15
ATOM     15  C   UNL     1     -15.047   4.379  30.859  0.00  0.00    +0.103 C 
BRANCH  15  19
ATOM      1  O   UNL     1     -13.625   4.087  32.767  0.00  0.00    -0.276 OA
ATOM      6  N   UNL     1     -14.683   6.140  32.554  0.00  0.00    -0.300 N 
ATOM     19  C   UNL     1     -14.381   4.837  32.143  0.00  0.00    +0.216 C 
ATOM     27  C   UNL     1     -15.579   7.008  31.800  0.00  0.00    +0.132 C 
BRANCH   6  26
ATOM     26  C   UNL     1     -14.122   6.729  33.768  0.00  0.00    +0.142 C 
BRANCH  26  28
ATOM     28  C   UNL     1     -13.120   7.804  33.460  0.00  0.00    -0.030 A 
ATOM     30  C   UNL     1     -12.361   7.737  32.291  0.00  0.00    +0.005 A 
ATOM     31  C   UNL     1     -12.948   8.870  34.343  0.00  0.00    +0.005 A 
ATOM     32  C   UNL     1     -11.430   8.735  32.006  0.00  0.00    +0.000 A 
ATOM     33  C   UNL     1     -12.017   9.869  34.057  0.00  0.00    +0.000 A 
ATOM     34  C   UNL     1     -11.258   9.800  32.888  0.00  0.00    +0.000 A 
ENDBRANCH  26  28
ENDBRANCH   6  26
ENDBRANCH  15  19
ENDBRANCH  10  15
TORSDOF 12
ENDMDL
MODEL 9
REMARK VINA RESULT:      -5.5      2.921      4.670
REMARK  Name = 38027239
REMARK  18 active torsions:
REMARK  status: ('A' for Active; 'I' for Inactive)
REMARK    1  A    between atoms: O_3  and  C_29
REMARK    2  A    between atoms: N_5  and  C_14
REMARK    3  A    between atoms: N_6  and  C_26
REMARK    4  A    between atoms: N_6  and  C_27
REMARK    5  A    between atoms: C_7  and  C_11
REMARK    6  A    between atoms: C_8  and  C_14
REMARK    7  A    between atoms: C_10  and  C_15
REMARK    8  A    between atoms: C_11  and  C_16
REMARK    9  A    between atoms: C_11  and  C_17
REMARK   10  A    between atoms: C_12  and  C_18
REMARK   11  A    between atoms: C_15  and  C_19
REMARK   12  A    between atoms: C_20  and  C_22
REMARK   13  A    between atoms: C_21  and  C_22
REMARK   14  A    between atoms: C_21  and  C_23
REMARK   15  A    between atoms: C_21  and  C_24
REMARK   16  A    between atoms: C_21  and  C_25
REMARK   17  A    between atoms: C_23  and  C_29
REMARK   18  A    between atoms: C_26  and  C_28
REMARK                            x       y       z     vdW  Elec       q    Type
REMARK                         _______ _______ _______ _____ _____    ______ ____
ROOT
ATOM      7  C   UNL     1       8.874   9.175   2.336  0.00  0.00    +0.000 C 
ATOM      8  C   UNL     1       8.380   8.204   3.436  0.00  0.00    +0.032 C 
ATOM      9  C   UNL     1       9.116   8.418   1.021  0.00  0.00    +0.012 C 
ATOM     10  C   UNL     1      10.153   7.291   1.178  0.00  0.00    +0.023 C 
ATOM     12  C   UNL     1       9.883   6.445   2.406  0.00  0.00    -0.073 C 
ATOM     13  C   UNL     1       9.078   6.864   3.399  0.00  0.00    -0.022 C 
ATOM     18  C   UNL     1      10.525   5.087   2.447  0.00  0.00    +0.039 C 
ENDROOT
BRANCH   7  11
ATOM     11  C   UNL     1       7.885  10.321   2.102  0.00  0.00    -0.013 C 
ATOM     16  C   UNL     1       8.620  11.656   2.042  0.00  0.00    +0.007 C 
ATOM     17  C   UNL     1       7.089  10.083   0.823  0.00  0.00    +0.007 C 
ENDBRANCH   7  11
BRANCH   8  14
ATOM     14  C   UNL     1       8.537   8.822   4.831  0.00  0.00    +0.112 C 
BRANCH  14   5
ATOM      2  O   UNL     1      10.023   8.742   7.294  0.00  0.00    -0.276 OA
ATOM      5  N   UNL     1       8.463   7.816   5.844  0.00  0.00    -0.315 N 
ATOM     20  C   UNL     1       9.222   7.855   7.011  0.00  0.00    +0.214 C 
ATOM     35  H   UNL     1       7.786   7.067   5.732  0.00  0.00    +0.149 HD
BRANCH  20  22
ATOM     22  C   UNL     1       8.970   6.677   7.941  0.00  0.00    +0.102 C 
BRANCH  22  21
ATOM     21  C   UNL     1       9.889   5.452   7.704  0.00  0.00    -0.017 C 
ATOM     24  C   UNL     1       9.744   4.942   6.254  0.00  0.00    +0.012 C 
ATOM     25  C   UNL     1      11.350   5.914   7.885  0.00  0.00    +0.012 C 
BRANCH  21  23
ATOM     23  C   UNL     1       9.579   4.275   8.657  0.00  0.00    +0.127 C 
BRANCH  23  29
ATOM      4  O   UNL     1       8.263   4.820  10.615  0.00  0.00    -0.251 OA
ATOM     29  C   UNL     1       9.364   4.668  10.102  0.00  0.00    +0.305 C 
BRANCH  29   3
ATOM      3  O   UNL     1      10.526   4.845  10.779  0.00  0.00    -0.481 OA
ATOM     36  H   UNL     1      10.993   5.663  10.504  0.00  0.00    +0.295 HD
ENDBRANCH  29   3
ENDBRANCH  23  29
ENDBRANCH  21  23
ENDBRANCH  22  21
ENDBRANCH  20  22
ENDBRANCH  14   5
ENDBRANCH   8  14
BRANCH  10  15
ATOM     15  C   UNL     1      11.578   7.852   1.201  0.00  0.00    +0.103 C 
BRANCH  15  19
ATOM      1  O   UNL     1      12.154   7.555  -1.107  0.00  0.00    -0.276 OA
ATOM      6  N   UNL     1      13.521   6.521   0.455  0.00  0.00    -0.300 N 
ATOM     19  C   UNL     1      12.429   7.306   0.070  0.00  0.00    +0.216 C 
ATOM     27  C   UNL     1      13.828   6.240   1.852  0.00  0.00    +0.132 C 
BRANCH   6  26
ATOM     26  C   UNL     1      14.437   5.922  -0.515  0.00  0.00    +0.142 C 
BRANCH  26  28
ATOM     28  C   UNL     1      13.769   4.856  -1.334  0.00  0.00    -0.030 A 
ATOM     30  C   UNL     1      13.838   4.900  -2.726  0.00  0.00    +0.005 A 
ATOM     31  C   UNL     1      13.080   3.821  -0.702  0.00  0.00    +0.005 A 
ATOM     32  C   UNL     1      13.217   3.909  -3.487  0.00  0.00    +0.000 A 
ATOM     33  C   UNL     1      12.459   2.830  -1.462  0.00  0.00    +0.000 A 
ATOM     34  C   UNL     1      12.528   2.875  -2.855  0.00  0.00    +0.000 A 
ENDBRANCH  26  28
ENDBRANCH   6  26
ENDBRANCH  15  19
ENDBRANCH  10  15
TORSDOF 12
ENDMDL
MODEL 10
REMARK VINA RESULT:      -5.5     25.813     29.097
REMARK  Name = 38027239
REMARK  18 active torsions:
REMARK  status: ('A' for Active; 'I' for Inactive)
REMARK    1  A    between atoms: O_3  and  C_29
REMARK    2  A    between atoms: N_5  and  C_14
REMARK    3  A    between atoms: N_6  and  C_26
REMARK    4  A    between atoms: N_6  and  C_27
REMARK    5  A    between atoms: C_7  and  C_11
REMARK    6  A    between atoms: C_8  and  C_14
REMARK    7  A    between atoms: C_10  and  C_15
REMARK    8  A    between atoms: C_11  and  C_16
REMARK    9  A    between atoms: C_11  and  C_17
REMARK   10  A    between atoms: C_12  and  C_18
REMARK   11  A    between atoms: C_15  and  C_19
REMARK   12  A    between atoms: C_20  and  C_22
REMARK   13  A    between atoms: C_21  and  C_22
REMARK   14  A    between atoms: C_21  and  C_23
REMARK   15  A    between atoms: C_21  and  C_24
REMARK   16  A    between atoms: C_21  and  C_25
REMARK   17  A    between atoms: C_23  and  C_29
REMARK   18  A    between atoms: C_26  and  C_28
REMARK                            x       y       z     vdW  Elec       q    Type
REMARK                         _______ _______ _______ _____ _____    ______ ____
ROOT
ATOM      7  C   UNL     1     -13.606   7.263  21.098  0.00  0.00    +0.000 C 
ATOM      8  C   UNL     1     -13.227   8.475  21.986  0.00  0.00    +0.032 C 
ATOM      9  C   UNL     1     -12.363   6.713  20.382  0.00  0.00    +0.012 C 
ATOM     10  C   UNL     1     -11.684   7.774  19.495  0.00  0.00    +0.023 C 
ATOM     12  C   UNL     1     -11.518   9.093  20.223  0.00  0.00    -0.073 C 
ATOM     13  C   UNL     1     -12.206   9.384  21.341  0.00  0.00    -0.022 C 
ATOM     18  C   UNL     1     -10.509  10.054  19.659  0.00  0.00    +0.039 C 
ENDROOT
BRANCH   7  11
ATOM     11  C   UNL     1     -14.272   6.149  21.912  0.00  0.00    -0.013 C 
ATOM     16  C   UNL     1     -15.457   5.567  21.146  0.00  0.00    +0.007 C 
ATOM     17  C   UNL     1     -13.259   5.060  22.251  0.00  0.00    +0.007 C 
ENDBRANCH   7  11
BRANCH   8  14
ATOM     14  C   UNL     1     -14.468   9.291  22.367  0.00  0.00    +0.112 C 
BRANCH  14   5
ATOM      2  O   UNL     1     -14.224  12.096  22.960  0.00  0.00    -0.276 OA
ATOM      5  N   UNL     1     -14.310   9.883  23.658  0.00  0.00    -0.315 N 
ATOM     20  C   UNL     1     -14.198  11.257  23.857  0.00  0.00    +0.214 C 
ATOM     35  H   UNL     1     -14.334   9.278  24.474  0.00  0.00    +0.149 HD
BRANCH  20  22
ATOM     22  C   UNL     1     -14.042  11.651  25.318  0.00  0.00    +0.102 C 
BRANCH  22  21
ATOM     21  C   UNL     1     -12.633  11.398  25.913  0.00  0.00    -0.017 C 
ATOM     24  C   UNL     1     -11.574  11.360  24.790  0.00  0.00    +0.012 C 
ATOM     25  C   UNL     1     -12.287  12.587  26.833  0.00  0.00    +0.012 C 
BRANCH  21  23
ATOM     23  C   UNL     1     -12.543  10.069  26.700  0.00  0.00    +0.127 C 
BRANCH  23  29
ATOM      4  O   UNL     1     -10.174   9.735  27.071  0.00  0.00    -0.251 OA
ATOM     29  C   UNL     1     -11.292   9.910  27.536  0.00  0.00    +0.305 C 
BRANCH  29   3
ATOM      3  O   UNL     1     -11.537   9.974  28.868  0.00  0.00    -0.481 OA
ATOM     36  H   UNL     1     -10.714   9.926  29.399  0.00  0.00    +0.295 HD
ENDBRANCH  29   3
ENDBRANCH  23  29
ENDBRANCH  21  23
ENDBRANCH  22  21
ENDBRANCH  20  22
ENDBRANCH  14   5
ENDBRANCH   8  14
BRANCH  10  15
ATOM     15  C   UNL     1     -12.447   7.964  18.181  0.00  0.00    +0.103 C 
BRANCH  15  19
ATOM      1  O   UNL     1     -10.496   7.860  16.793  0.00  0.00    -0.276 OA
ATOM      6  N   UNL     1     -11.993   9.578  16.365  0.00  0.00    -0.300 N 
ATOM     19  C   UNL     1     -11.548   8.447  17.058  0.00  0.00    +0.216 C 
ATOM     27  C   UNL     1     -13.242  10.256  16.696  0.00  0.00    +0.132 C 
BRANCH   6  26
ATOM     26  C   UNL     1     -11.242  10.166  15.258  0.00  0.00    +0.142 C 
BRANCH  26  28
ATOM     28  C   UNL     1     -10.620  11.479  15.637  0.00  0.00    -0.030 A 
ATOM     30  C   UNL     1      -9.685  11.537  16.670  0.00  0.00    +0.005 A 
ATOM     31  C   UNL     1     -10.977  12.642  14.954  0.00  0.00    +0.005 A 
ATOM     32  C   UNL     1      -9.107  12.757  17.021  0.00  0.00    +0.000 A 
ATOM     33  C   UNL     1     -10.400  13.862  15.305  0.00  0.00    +0.000 A 
ATOM     34  C   UNL     1      -9.465  13.919  16.339  0.00  0.00    +0.000 A 
ENDBRANCH  26  28
ENDBRANCH   6  26
ENDBRANCH  15  19
ENDBRANCH  10  15
TORSDOF 12
ENDMDL
