MODEL 1
REMARK VINA RESULT:      -5.7      0.000      0.000
REMARK  Name = 75368548
REMARK  2 active torsions:
REMARK  status: ('A' for Active; 'I' for Inactive)
REMARK    1  A    between atoms: N_2  and  C_6
REMARK    2  A    between atoms: N_4  and  C_17
REMARK                            x       y       z     vdW  Elec       q    Type
REMARK                         _______ _______ _______ _____ _____    ______ ____
ROOT
ATOM      1  O   UNL     1      10.597   9.171  20.969  0.00  0.00    -0.253 OA
ATOM      2  N   UNL     1      15.135   6.991  20.281  0.00  0.00    -0.296 NA
ATOM      3  N   UNL     1      12.464   7.863  20.386  0.00  0.00    -0.279 N 
ATOM      5  N   UNL     1      11.014   8.452  18.774  0.00  0.00    -0.297 N 
ATOM      7  C   UNL     1      12.929   7.169  19.203  0.00  0.00    +0.109 C 
ATOM      8  C   UNL     1      14.436   7.361  19.033  0.00  0.00    +0.108 C 
ATOM      9  C   UNL     1      14.679   7.827  21.409  0.00  0.00    +0.104 C 
ATOM     12  C   UNL     1      13.171   7.687  21.636  0.00  0.00    +0.125 C 
ATOM     13  C   UNL     1      12.076   7.755  18.082  0.00  0.00    +0.129 C 
ATOM     16  C   UNL     1      11.277   8.565  20.152  0.00  0.00    +0.303 C 
ATOM     18  H   UNL     1      10.218   8.883  18.314  0.00  0.00    +0.150 HD
ENDROOT
BRANCH   2   6
ATOM      4  N   UNL     1      19.290   6.383  20.939  0.00  0.00    -0.305 NA
ATOM      6  C   UNL     1      16.581   7.114  20.109  0.00  0.00    +0.059 C 
ATOM     10  C   UNL     1      17.235   7.695  21.366  0.00  0.00    +0.034 C 
ATOM     11  C   UNL     1      17.195   5.751  19.783  0.00  0.00    +0.034 C 
ATOM     14  C   UNL     1      18.760   7.723  21.228  0.00  0.00    +0.085 C 
ATOM     15  C   UNL     1      18.720   5.841  19.698  0.00  0.00    +0.085 C 
ATOM     17  C   UNL     1      20.750   6.416  20.860  0.00  0.00    +0.104 C 
ENDBRANCH   2   6
TORSDOF 1
ENDMDL
MODEL 2
REMARK VINA RESULT:      -5.3      4.683      5.981
REMARK  Name = 75368548
REMARK  2 active torsions:
REMARK  status: ('A' for Active; 'I' for Inactive)
REMARK    1  A    between atoms: N_2  and  C_6
REMARK    2  A    between atoms: N_4  and  C_17
REMARK                            x       y       z     vdW  Elec       q    Type
REMARK                         _______ _______ _______ _____ _____    ______ ____
ROOT
ATOM      1  O   UNL     1      11.029  11.306  25.583  0.00  0.00    -0.253 OA
ATOM      2  N   UNL     1      11.747   9.992  20.727  0.00  0.00    -0.296 NA
ATOM      3  N   UNL     1      11.098  11.067  23.243  0.00  0.00    -0.279 N 
ATOM      5  N   UNL     1      11.409  13.109  24.128  0.00  0.00    -0.297 N 
ATOM      7  C   UNL     1      11.175  11.953  22.101  0.00  0.00    +0.109 C 
ATOM      8  C   UNL     1      12.127  11.383  21.050  0.00  0.00    +0.108 C 
ATOM      9  C   UNL     1      11.806   9.137  21.929  0.00  0.00    +0.104 C 
ATOM     12  C   UNL     1      10.876   9.653  23.030  0.00  0.00    +0.125 C 
ATOM     13  C   UNL     1      11.609  13.285  22.707  0.00  0.00    +0.129 C 
ATOM     16  C   UNL     1      11.157  11.762  24.455  0.00  0.00    +0.303 C 
ATOM     18  H   UNL     1      11.521  13.846  24.817  0.00  0.00    +0.150 HD
ENDROOT
BRANCH   2   6
ATOM      4  N   UNL     1      13.292   9.229  16.841  0.00  0.00    -0.305 NA
ATOM      6  C   UNL     1      12.614   9.459  19.679  0.00  0.00    +0.059 C 
ATOM     10  C   UNL     1      11.827   8.561  18.721  0.00  0.00    +0.034 C 
ATOM     11  C   UNL     1      13.273  10.600  18.902  0.00  0.00    +0.034 C 
ATOM     14  C   UNL     1      12.708   8.088  17.561  0.00  0.00    +0.085 C 
ATOM     15  C   UNL     1      14.107  10.062  17.737  0.00  0.00    +0.085 C 
ATOM     17  C   UNL     1      14.090   8.764  15.708  0.00  0.00    +0.104 C 
ENDBRANCH   2   6
TORSDOF 1
ENDMDL
MODEL 3
REMARK VINA RESULT:      -5.3      2.161      2.990
REMARK  Name = 75368548
REMARK  2 active torsions:
REMARK  status: ('A' for Active; 'I' for Inactive)
REMARK    1  A    between atoms: N_2  and  C_6
REMARK    2  A    between atoms: N_4  and  C_17
REMARK                            x       y       z     vdW  Elec       q    Type
REMARK                         _______ _______ _______ _____ _____    ______ ____
ROOT
ATOM      1  O   UNL     1      12.177   7.153  17.621  0.00  0.00    -0.253 OA
ATOM      2  N   UNL     1      15.316   9.254  21.020  0.00  0.00    -0.296 NA
ATOM      3  N   UNL     1      13.260   8.122  19.471  0.00  0.00    -0.279 N 
ATOM      5  N   UNL     1      11.936   6.338  19.808  0.00  0.00    -0.297 N 
ATOM      7  C   UNL     1      13.226   7.958  20.909  0.00  0.00    +0.109 C 
ATOM      8  C   UNL     1      14.641   8.025  21.485  0.00  0.00    +0.108 C 
ATOM      9  C   UNL     1      15.406   9.281  19.546  0.00  0.00    +0.104 C 
ATOM     12  C   UNL     1      14.020   9.213  18.899  0.00  0.00    +0.125 C 
ATOM     13  C   UNL     1      12.516   6.621  21.103  0.00  0.00    +0.129 C 
ATOM     16  C   UNL     1      12.429   7.208  18.816  0.00  0.00    +0.303 C 
ATOM     18  H   UNL     1      11.317   5.557  19.617  0.00  0.00    +0.150 HD
ENDROOT
BRANCH   2   6
ATOM      4  N   UNL     1      19.557   9.361  21.294  0.00  0.00    -0.305 NA
ATOM      6  C   UNL     1      16.648   9.357  21.613  0.00  0.00    +0.059 C 
ATOM     10  C   UNL     1      17.448   8.070  21.391  0.00  0.00    +0.034 C 
ATOM     11  C   UNL     1      17.402  10.549  21.020  0.00  0.00    +0.034 C 
ATOM     14  C   UNL     1      18.878   8.215  21.916  0.00  0.00    +0.085 C 
ATOM     15  C   UNL     1      18.834  10.614  21.557  0.00  0.00    +0.085 C 
ATOM     17  C   UNL     1      20.937   9.458  21.767  0.00  0.00    +0.104 C 
ENDBRANCH   2   6
TORSDOF 1
ENDMDL
MODEL 4
REMARK VINA RESULT:      -5.2     26.818     29.081
REMARK  Name = 75368548
REMARK  2 active torsions:
REMARK  status: ('A' for Active; 'I' for Inactive)
REMARK    1  A    between atoms: N_2  and  C_6
REMARK    2  A    between atoms: N_4  and  C_17
REMARK                            x       y       z     vdW  Elec       q    Type
REMARK                         _______ _______ _______ _____ _____    ______ ____
ROOT
ATOM      1  O   UNL     1      -3.696 -12.308  19.417  0.00  0.00    -0.253 OA
ATOM      2  N   UNL     1      -7.440  -9.519  17.411  0.00  0.00    -0.296 NA
ATOM      3  N   UNL     1      -5.085 -10.754  18.327  0.00  0.00    -0.279 N 
ATOM      5  N   UNL     1      -3.281 -11.535  17.240  0.00  0.00    -0.297 N 
ATOM      7  C   UNL     1      -5.047  -9.999  17.092  0.00  0.00    +0.109 C 
ATOM      8  C   UNL     1      -6.429  -9.981  16.438  0.00  0.00    +0.108 C 
ATOM      9  C   UNL     1      -7.487 -10.412  18.586  0.00  0.00    +0.104 C 
ATOM     12  C   UNL     1      -6.130 -10.482  19.292  0.00  0.00    +0.125 C 
ATOM     13  C   UNL     1      -3.960 -10.697  16.278  0.00  0.00    +0.129 C 
ATOM     16  C   UNL     1      -3.989 -11.612  18.455  0.00  0.00    +0.303 C 
ATOM     18  H   UNL     1      -2.443 -12.071  17.040  0.00  0.00    +0.150 HD
ENDROOT
BRANCH   2   6
ATOM      4  N   UNL     1     -10.617  -8.052  14.998  0.00  0.00    -0.305 NA
ATOM      6  C   UNL     1      -8.755  -9.440  16.779  0.00  0.00    +0.059 C 
ATOM     10  C   UNL     1      -9.488  -8.163  17.198  0.00  0.00    +0.034 C 
ATOM     11  C   UNL     1      -8.616  -9.486  15.256  0.00  0.00    +0.034 C 
ATOM     14  C   UNL     1     -10.819  -8.024  16.454  0.00  0.00    +0.085 C 
ATOM     15  C   UNL     1      -9.974  -9.304  14.575  0.00  0.00    +0.085 C 
ATOM     17  C   UNL     1     -11.889  -7.869  14.301  0.00  0.00    +0.104 C 
ENDBRANCH   2   6
TORSDOF 1
ENDMDL
MODEL 5
REMARK VINA RESULT:      -5.1     25.413     27.817
REMARK  Name = 75368548
REMARK  2 active torsions:
REMARK  status: ('A' for Active; 'I' for Inactive)
REMARK    1  A    between atoms: N_2  and  C_6
REMARK    2  A    between atoms: N_4  and  C_17
REMARK                            x       y       z     vdW  Elec       q    Type
REMARK                         _______ _______ _______ _____ _____    ______ ____
ROOT
ATOM      1  O   UNL     1      -2.260 -10.179  12.239  0.00  0.00    -0.253 OA
ATOM      2  N   UNL     1      -4.119 -12.140  16.542  0.00  0.00    -0.296 NA
ATOM      3  N   UNL     1      -2.676 -11.150  14.341  0.00  0.00    -0.279 N 
ATOM      5  N   UNL     1      -1.082  -9.576  14.178  0.00  0.00    -0.297 N 
ATOM      7  C   UNL     1      -2.069 -11.107  15.655  0.00  0.00    +0.109 C 
ATOM      8  C   UNL     1      -3.147 -11.044  16.736  0.00  0.00    +0.108 C 
ATOM      9  C   UNL     1      -4.771 -12.039  15.221  0.00  0.00    +0.104 C 
ATOM     12  C   UNL     1      -3.746 -12.091  14.085  0.00  0.00    +0.125 C 
ATOM     13  C   UNL     1      -1.154  -9.887  15.588  0.00  0.00    +0.129 C 
ATOM     16  C   UNL     1      -2.037 -10.297  13.436  0.00  0.00    +0.303 C 
ATOM     18  H   UNL     1      -0.478  -8.863  13.780  0.00  0.00    +0.150 HD
ENDROOT
BRANCH   2   6
ATOM      4  N   UNL     1      -7.666 -11.138  18.661  0.00  0.00    -0.305 NA
ATOM      6  C   UNL     1      -5.120 -12.126  17.607  0.00  0.00    +0.059 C 
ATOM     10  C   UNL     1      -5.270 -10.721  18.199  0.00  0.00    +0.034 C 
ATOM     11  C   UNL     1      -6.469 -12.614  17.074  0.00  0.00    +0.034 C 
ATOM     14  C   UNL     1      -6.394 -10.680  19.238  0.00  0.00    +0.085 C 
ATOM     15  C   UNL     1      -7.553 -12.512  18.149  0.00  0.00    +0.085 C 
ATOM     17  C   UNL     1      -8.739 -11.047  19.650  0.00  0.00    +0.104 C 
ENDBRANCH   2   6
TORSDOF 1
ENDMDL
MODEL 6
REMARK VINA RESULT:      -5.1     28.616     31.831
REMARK  Name = 75368548
REMARK  2 active torsions:
REMARK  status: ('A' for Active; 'I' for Inactive)
REMARK    1  A    between atoms: N_2  and  C_6
REMARK    2  A    between atoms: N_4  and  C_17
REMARK                            x       y       z     vdW  Elec       q    Type
REMARK                         _______ _______ _______ _____ _____    ______ ____
ROOT
ATOM      1  O   UNL     1       0.919   6.781  -6.503  0.00  0.00    -0.253 OA
ATOM      2  N   UNL     1       0.650   1.782  -7.369  0.00  0.00    -0.296 NA
ATOM      3  N   UNL     1       1.184   4.449  -6.655  0.00  0.00    -0.279 N 
ATOM      5  N   UNL     1       1.471   5.439  -4.659  0.00  0.00    -0.297 N 
ATOM      7  C   UNL     1       1.632   3.385  -5.780  0.00  0.00    +0.109 C 
ATOM      8  C   UNL     1       0.741   2.154  -5.942  0.00  0.00    +0.108 C 
ATOM      9  C   UNL     1       0.078   2.884  -8.166  0.00  0.00    +0.104 C 
ATOM     12  C   UNL     1       0.921   4.157  -8.048  0.00  0.00    +0.125 C 
ATOM     13  C   UNL     1       1.602   4.023  -4.394  0.00  0.00    +0.129 C 
ATOM     16  C   UNL     1       1.164   5.689  -6.010  0.00  0.00    +0.303 C 
ATOM     18  H   UNL     1       1.509   6.160  -3.946  0.00  0.00    +0.150 HD
ENDROOT
BRANCH   2   6
ATOM      4  N   UNL     1      -2.654  -0.876  -7.075  0.00  0.00    -0.305 NA
ATOM      6  C   UNL     1      -0.150   0.569  -7.527  0.00  0.00    +0.059 C 
ATOM     10  C   UNL     1      -0.514  -0.030  -6.166  0.00  0.00    +0.034 C 
ATOM     11  C   UNL     1      -1.422   0.873  -8.320  0.00  0.00    +0.034 C 
ATOM     14  C   UNL     1      -1.442  -1.237  -6.326  0.00  0.00    +0.085 C 
ATOM     15  C   UNL     1      -2.321  -0.362  -8.411  0.00  0.00    +0.085 C 
ATOM     17  C   UNL     1      -3.553  -2.025  -7.178  0.00  0.00    +0.104 C 
ENDBRANCH   2   6
TORSDOF 1
ENDMDL
MODEL 7
REMARK VINA RESULT:      -5.0     25.940     28.004
REMARK  Name = 75368548
REMARK  2 active torsions:
REMARK  status: ('A' for Active; 'I' for Inactive)
REMARK    1  A    between atoms: N_2  and  C_6
REMARK    2  A    between atoms: N_4  and  C_17
REMARK                            x       y       z     vdW  Elec       q    Type
REMARK                         _______ _______ _______ _____ _____    ______ ____
ROOT
ATOM      1  O   UNL     1      -8.071 -11.963  20.107  0.00  0.00    -0.253 OA
ATOM      2  N   UNL     1      -4.292 -11.294  16.777  0.00  0.00    -0.296 NA
ATOM      3  N   UNL     1      -6.252 -12.107  18.622  0.00  0.00    -0.279 N 
ATOM      5  N   UNL     1      -7.861 -13.671  18.510  0.00  0.00    -0.297 N 
ATOM      7  C   UNL     1      -5.767 -13.062  17.647  0.00  0.00    +0.109 C 
ATOM      8  C   UNL     1      -5.267 -12.337  16.398  0.00  0.00    +0.108 C 
ATOM      9  C   UNL     1      -4.906 -10.302  17.682  0.00  0.00    +0.104 C 
ATOM     12  C   UNL     1      -5.435 -10.961  18.959  0.00  0.00    +0.125 C 
ATOM     13  C   UNL     1      -6.963 -13.983  17.421  0.00  0.00    +0.129 C 
ATOM     16  C   UNL     1      -7.462 -12.508  19.197  0.00  0.00    +0.303 C 
ATOM     18  H   UNL     1      -8.721 -14.174  18.704  0.00  0.00    +0.150 HD
ENDROOT
BRANCH   2   6
ATOM      4  N   UNL     1      -2.415 -10.818  12.993  0.00  0.00    -0.305 NA
ATOM      6  C   UNL     1      -3.763 -10.636  15.584  0.00  0.00    +0.059 C 
ATOM     10  C   UNL     1      -2.252 -10.856  15.462  0.00  0.00    +0.034 C 
ATOM     11  C   UNL     1      -4.469 -11.158  14.332  0.00  0.00    +0.034 C 
ATOM     14  C   UNL     1      -1.714 -10.261  14.159  0.00  0.00    +0.085 C 
ATOM     15  C   UNL     1      -3.859 -10.553  13.065  0.00  0.00    +0.085 C 
ATOM     17  C   UNL     1      -1.857 -10.277  11.754  0.00  0.00    +0.104 C 
ENDBRANCH   2   6
TORSDOF 1
ENDMDL
MODEL 8
REMARK VINA RESULT:      -4.9     26.498     28.141
REMARK  Name = 75368548
REMARK  2 active torsions:
REMARK  status: ('A' for Active; 'I' for Inactive)
REMARK    1  A    between atoms: N_2  and  C_6
REMARK    2  A    between atoms: N_4  and  C_17
REMARK                            x       y       z     vdW  Elec       q    Type
REMARK                         _______ _______ _______ _____ _____    ______ ____
ROOT
ATOM      1  O   UNL     1     -10.003 -10.347  18.702  0.00  0.00    -0.253 OA
ATOM      2  N   UNL     1      -5.304 -10.248  16.773  0.00  0.00    -0.296 NA
ATOM      3  N   UNL     1      -7.694 -10.336  18.251  0.00  0.00    -0.279 N 
ATOM      5  N   UNL     1      -8.500 -11.841  19.712  0.00  0.00    -0.297 N 
ATOM      7  C   UNL     1      -6.520 -11.001  18.776  0.00  0.00    +0.109 C 
ATOM      8  C   UNL     1      -5.589 -11.413  17.635  0.00  0.00    +0.108 C 
ATOM      9  C   UNL     1      -6.548  -9.705  16.192  0.00  0.00    +0.104 C 
ATOM     12  C   UNL     1      -7.533  -9.274  17.281  0.00  0.00    +0.125 C 
ATOM     13  C   UNL     1      -7.095 -12.160  19.586  0.00  0.00    +0.129 C 
ATOM     16  C   UNL     1      -8.870 -10.778  18.865  0.00  0.00    +0.303 C 
ATOM     18  H   UNL     1      -9.158 -12.370  20.275  0.00  0.00    +0.150 HD
ENDROOT
BRANCH   2   6
ATOM      4  N   UNL     1      -2.445 -12.522  14.599  0.00  0.00    -0.305 NA
ATOM      6  C   UNL     1      -4.366 -10.617  15.715  0.00  0.00    +0.059 C 
ATOM     10  C   UNL     1      -2.945 -10.765  16.269  0.00  0.00    +0.034 C 
ATOM     11  C   UNL     1      -4.804 -11.921  15.047  0.00  0.00    +0.034 C 
ATOM     14  C   UNL     1      -1.982 -11.256  15.185  0.00  0.00    +0.085 C 
ATOM     15  C   UNL     1      -3.780 -12.375  14.004  0.00  0.00    +0.085 C 
ATOM     17  C   UNL     1      -1.490 -13.004  13.603  0.00  0.00    +0.104 C 
ENDBRANCH   2   6
TORSDOF 1
ENDMDL
MODEL 9
REMARK VINA RESULT:      -4.9     26.720     29.693
REMARK  Name = 75368548
REMARK  2 active torsions:
REMARK  status: ('A' for Active; 'I' for Inactive)
REMARK    1  A    between atoms: N_2  and  C_6
REMARK    2  A    between atoms: N_4  and  C_17
REMARK                            x       y       z     vdW  Elec       q    Type
REMARK                         _______ _______ _______ _____ _____    ______ ____
ROOT
ATOM      1  O   UNL     1     -17.558   3.039  22.260  0.00  0.00    -0.253 OA
ATOM      2  N   UNL     1     -14.671   7.111  21.310  0.00  0.00    -0.296 NA
ATOM      3  N   UNL     1     -16.201   4.961  22.281  0.00  0.00    -0.279 N 
ATOM      5  N   UNL     1     -15.700   3.272  23.676  0.00  0.00    -0.297 N 
ATOM      7  C   UNL     1     -15.107   5.463  23.086  0.00  0.00    +0.109 C 
ATOM      8  C   UNL     1     -14.045   6.107  22.195  0.00  0.00    +0.108 C 
ATOM      9  C   UNL     1     -15.694   6.488  20.447  0.00  0.00    +0.104 C 
ATOM     12  C   UNL     1     -16.793   5.817  21.275  0.00  0.00    +0.125 C 
ATOM     13  C   UNL     1     -14.638   4.235  23.861  0.00  0.00    +0.129 C 
ATOM     16  C   UNL     1     -16.610   3.685  22.683  0.00  0.00    +0.303 C 
ATOM     18  H   UNL     1     -15.742   2.370  24.138  0.00  0.00    +0.150 HD
ENDROOT
BRANCH   2   6
ATOM      4  N   UNL     1     -11.665   7.656  18.354  0.00  0.00    -0.305 NA
ATOM      6  C   UNL     1     -13.655   7.775  20.497  0.00  0.00    +0.059 C 
ATOM     10  C   UNL     1     -12.284   7.120  20.689  0.00  0.00    +0.034 C 
ATOM     11  C   UNL     1     -14.048   7.738  19.019  0.00  0.00    +0.034 C 
ATOM     14  C   UNL     1     -11.241   7.744  19.758  0.00  0.00    +0.085 C 
ATOM     15  C   UNL     1     -12.949   8.341  18.142  0.00  0.00    +0.085 C 
ATOM     17  C   UNL     1     -10.638   8.211  17.474  0.00  0.00    +0.104 C 
ENDBRANCH   2   6
TORSDOF 1
ENDMDL
MODEL 10
REMARK VINA RESULT:      -4.9     14.659     17.240
REMARK  Name = 75368548
REMARK  2 active torsions:
REMARK  status: ('A' for Active; 'I' for Inactive)
REMARK    1  A    between atoms: N_2  and  C_6
REMARK    2  A    between atoms: N_4  and  C_17
REMARK                            x       y       z     vdW  Elec       q    Type
REMARK                         _______ _______ _______ _____ _____    ______ ____
ROOT
ATOM      1  O   UNL     1       8.666   8.048   8.354  0.00  0.00    -0.253 OA
ATOM      2  N   UNL     1      10.660   5.754   4.282  0.00  0.00    -0.296 NA
ATOM      3  N   UNL     1       9.870   6.784   6.777  0.00  0.00    -0.279 N 
ATOM      5  N   UNL     1       9.183   5.780   8.665  0.00  0.00    -0.297 N 
ATOM      7  C   UNL     1      10.448   5.458   6.717  0.00  0.00    +0.109 C 
ATOM      8  C   UNL     1      10.202   4.833   5.343  0.00  0.00    +0.108 C 
ATOM      9  C   UNL     1       9.936   7.039   4.351  0.00  0.00    +0.104 C 
ATOM     12  C   UNL     1      10.135   7.722   5.706  0.00  0.00    +0.125 C 
ATOM     13  C   UNL     1       9.790   4.726   7.883  0.00  0.00    +0.129 C 
ATOM     16  C   UNL     1       9.182   7.006   7.973  0.00  0.00    +0.303 C 
ATOM     18  H   UNL     1       8.735   5.639   9.565  0.00  0.00    +0.150 HD
ENDROOT
BRANCH   2   6
ATOM      4  N   UNL     1      11.331   4.870   0.179  0.00  0.00    -0.305 NA
ATOM      6  C   UNL     1      10.485   5.141   2.968  0.00  0.00    +0.059 C 
ATOM     10  C   UNL     1      10.160   6.198   1.908  0.00  0.00    +0.034 C 
ATOM     11  C   UNL     1      11.747   4.373   2.568  0.00  0.00    +0.034 C 
ATOM     14  C   UNL     1      10.083   5.572   0.513  0.00  0.00    +0.085 C 
ATOM     15  C   UNL     1      11.619   3.807   1.152  0.00  0.00    +0.085 C 
ATOM     17  C   UNL     1      11.262   4.321  -1.174  0.00  0.00    +0.104 C 
ENDBRANCH   2   6
TORSDOF 1
ENDMDL
