MODEL 1
REMARK VINA RESULT:      -8.1      0.000      0.000
REMARK  Name = 11941402
REMARK  5 active torsions:
REMARK  status: ('A' for Active; 'I' for Inactive)
REMARK    1  A    between atoms: O_4  and  C_33
REMARK    2  A    between atoms: O_4  and  C_34
REMARK    3  A    between atoms: N_6  and  C_9
REMARK    4  A    between atoms: N_7  and  C_13
REMARK    5  A    between atoms: C_26  and  C_28
REMARK                            x       y       z     vdW  Elec       q    Type
REMARK                         _______ _______ _______ _____ _____    ______ ____
ROOT
ATOM      1  O   UNL     1     -16.824   1.535  24.402  0.00  0.00    -0.273 OA
ATOM      2  O   UNL     1     -17.474   6.756  24.677  0.00  0.00    -0.270 OA
ATOM      5  N   UNL     1     -16.960   4.653  25.456  0.00  0.00    -0.284 N 
ATOM      8  N   UNL     1     -15.927   3.190  23.122  0.00  0.00    -0.283 N 
ATOM      9  C   UNL     1     -16.459   2.831  26.878  0.00  0.00    +0.105 C 
ATOM     10  C   UNL     1     -16.071   3.512  25.559  0.00  0.00    +0.183 C 
ATOM     11  C   UNL     1     -17.927   3.225  27.063  0.00  0.00    +0.043 C 
ATOM     12  C   UNL     1     -17.989   4.631  26.486  0.00  0.00    +0.111 C 
ATOM     16  C   UNL     1     -16.346   2.668  24.328  0.00  0.00    +0.240 C 
ATOM     20  C   UNL     1     -16.789   5.734  24.619  0.00  0.00    +0.249 C 
ATOM     22  C   UNL     1     -15.736   5.649  23.573  0.00  0.00    +0.059 A 
ATOM     23  C   UNL     1     -15.431   4.484  22.849  0.00  0.00    +0.046 A 
ATOM     24  C   UNL     1     -15.146   6.871  23.197  0.00  0.00    +0.023 A 
ATOM     25  C   UNL     1     -14.594   4.585  21.724  0.00  0.00    +0.024 A 
ATOM     26  C   UNL     1     -14.281   6.942  22.108  0.00  0.00    -0.017 A 
ATOM     27  C   UNL     1     -14.014   5.800  21.362  0.00  0.00    +0.010 A 
ATOM     37  H   UNL     1     -15.896   2.531  22.348  0.00  0.00    +0.155 HD
ENDROOT
BRANCH   9   6
ATOM      3  O   UNL     1     -15.402   1.283  29.058  0.00  0.00    -0.253 OA
ATOM      6  N   UNL     1     -15.647   3.318  27.970  0.00  0.00    -0.294 N 
ATOM      7  N   UNL     1     -14.421   3.207  29.910  0.00  0.00    -0.297 N 
ATOM     21  C   UNL     1     -15.177   2.491  28.986  0.00  0.00    +0.300 C 
ATOM     35  H   UNL     1     -15.467   4.316  28.036  0.00  0.00    +0.151 HD
ATOM     36  H   UNL     1     -14.358   4.214  29.794  0.00  0.00    +0.151 HD
BRANCH   7  13
ATOM     13  C   UNL     1     -13.809   2.602  31.070  0.00  0.00    +0.074 C 
ATOM     14  C   UNL     1     -14.870   2.082  32.046  0.00  0.00    +0.022 C 
ATOM     15  C   UNL     1     -12.851   3.579  31.761  0.00  0.00    +0.022 C 
ATOM     17  C   UNL     1     -15.603   3.211  32.769  0.00  0.00    +0.002 C 
ATOM     18  C   UNL     1     -13.588   4.706  32.485  0.00  0.00    +0.002 C 
ATOM     19  C   UNL     1     -14.631   4.164  33.457  0.00  0.00    +0.000 C 
ENDBRANCH   7  13
ENDBRANCH   9   6
BRANCH  26  28
ATOM     28  C   UNL     1     -13.680   8.205  21.738  0.00  0.00    -0.018 A 
ATOM     29  C   UNL     1     -12.685   8.245  20.763  0.00  0.00    +0.012 A 
ATOM     30  C   UNL     1     -14.097   9.383  22.359  0.00  0.00    +0.012 A 
ATOM     31  C   UNL     1     -12.106   9.463  20.407  0.00  0.00    +0.046 A 
ATOM     32  C   UNL     1     -13.519  10.601  22.002  0.00  0.00    +0.046 A 
ATOM     33  C   UNL     1     -12.523  10.641  21.027  0.00  0.00    +0.120 A 
BRANCH  33   4
ATOM      4  O   UNL     1     -11.958  11.830  20.680  0.00  0.00    -0.495 OA
ATOM     34  C   UNL     1     -11.965  12.172  19.295  0.00  0.00    +0.277 C 
ENDBRANCH  33   4
ENDBRANCH  26  28
TORSDOF 4
ENDMDL
MODEL 2
REMARK VINA RESULT:      -7.7     25.809     30.699
REMARK  Name = 11941402
REMARK  5 active torsions:
REMARK  status: ('A' for Active; 'I' for Inactive)
REMARK    1  A    between atoms: O_4  and  C_33
REMARK    2  A    between atoms: O_4  and  C_34
REMARK    3  A    between atoms: N_6  and  C_9
REMARK    4  A    between atoms: N_7  and  C_13
REMARK    5  A    between atoms: C_26  and  C_28
REMARK                            x       y       z     vdW  Elec       q    Type
REMARK                         _______ _______ _______ _____ _____    ______ ____
ROOT
ATOM      1  O   UNL     1       6.038  10.672  -0.196  0.00  0.00    -0.273 OA
ATOM      2  O   UNL     1       6.681  11.245   5.001  0.00  0.00    -0.270 OA
ATOM      5  N   UNL     1       5.509  10.955   3.043  0.00  0.00    -0.284 N 
ATOM      8  N   UNL     1       7.330   9.488   1.258  0.00  0.00    -0.283 N 
ATOM      9  C   UNL     1       3.760  10.806   1.458  0.00  0.00    +0.105 C 
ATOM     10  C   UNL     1       5.054  10.134   1.938  0.00  0.00    +0.183 C 
ATOM     11  C   UNL     1       3.950  12.270   1.862  0.00  0.00    +0.043 C 
ATOM     12  C   UNL     1       4.728  12.178   3.165  0.00  0.00    +0.111 C 
ATOM     16  C   UNL     1       6.176  10.163   0.918  0.00  0.00    +0.240 C 
ATOM     20  C   UNL     1       6.442  10.587   3.989  0.00  0.00    +0.249 C 
ATOM     22  C   UNL     1       7.217   9.341   3.758  0.00  0.00    +0.059 A 
ATOM     23  C   UNL     1       7.681   8.917   2.501  0.00  0.00    +0.046 A 
ATOM     24  C   UNL     1       7.636   8.657   4.916  0.00  0.00    +0.023 A 
ATOM     25  C   UNL     1       8.606   7.859   2.441  0.00  0.00    +0.024 A 
ATOM     26  C   UNL     1       8.516   7.580   4.831  0.00  0.00    -0.017 A 
ATOM     27  C   UNL     1       9.012   7.190   3.594  0.00  0.00    +0.010 A 
ATOM     37  H   UNL     1       7.974   9.310   0.491  0.00  0.00    +0.155 HD
ENDROOT
BRANCH   9   6
ATOM      3  O   UNL     1       1.117  11.929   1.581  0.00  0.00    -0.253 OA
ATOM      6  N   UNL     1       2.606  10.230   2.109  0.00  0.00    -0.294 N 
ATOM      7  N   UNL     1       0.423  10.086   2.811  0.00  0.00    -0.297 N 
ATOM     21  C   UNL     1       1.359  10.848   2.118  0.00  0.00    +0.300 C 
ATOM     35  H   UNL     1       2.724   9.372   2.641  0.00  0.00    +0.151 HD
ATOM     36  H   UNL     1       0.747   9.244   3.276  0.00  0.00    +0.151 HD
BRANCH   7  13
ATOM     13  C   UNL     1      -0.955  10.486   2.978  0.00  0.00    +0.074 C 
ATOM     14  C   UNL     1      -1.061  11.757   3.829  0.00  0.00    +0.022 C 
ATOM     15  C   UNL     1      -1.791   9.348   3.575  0.00  0.00    +0.022 C 
ATOM     17  C   UNL     1      -0.743  11.503   5.302  0.00  0.00    +0.002 C 
ATOM     18  C   UNL     1      -1.472   9.098   5.049  0.00  0.00    +0.002 C 
ATOM     19  C   UNL     1      -1.594  10.375   5.876  0.00  0.00    +0.000 C 
ENDBRANCH   7  13
ENDBRANCH   9   6
BRANCH  26  28
ATOM     28  C   UNL     1       8.933   6.886   6.031  0.00  0.00    -0.018 A 
ATOM     29  C   UNL     1       8.711   7.461   7.281  0.00  0.00    +0.012 A 
ATOM     30  C   UNL     1       9.555   5.642   5.935  0.00  0.00    +0.012 A 
ATOM     31  C   UNL     1       9.111   6.792   8.437  0.00  0.00    +0.046 A 
ATOM     32  C   UNL     1       9.955   4.972   7.091  0.00  0.00    +0.046 A 
ATOM     33  C   UNL     1       9.734   5.547   8.342  0.00  0.00    +0.120 A 
BRANCH  33   4
ATOM      4  O   UNL     1      10.126   4.894   9.470  0.00  0.00    -0.495 OA
ATOM     34  C   UNL     1       9.104   4.526  10.395  0.00  0.00    +0.277 C 
ENDBRANCH  33   4
ENDBRANCH  26  28
TORSDOF 4
ENDMDL
MODEL 3
REMARK VINA RESULT:      -7.7      4.766      9.078
REMARK  Name = 11941402
REMARK  5 active torsions:
REMARK  status: ('A' for Active; 'I' for Inactive)
REMARK    1  A    between atoms: O_4  and  C_33
REMARK    2  A    between atoms: O_4  and  C_34
REMARK    3  A    between atoms: N_6  and  C_9
REMARK    4  A    between atoms: N_7  and  C_13
REMARK    5  A    between atoms: C_26  and  C_28
REMARK                            x       y       z     vdW  Elec       q    Type
REMARK                         _______ _______ _______ _____ _____    ______ ____
ROOT
ATOM      1  O   UNL     1     -13.674   6.325  34.223  0.00  0.00    -0.273 OA
ATOM      2  O   UNL     1     -17.676   6.273  30.797  0.00  0.00    -0.270 OA
ATOM      5  N   UNL     1     -15.827   7.130  31.863  0.00  0.00    -0.284 N 
ATOM      8  N   UNL     1     -14.218   4.790  32.631  0.00  0.00    -0.283 N 
ATOM      9  C   UNL     1     -14.139   8.600  32.626  0.00  0.00    +0.105 C 
ATOM     10  C   UNL     1     -14.395   7.185  32.089  0.00  0.00    +0.183 C 
ATOM     11  C   UNL     1     -15.469   8.979  33.281  0.00  0.00    +0.043 C 
ATOM     12  C   UNL     1     -16.503   8.306  32.391  0.00  0.00    +0.111 C 
ATOM     16  C   UNL     1     -14.098   6.085  33.091  0.00  0.00    +0.240 C 
ATOM     20  C   UNL     1     -16.485   6.191  31.098  0.00  0.00    +0.249 C 
ATOM     22  C   UNL     1     -15.720   5.005  30.635  0.00  0.00    +0.059 A 
ATOM     23  C   UNL     1     -14.749   4.339  31.403  0.00  0.00    +0.046 A 
ATOM     24  C   UNL     1     -16.139   4.444  29.414  0.00  0.00    +0.023 A 
ATOM     25  C   UNL     1     -14.272   3.093  30.959  0.00  0.00    +0.024 A 
ATOM     26  C   UNL     1     -15.619   3.231  28.968  0.00  0.00    -0.017 A 
ATOM     27  C   UNL     1     -14.694   2.548  29.748  0.00  0.00    +0.010 A 
ATOM     37  H   UNL     1     -13.794   4.077  33.220  0.00  0.00    +0.155 HD
ENDROOT
BRANCH   9   6
ATOM      3  O   UNL     1     -11.582   8.890  31.344  0.00  0.00    -0.253 OA
ATOM      6  N   UNL     1     -13.809   9.509  31.551  0.00  0.00    -0.294 N 
ATOM      7  N   UNL     1     -12.487  10.533  29.975  0.00  0.00    -0.297 N 
ATOM     21  C   UNL     1     -12.537   9.581  30.990  0.00  0.00    +0.300 C 
ATOM     35  H   UNL     1     -14.514  10.170  31.239  0.00  0.00    +0.151 HD
ATOM     36  H   UNL     1     -13.315  11.098  29.813  0.00  0.00    +0.151 HD
BRANCH   7  13
ATOM     13  C   UNL     1     -11.291  10.820  29.218  0.00  0.00    +0.074 C 
ATOM     14  C   UNL     1     -11.210  12.307  28.856  0.00  0.00    +0.022 C 
ATOM     15  C   UNL     1     -11.207   9.939  27.966  0.00  0.00    +0.022 C 
ATOM     17  C   UNL     1     -12.227  12.705  27.788  0.00  0.00    +0.002 C 
ATOM     18  C   UNL     1     -12.225  10.341  26.898  0.00  0.00    +0.002 C 
ATOM     19  C   UNL     1     -12.118  11.823  26.548  0.00  0.00    +0.000 C 
ENDBRANCH   7  13
ENDBRANCH   9   6
BRANCH  26  28
ATOM     28  C   UNL     1     -16.059   2.671  27.708  0.00  0.00    -0.018 A 
ATOM     29  C   UNL     1     -16.082   3.465  26.563  0.00  0.00    +0.012 A 
ATOM     30  C   UNL     1     -16.458   1.336  27.640  0.00  0.00    +0.012 A 
ATOM     31  C   UNL     1     -16.506   2.925  25.348  0.00  0.00    +0.046 A 
ATOM     32  C   UNL     1     -16.880   0.796  26.426  0.00  0.00    +0.046 A 
ATOM     33  C   UNL     1     -16.905   1.591  25.280  0.00  0.00    +0.120 A 
BRANCH  33   4
ATOM      4  O   UNL     1     -17.318   1.064  24.095  0.00  0.00    -0.495 OA
ATOM     34  C   UNL     1     -17.611   1.982  23.043  0.00  0.00    +0.277 C 
ENDBRANCH  33   4
ENDBRANCH  26  28
TORSDOF 4
ENDMDL
MODEL 4
REMARK VINA RESULT:      -7.4     20.776     23.142
REMARK  Name = 11941402
REMARK  5 active torsions:
REMARK  status: ('A' for Active; 'I' for Inactive)
REMARK    1  A    between atoms: O_4  and  C_33
REMARK    2  A    between atoms: O_4  and  C_34
REMARK    3  A    between atoms: N_6  and  C_9
REMARK    4  A    between atoms: N_7  and  C_13
REMARK    5  A    between atoms: C_26  and  C_28
REMARK                            x       y       z     vdW  Elec       q    Type
REMARK                         _______ _______ _______ _____ _____    ______ ____
ROOT
ATOM      1  O   UNL     1      -1.087 -12.353  13.581  0.00  0.00    -0.273 OA
ATOM      2  O   UNL     1      -5.343 -13.481  10.687  0.00  0.00    -0.270 OA
ATOM      5  N   UNL     1      -4.141 -13.125  12.615  0.00  0.00    -0.284 N 
ATOM      8  N   UNL     1      -2.056 -11.183  11.885  0.00  0.00    -0.283 N 
ATOM      9  C   UNL     1      -3.488 -13.043  14.887  0.00  0.00    +0.105 C 
ATOM     10  C   UNL     1      -3.496 -12.248  13.574  0.00  0.00    +0.183 C 
ATOM     11  C   UNL     1      -3.503 -14.501  14.421  0.00  0.00    +0.043 C 
ATOM     12  C   UNL     1      -4.355 -14.458  13.161  0.00  0.00    +0.111 C 
ATOM     16  C   UNL     1      -2.113 -11.976  13.012  0.00  0.00    +0.240 C 
ATOM     20  C   UNL     1      -4.660 -12.743  11.397  0.00  0.00    +0.249 C 
ATOM     22  C   UNL     1      -4.356 -11.374  10.906  0.00  0.00    +0.059 A 
ATOM     23  C   UNL     1      -3.120 -10.728  11.075  0.00  0.00    +0.046 A 
ATOM     24  C   UNL     1      -5.336 -10.788  10.081  0.00  0.00    +0.023 A 
ATOM     25  C   UNL     1      -2.871  -9.543  10.360  0.00  0.00    +0.024 A 
ATOM     26  C   UNL     1      -5.087  -9.588   9.418  0.00  0.00    -0.017 A 
ATOM     27  C   UNL     1      -3.849  -8.972   9.547  0.00  0.00    +0.010 A 
ATOM     37  H   UNL     1      -1.136 -10.812  11.658  0.00  0.00    +0.155 HD
ENDROOT
BRANCH   9   6
ATOM      3  O   UNL     1      -3.700 -11.019  16.917  0.00  0.00    -0.253 OA
ATOM      6  N   UNL     1      -4.654 -12.737  15.684  0.00  0.00    -0.294 N 
ATOM      7  N   UNL     1      -5.908 -11.647  17.270  0.00  0.00    -0.297 N 
ATOM     21  C   UNL     1      -4.665 -11.735  16.649  0.00  0.00    +0.300 C 
ATOM     35  H   UNL     1      -5.479 -13.322  15.585  0.00  0.00    +0.151 HD
ATOM     36  H   UNL     1      -6.612 -12.334  17.022  0.00  0.00    +0.151 HD
BRANCH   7  13
ATOM     13  C   UNL     1      -6.205 -10.691  18.313  0.00  0.00    +0.074 C 
ATOM     14  C   UNL     1      -6.405 -11.392  19.661  0.00  0.00    +0.022 C 
ATOM     15  C   UNL     1      -7.422  -9.835  17.946  0.00  0.00    +0.022 C 
ATOM     17  C   UNL     1      -7.715 -12.175  19.725  0.00  0.00    +0.002 C 
ATOM     18  C   UNL     1      -8.732 -10.623  18.012  0.00  0.00    +0.002 C 
ATOM     19  C   UNL     1      -8.913 -11.301  19.366  0.00  0.00    +0.000 C 
ENDBRANCH   7  13
ENDBRANCH   9   6
BRANCH  26  28
ATOM     28  C   UNL     1      -6.107  -8.998   8.578  0.00  0.00    -0.018 A 
ATOM     29  C   UNL     1      -6.905  -7.968   9.071  0.00  0.00    +0.012 A 
ATOM     30  C   UNL     1      -6.289  -9.461   7.275  0.00  0.00    +0.012 A 
ATOM     31  C   UNL     1      -7.888  -7.398   8.261  0.00  0.00    +0.046 A 
ATOM     32  C   UNL     1      -7.271  -8.891   6.464  0.00  0.00    +0.046 A 
ATOM     33  C   UNL     1      -8.071  -7.860   6.957  0.00  0.00    +0.120 A 
BRANCH  33   4
ATOM      4  O   UNL     1      -9.029  -7.305   6.167  0.00  0.00    -0.495 OA
ATOM     34  C   UNL     1     -10.140  -6.695   6.824  0.00  0.00    +0.277 C 
ENDBRANCH  33   4
ENDBRANCH  26  28
TORSDOF 4
ENDMDL
MODEL 5
REMARK VINA RESULT:      -7.4     31.841     36.142
REMARK  Name = 11941402
REMARK  5 active torsions:
REMARK  status: ('A' for Active; 'I' for Inactive)
REMARK    1  A    between atoms: O_4  and  C_33
REMARK    2  A    between atoms: O_4  and  C_34
REMARK    3  A    between atoms: N_6  and  C_9
REMARK    4  A    between atoms: N_7  and  C_13
REMARK    5  A    between atoms: C_26  and  C_28
REMARK                            x       y       z     vdW  Elec       q    Type
REMARK                         _______ _______ _______ _____ _____    ______ ____
ROOT
ATOM      1  O   UNL     1      14.567   6.520  -1.031  0.00  0.00    -0.273 OA
ATOM      2  O   UNL     1      10.600   3.152  -1.855  0.00  0.00    -0.270 OA
ATOM      5  N   UNL     1      12.118   4.356  -0.615  0.00  0.00    -0.284 N 
ATOM      8  N   UNL     1      12.610   6.811  -2.158  0.00  0.00    -0.283 N 
ATOM      9  C   UNL     1      13.452   5.153   1.168  0.00  0.00    +0.105 C 
ATOM     10  C   UNL     1      12.584   5.593  -0.019  0.00  0.00    +0.183 C 
ATOM     11  C   UNL     1      13.946   3.765   0.752  0.00  0.00    +0.043 C 
ATOM     12  C   UNL     1      12.772   3.194  -0.030  0.00  0.00    +0.111 C 
ATOM     16  C   UNL     1      13.356   6.307  -1.113  0.00  0.00    +0.240 C 
ATOM     20  C   UNL     1      11.068   4.234  -1.500  0.00  0.00    +0.249 C 
ATOM     22  C   UNL     1      10.490   5.476  -2.074  0.00  0.00    +0.059 A 
ATOM     23  C   UNL     1      11.243   6.604  -2.443  0.00  0.00    +0.046 A 
ATOM     24  C   UNL     1       9.123   5.418  -2.408  0.00  0.00    +0.023 A 
ATOM     25  C   UNL     1      10.622   7.616  -3.197  0.00  0.00    +0.024 A 
ATOM     26  C   UNL     1       8.515   6.453  -3.114  0.00  0.00    -0.017 A 
ATOM     27  C   UNL     1       9.268   7.547  -3.520  0.00  0.00    +0.010 A 
ATOM     37  H   UNL     1      13.090   7.483  -2.753  0.00  0.00    +0.155 HD
ENDROOT
BRANCH   9   6
ATOM      3  O   UNL     1      12.743   7.354   2.875  0.00  0.00    -0.253 OA
ATOM      6  N   UNL     1      12.672   5.088   2.382  0.00  0.00    -0.294 N 
ATOM      7  N   UNL     1      11.614   5.874   4.264  0.00  0.00    -0.297 N 
ATOM     21  C   UNL     1      12.377   6.211   3.149  0.00  0.00    +0.300 C 
ATOM     35  H   UNL     1      12.386   4.176   2.729  0.00  0.00    +0.151 HD
ATOM     36  H   UNL     1      11.429   4.890   4.433  0.00  0.00    +0.151 HD
BRANCH   7  13
ATOM     13  C   UNL     1      11.162   6.843   5.236  0.00  0.00    +0.074 C 
ATOM     14  C   UNL     1      10.666   6.155   6.511  0.00  0.00    +0.022 C 
ATOM     15  C   UNL     1      10.084   7.757   4.642  0.00  0.00    +0.022 C 
ATOM     17  C   UNL     1       9.333   5.436   6.308  0.00  0.00    +0.002 C 
ATOM     18  C   UNL     1       8.752   7.035   4.441  0.00  0.00    +0.002 C 
ATOM     19  C   UNL     1       8.273   6.367   5.727  0.00  0.00    +0.000 C 
ENDBRANCH   7  13
ENDBRANCH   9   6
BRANCH  26  28
ATOM     28  C   UNL     1       7.108   6.379  -3.445  0.00  0.00    -0.018 A 
ATOM     29  C   UNL     1       6.173   7.062  -2.670  0.00  0.00    +0.012 A 
ATOM     30  C   UNL     1       6.689   5.623  -4.540  0.00  0.00    +0.012 A 
ATOM     31  C   UNL     1       4.816   6.990  -2.989  0.00  0.00    +0.046 A 
ATOM     32  C   UNL     1       5.333   5.552  -4.860  0.00  0.00    +0.046 A 
ATOM     33  C   UNL     1       4.397   6.235  -4.084  0.00  0.00    +0.120 A 
BRANCH  33   4
ATOM      4  O   UNL     1       3.074   6.165  -4.395  0.00  0.00    -0.495 OA
ATOM     34  C   UNL     1       2.497   4.863  -4.488  0.00  0.00    +0.277 C 
ENDBRANCH  33   4
ENDBRANCH  26  28
TORSDOF 4
ENDMDL
MODEL 6
REMARK VINA RESULT:      -7.4     32.328     35.996
REMARK  Name = 11941402
REMARK  5 active torsions:
REMARK  status: ('A' for Active; 'I' for Inactive)
REMARK    1  A    between atoms: O_4  and  C_33
REMARK    2  A    between atoms: O_4  and  C_34
REMARK    3  A    between atoms: N_6  and  C_9
REMARK    4  A    between atoms: N_7  and  C_13
REMARK    5  A    between atoms: C_26  and  C_28
REMARK                            x       y       z     vdW  Elec       q    Type
REMARK                         _______ _______ _______ _____ _____    ______ ____
ROOT
ATOM      1  O   UNL     1      23.284   6.128  20.514  0.00  0.00    -0.273 OA
ATOM      2  O   UNL     1      19.257   8.582  22.861  0.00  0.00    -0.270 OA
ATOM      5  N   UNL     1      21.191   8.415  21.628  0.00  0.00    -0.284 N 
ATOM      8  N   UNL     1      21.042   5.794  20.300  0.00  0.00    -0.283 N 
ATOM      9  C   UNL     1      23.180   8.944  20.463  0.00  0.00    +0.105 C 
ATOM     10  C   UNL     1      21.900   8.099  20.402  0.00  0.00    +0.183 C 
ATOM     11  C   UNL     1      23.411   9.133  21.964  0.00  0.00    +0.043 C 
ATOM     12  C   UNL     1      22.001   9.223  22.528  0.00  0.00    +0.111 C 
ATOM     16  C   UNL     1      22.149   6.603  20.449  0.00  0.00    +0.240 C 
ATOM     20  C   UNL     1      19.861   8.154  21.878  0.00  0.00    +0.249 C 
ATOM     22  C   UNL     1      19.126   7.287  20.921  0.00  0.00    +0.059 A 
ATOM     23  C   UNL     1      19.679   6.162  20.285  0.00  0.00    +0.046 A 
ATOM     24  C   UNL     1      17.747   7.542  20.798  0.00  0.00    +0.023 A 
ATOM     25  C   UNL     1      18.823   5.284  19.596  0.00  0.00    +0.024 A 
ATOM     26  C   UNL     1      16.923   6.685  20.071  0.00  0.00    -0.017 A 
ATOM     27  C   UNL     1      17.459   5.548  19.481  0.00  0.00    +0.010 A 
ATOM     37  H   UNL     1      21.240   4.817  20.095  0.00  0.00    +0.155 HD
ENDROOT
BRANCH   9   6
ATOM      3  O   UNL     1      23.528   9.486  17.661  0.00  0.00    -0.253 OA
ATOM      6  N   UNL     1      22.992  10.213  19.799  0.00  0.00    -0.294 N 
ATOM      7  N   UNL     1      22.939  11.699  18.047  0.00  0.00    -0.297 N 
ATOM     21  C   UNL     1      23.185  10.384  18.431  0.00  0.00    +0.300 C 
ATOM     35  H   UNL     1      22.779  11.031  20.362  0.00  0.00    +0.151 HD
ATOM     36  H   UNL     1      22.732  12.375  18.775  0.00  0.00    +0.151 HD
BRANCH   7  13
ATOM     13  C   UNL     1      23.061  12.161  16.683  0.00  0.00    +0.074 C 
ATOM     14  C   UNL     1      23.234  13.683  16.630  0.00  0.00    +0.022 C 
ATOM     15  C   UNL     1      21.864  11.709  15.839  0.00  0.00    +0.022 C 
ATOM     17  C   UNL     1      21.950  14.431  16.983  0.00  0.00    +0.002 C 
ATOM     18  C   UNL     1      20.581  12.461  16.194  0.00  0.00    +0.002 C 
ATOM     19  C   UNL     1      20.776  13.973  16.124  0.00  0.00    +0.000 C 
ENDBRANCH   7  13
ENDBRANCH   9   6
BRANCH  26  28
ATOM     28  C   UNL     1      15.508   6.965  19.951  0.00  0.00    -0.018 A 
ATOM     29  C   UNL     1      14.958   7.256  18.704  0.00  0.00    +0.012 A 
ATOM     30  C   UNL     1      14.696   6.943  21.085  0.00  0.00    +0.012 A 
ATOM     31  C   UNL     1      13.595   7.526  18.589  0.00  0.00    +0.046 A 
ATOM     32  C   UNL     1      13.332   7.212  20.970  0.00  0.00    +0.046 A 
ATOM     33  C   UNL     1      12.781   7.504  19.722  0.00  0.00    +0.120 A 
BRANCH  33   4
ATOM      4  O   UNL     1      11.451   7.767  19.610  0.00  0.00    -0.495 OA
ATOM     34  C   UNL     1      10.753   8.106  20.807  0.00  0.00    +0.277 C 
ENDBRANCH  33   4
ENDBRANCH  26  28
TORSDOF 4
ENDMDL
MODEL 7
REMARK VINA RESULT:      -7.3     16.651     20.253
REMARK  Name = 11941402
REMARK  5 active torsions:
REMARK  status: ('A' for Active; 'I' for Inactive)
REMARK    1  A    between atoms: O_4  and  C_33
REMARK    2  A    between atoms: O_4  and  C_34
REMARK    3  A    between atoms: N_6  and  C_9
REMARK    4  A    between atoms: N_7  and  C_13
REMARK    5  A    between atoms: C_26  and  C_28
REMARK                            x       y       z     vdW  Elec       q    Type
REMARK                         _______ _______ _______ _____ _____    ______ ____
ROOT
ATOM      1  O   UNL     1     -13.426  -8.368  16.949  0.00  0.00    -0.273 OA
ATOM      2  O   UNL     1     -10.331 -11.426  13.977  0.00  0.00    -0.270 OA
ATOM      5  N   UNL     1     -11.765  -9.685  14.426  0.00  0.00    -0.284 N 
ATOM      8  N   UNL     1     -11.241  -8.949  17.226  0.00  0.00    -0.283 N 
ATOM      9  C   UNL     1     -13.260  -7.869  14.180  0.00  0.00    +0.105 C 
ATOM     10  C   UNL     1     -12.045  -8.370  14.972  0.00  0.00    +0.183 C 
ATOM     11  C   UNL     1     -13.961  -9.159  13.748  0.00  0.00    +0.043 C 
ATOM     12  C   UNL     1     -12.808 -10.122  13.510  0.00  0.00    +0.111 C 
ATOM     16  C   UNL     1     -12.322  -8.592  16.447  0.00  0.00    +0.240 C 
ATOM     20  C   UNL     1     -10.592 -10.390  14.589  0.00  0.00    +0.249 C 
ATOM     22  C   UNL     1      -9.603  -9.885  15.575  0.00  0.00    +0.059 A 
ATOM     23  C   UNL     1      -9.940  -9.309  16.812  0.00  0.00    +0.046 A 
ATOM     24  C   UNL     1      -8.254 -10.170  15.291  0.00  0.00    +0.023 A 
ATOM     25  C   UNL     1      -8.924  -9.095  17.760  0.00  0.00    +0.024 A 
ATOM     26  C   UNL     1      -7.254  -9.907  16.225  0.00  0.00    -0.017 A 
ATOM     27  C   UNL     1      -7.591  -9.381  17.466  0.00  0.00    +0.010 A 
ATOM     37  H   UNL     1     -11.379  -8.862  18.230  0.00  0.00    +0.155 HD
ENDROOT
BRANCH   9   6
ATOM      3  O   UNL     1     -13.235  -5.002  13.964  0.00  0.00    -0.253 OA
ATOM      6  N   UNL     1     -12.845  -7.092  13.034  0.00  0.00    -0.294 N 
ATOM      7  N   UNL     1     -12.419  -5.201  11.800  0.00  0.00    -0.297 N 
ATOM     21  C   UNL     1     -12.867  -5.700  13.020  0.00  0.00    +0.300 C 
ATOM     35  H   UNL     1     -12.592  -7.580  12.180  0.00  0.00    +0.151 HD
ATOM     36  H   UNL     1     -12.207  -5.867  11.063  0.00  0.00    +0.151 HD
BRANCH   7  13
ATOM     13  C   UNL     1     -12.335  -3.789  11.505  0.00  0.00    +0.074 C 
ATOM     14  C   UNL     1     -13.731  -3.170  11.372  0.00  0.00    +0.022 C 
ATOM     15  C   UNL     1     -11.494  -3.537  10.248  0.00  0.00    +0.022 C 
ATOM     17  C   UNL     1     -14.443  -3.603  10.092  0.00  0.00    +0.002 C 
ATOM     18  C   UNL     1     -12.211  -3.970   8.969  0.00  0.00    +0.002 C 
ATOM     19  C   UNL     1     -13.593  -3.333   8.854  0.00  0.00    +0.000 C 
ENDBRANCH   7  13
ENDBRANCH   9   6
BRANCH  26  28
ATOM     28  C   UNL     1      -5.873 -10.202  15.914  0.00  0.00    -0.018 A 
ATOM     29  C   UNL     1      -5.472 -10.342  14.587  0.00  0.00    +0.012 A 
ATOM     30  C   UNL     1      -4.942 -10.346  16.943  0.00  0.00    +0.012 A 
ATOM     31  C   UNL     1      -4.139 -10.627  14.287  0.00  0.00    +0.046 A 
ATOM     32  C   UNL     1      -3.610 -10.629  16.644  0.00  0.00    +0.046 A 
ATOM     33  C   UNL     1      -3.208 -10.770  15.316  0.00  0.00    +0.120 A 
BRANCH  33   4
ATOM      4  O   UNL     1      -1.909 -11.048  15.023  0.00  0.00    -0.495 OA
ATOM     34  C   UNL     1      -0.917 -10.205  15.608  0.00  0.00    +0.277 C 
ENDBRANCH  33   4
ENDBRANCH  26  28
TORSDOF 4
ENDMDL
MODEL 8
REMARK VINA RESULT:      -7.2     20.493     23.133
REMARK  Name = 11941402
REMARK  5 active torsions:
REMARK  status: ('A' for Active; 'I' for Inactive)
REMARK    1  A    between atoms: O_4  and  C_33
REMARK    2  A    between atoms: O_4  and  C_34
REMARK    3  A    between atoms: N_6  and  C_9
REMARK    4  A    between atoms: N_7  and  C_13
REMARK    5  A    between atoms: C_26  and  C_28
REMARK                            x       y       z     vdW  Elec       q    Type
REMARK                         _______ _______ _______ _____ _____    ______ ____
ROOT
ATOM      1  O   UNL     1      -2.157 -10.859  16.896  0.00  0.00    -0.273 OA
ATOM      2  O   UNL     1      -4.572 -14.001  13.425  0.00  0.00    -0.270 OA
ATOM      5  N   UNL     1      -4.411 -12.608  15.248  0.00  0.00    -0.284 N 
ATOM      8  N   UNL     1      -2.208 -10.761  14.622  0.00  0.00    -0.283 N 
ATOM      9  C   UNL     1      -4.897 -11.427  17.238  0.00  0.00    +0.105 C 
ATOM     10  C   UNL     1      -4.281 -11.289  15.839  0.00  0.00    +0.183 C 
ATOM     11  C   UNL     1      -4.706 -12.909  17.567  0.00  0.00    +0.043 C 
ATOM     12  C   UNL     1      -4.869 -13.592  16.218  0.00  0.00    +0.111 C 
ATOM     16  C   UNL     1      -2.794 -10.991  15.849  0.00  0.00    +0.240 C 
ATOM     20  C   UNL     1      -4.295 -12.903  13.907  0.00  0.00    +0.249 C 
ATOM     22  C   UNL     1      -3.782 -11.844  12.999  0.00  0.00    +0.059 A 
ATOM     23  C   UNL     1      -2.763 -10.937  13.336  0.00  0.00    +0.046 A 
ATOM     24  C   UNL     1      -4.255 -11.892  11.674  0.00  0.00    +0.023 A 
ATOM     25  C   UNL     1      -2.197 -10.147  12.320  0.00  0.00    +0.024 A 
ATOM     26  C   UNL     1      -3.713 -11.066  10.691  0.00  0.00    -0.017 A 
ATOM     27  C   UNL     1      -2.674 -10.202  11.011  0.00  0.00    +0.010 A 
ATOM     37  H   UNL     1      -1.285 -10.334  14.652  0.00  0.00    +0.155 HD
ENDROOT
BRANCH   9   6
ATOM      3  O   UNL     1      -6.036  -8.968  16.278  0.00  0.00    -0.253 OA
ATOM      6  N   UNL     1      -6.297 -11.071  17.224  0.00  0.00    -0.294 N 
ATOM      7  N   UNL     1      -8.145  -9.761  16.838  0.00  0.00    -0.297 N 
ATOM     21  C   UNL     1      -6.760  -9.852  16.738  0.00  0.00    +0.300 C 
ATOM     35  H   UNL     1      -6.966 -11.707  17.649  0.00  0.00    +0.151 HD
ATOM     36  H   UNL     1      -8.638 -10.519  17.300  0.00  0.00    +0.151 HD
BRANCH   7  13
ATOM     13  C   UNL     1      -8.896  -8.604  16.408  0.00  0.00    +0.074 C 
ATOM     14  C   UNL     1      -9.812  -8.094  17.525  0.00  0.00    +0.022 C 
ATOM     15  C   UNL     1      -9.691  -8.906  15.133  0.00  0.00    +0.022 C 
ATOM     17  C   UNL     1     -10.998  -9.022  17.779  0.00  0.00    +0.002 C 
ATOM     18  C   UNL     1     -10.879  -9.834  15.391  0.00  0.00    +0.002 C 
ATOM     19  C   UNL     1     -11.781  -9.300  16.500  0.00  0.00    +0.000 C 
ENDBRANCH   7  13
ENDBRANCH   9   6
BRANCH  26  28
ATOM     28  C   UNL     1      -4.215 -11.125   9.335  0.00  0.00    -0.018 A 
ATOM     29  C   UNL     1      -4.704  -9.974   8.722  0.00  0.00    +0.012 A 
ATOM     30  C   UNL     1      -4.206 -12.336   8.642  0.00  0.00    +0.012 A 
ATOM     31  C   UNL     1      -5.187 -10.031   7.414  0.00  0.00    +0.046 A 
ATOM     32  C   UNL     1      -4.688 -12.393   7.334  0.00  0.00    +0.046 A 
ATOM     33  C   UNL     1      -5.179 -11.241   6.720  0.00  0.00    +0.120 A 
BRANCH  33   4
ATOM      4  O   UNL     1      -5.650 -11.297   5.445  0.00  0.00    -0.495 OA
ATOM     34  C   UNL     1      -4.902 -12.071   4.510  0.00  0.00    +0.277 C 
ENDBRANCH  33   4
ENDBRANCH  26  28
TORSDOF 4
ENDMDL
MODEL 9
REMARK VINA RESULT:      -7.1     22.349     27.298
REMARK  Name = 11941402
REMARK  5 active torsions:
REMARK  status: ('A' for Active; 'I' for Inactive)
REMARK    1  A    between atoms: O_4  and  C_33
REMARK    2  A    between atoms: O_4  and  C_34
REMARK    3  A    between atoms: N_6  and  C_9
REMARK    4  A    between atoms: N_7  and  C_13
REMARK    5  A    between atoms: C_26  and  C_28
REMARK                            x       y       z     vdW  Elec       q    Type
REMARK                         _______ _______ _______ _____ _____    ______ ____
ROOT
ATOM      1  O   UNL     1      -0.375   9.592   4.802  0.00  0.00    -0.273 OA
ATOM      2  O   UNL     1      -5.418  11.117   4.767  0.00  0.00    -0.270 OA
ATOM      5  N   UNL     1      -3.279  10.894   3.951  0.00  0.00    -0.284 N 
ATOM      8  N   UNL     1      -2.276   8.369   5.078  0.00  0.00    -0.283 N 
ATOM      9  C   UNL     1      -1.321  11.145   2.649  0.00  0.00    +0.105 C 
ATOM     10  C   UNL     1      -2.221  10.112   3.340  0.00  0.00    +0.183 C 
ATOM     11  C   UNL     1      -1.548  12.419   3.466  0.00  0.00    +0.043 C 
ATOM     12  C   UNL     1      -3.012  12.323   3.868  0.00  0.00    +0.111 C 
ATOM     16  C   UNL     1      -1.546   9.377   4.483  0.00  0.00    +0.240 C 
ATOM     20  C   UNL     1      -4.483  10.402   4.407  0.00  0.00    +0.249 C 
ATOM     22  C   UNL     1      -4.649   8.928   4.492  0.00  0.00    +0.059 A 
ATOM     23  C   UNL     1      -3.635   8.038   4.888  0.00  0.00    +0.046 A 
ATOM     24  C   UNL     1      -5.961   8.448   4.319  0.00  0.00    +0.023 A 
ATOM     25  C   UNL     1      -3.977   6.702   5.165  0.00  0.00    +0.024 A 
ATOM     26  C   UNL     1      -6.270   7.110   4.552  0.00  0.00    -0.017 A 
ATOM     27  C   UNL     1      -5.279   6.239   4.989  0.00  0.00    +0.010 A 
ATOM     37  H   UNL     1      -1.743   7.734   5.668  0.00  0.00    +0.155 HD
ENDROOT
BRANCH   9   6
ATOM      3  O   UNL     1      -1.244   9.175   0.557  0.00  0.00    -0.253 OA
ATOM      6  N   UNL     1      -1.713  11.332   1.271  0.00  0.00    -0.294 N 
ATOM      7  N   UNL     1      -2.078  10.757  -0.924  0.00  0.00    -0.297 N 
ATOM     21  C   UNL     1      -1.642  10.316   0.323  0.00  0.00    +0.300 C 
ATOM     35  H   UNL     1      -1.988  12.261   0.964  0.00  0.00    +0.151 HD
ATOM     36  H   UNL     1      -2.316  11.739  -1.023  0.00  0.00    +0.151 HD
BRANCH   7  13
ATOM     13  C   UNL     1      -2.112   9.912  -2.095  0.00  0.00    +0.074 C 
ATOM     14  C   UNL     1      -0.772   9.943  -2.837  0.00  0.00    +0.022 C 
ATOM     15  C   UNL     1      -3.269  10.301  -3.022  0.00  0.00    +0.022 C 
ATOM     17  C   UNL     1      -0.530  11.271  -3.553  0.00  0.00    +0.002 C 
ATOM     18  C   UNL     1      -3.023  11.629  -3.738  0.00  0.00    +0.002 C 
ATOM     19  C   UNL     1      -1.689  11.632  -4.477  0.00  0.00    +0.000 C 
ENDBRANCH   7  13
ENDBRANCH   9   6
BRANCH  26  28
ATOM     28  C   UNL     1      -7.623   6.633   4.365  0.00  0.00    -0.018 A 
ATOM     29  C   UNL     1      -8.455   7.246   3.430  0.00  0.00    +0.012 A 
ATOM     30  C   UNL     1      -8.094   5.559   5.120  0.00  0.00    +0.012 A 
ATOM     31  C   UNL     1      -9.759   6.786   3.249  0.00  0.00    +0.046 A 
ATOM     32  C   UNL     1      -9.398   5.099   4.939  0.00  0.00    +0.046 A 
ATOM     33  C   UNL     1     -10.231   5.712   4.004  0.00  0.00    +0.120 A 
BRANCH  33   4
ATOM      4  O   UNL     1     -11.504   5.264   3.828  0.00  0.00    -0.495 OA
ATOM     34  C   UNL     1     -12.254   5.841   2.761  0.00  0.00    +0.277 C 
ENDBRANCH  33   4
ENDBRANCH  26  28
TORSDOF 4
ENDMDL
MODEL 10
REMARK VINA RESULT:      -7.1      2.901      9.165
REMARK  Name = 11941402
REMARK  5 active torsions:
REMARK  status: ('A' for Active; 'I' for Inactive)
REMARK    1  A    between atoms: O_4  and  C_33
REMARK    2  A    between atoms: O_4  and  C_34
REMARK    3  A    between atoms: N_6  and  C_9
REMARK    4  A    between atoms: N_7  and  C_13
REMARK    5  A    between atoms: C_26  and  C_28
REMARK                            x       y       z     vdW  Elec       q    Type
REMARK                         _______ _______ _______ _____ _____    ______ ____
ROOT
ATOM      1  O   UNL     1     -19.116   6.411  23.196  0.00  0.00    -0.273 OA
ATOM      2  O   UNL     1     -15.353   2.979  24.545  0.00  0.00    -0.270 OA
ATOM      5  N   UNL     1     -16.214   4.996  23.851  0.00  0.00    -0.284 N 
ATOM      8  N   UNL     1     -18.875   5.174  25.092  0.00  0.00    -0.283 N 
ATOM      9  C   UNL     1     -16.415   7.192  22.994  0.00  0.00    +0.105 C 
ATOM     10  C   UNL     1     -16.891   6.252  24.111  0.00  0.00    +0.183 C 
ATOM     11  C   UNL     1     -16.064   6.236  21.851  0.00  0.00    +0.043 C 
ATOM     12  C   UNL     1     -15.519   5.012  22.571  0.00  0.00    +0.111 C 
ATOM     16  C   UNL     1     -18.374   5.935  24.057  0.00  0.00    +0.240 C 
ATOM     20  C   UNL     1     -16.072   3.958  24.746  0.00  0.00    +0.249 C 
ATOM     22  C   UNL     1     -16.851   4.013  26.010  0.00  0.00    +0.059 A 
ATOM     23  C   UNL     1     -18.166   4.498  26.110  0.00  0.00    +0.046 A 
ATOM     24  C   UNL     1     -16.263   3.377  27.120  0.00  0.00    +0.023 A 
ATOM     25  C   UNL     1     -18.883   4.275  27.299  0.00  0.00    +0.024 A 
ATOM     26  C   UNL     1     -16.973   3.208  28.307  0.00  0.00    -0.017 A 
ATOM     27  C   UNL     1     -18.289   3.645  28.392  0.00  0.00    +0.010 A 
ATOM     37  H   UNL     1     -19.889   5.167  25.178  0.00  0.00    +0.155 HD
ENDROOT
BRANCH   9   6
ATOM      3  O   UNL     1     -16.421   9.638  24.504  0.00  0.00    -0.253 OA
ATOM      6  N   UNL     1     -15.260   7.950  23.415  0.00  0.00    -0.294 N 
ATOM      7  N   UNL     1     -14.101   9.660  24.421  0.00  0.00    -0.297 N 
ATOM     21  C   UNL     1     -15.358   9.130  24.146  0.00  0.00    +0.300 C 
ATOM     35  H   UNL     1     -14.340   7.649  23.105  0.00  0.00    +0.151 HD
ATOM     36  H   UNL     1     -13.292   9.198  24.016  0.00  0.00    +0.151 HD
BRANCH   7  13
ATOM     13  C   UNL     1     -13.902  10.882  25.167  0.00  0.00    +0.074 C 
ATOM     14  C   UNL     1     -12.737  11.695  24.594  0.00  0.00    +0.022 C 
ATOM     15  C   UNL     1     -13.696  10.590  26.658  0.00  0.00    +0.022 C 
ATOM     17  C   UNL     1     -11.379  11.057  24.885  0.00  0.00    +0.002 C 
ATOM     18  C   UNL     1     -12.336   9.953  26.946  0.00  0.00    +0.002 C 
ATOM     19  C   UNL     1     -11.192  10.785  26.375  0.00  0.00    +0.000 C 
ENDBRANCH   7  13
ENDBRANCH   9   6
BRANCH  26  28
ATOM     28  C   UNL     1     -16.351   2.556  29.439  0.00  0.00    -0.018 A 
ATOM     29  C   UNL     1     -16.090   1.188  29.399  0.00  0.00    +0.012 A 
ATOM     30  C   UNL     1     -16.013   3.299  30.570  0.00  0.00    +0.012 A 
ATOM     31  C   UNL     1     -15.490   0.560  30.490  0.00  0.00    +0.046 A 
ATOM     32  C   UNL     1     -15.412   2.671  31.661  0.00  0.00    +0.046 A 
ATOM     33  C   UNL     1     -15.151   1.302  31.622  0.00  0.00    +0.120 A 
BRANCH  33   4
ATOM      4  O   UNL     1     -14.566   0.689  32.687  0.00  0.00    -0.495 OA
ATOM     34  C   UNL     1     -14.514   1.423  33.910  0.00  0.00    +0.277 C 
ENDBRANCH  33   4
ENDBRANCH  26  28
TORSDOF 4
ENDMDL
