REMARK  Name = 56775832
REMARK  6 active torsions:
REMARK  status: ('A' for Active; 'I' for Inactive)
REMARK    1  A    between atoms: N_5  and  C_8
REMARK    2  A    between atoms: N_5  and  C_13
REMARK    3  A    between atoms: C_8  and  C_11
REMARK    4  A    between atoms: C_11  and  C_12
REMARK    5  A    between atoms: C_13  and  C_22
REMARK    6  A    between atoms: C_20  and  C_21
REMARK                            x       y       z     vdW  Elec       q    Type
REMARK                         _______ _______ _______ _____ _____    ______ ____
ROOT
ATOM      2  O   UNL     1      -1.990  -3.679   1.722  0.00  0.00    -0.376 OA
ATOM      8  C   UNL     1      -1.416  -2.322   0.178  0.00  0.00    +0.072 C 
ATOM      9  C   UNL     1      -0.832  -2.848   1.484  0.00  0.00    +0.184 C 
ATOM     10  C   UNL     1      -2.559  -3.294   0.450  0.00  0.00    +0.184 C 
ENDROOT
BRANCH   8   5
ATOM      5  N   UNL     1      -1.896  -0.964   0.392  0.00  0.00    -0.302 NA
ATOM     28  H   UNL     1      -1.171  -0.275   0.594  0.00  0.00    +0.123 HD
BRANCH   5  13
ATOM     13  C   UNL     1      -2.682  -0.530  -0.760  0.00  0.00    +0.117 C 
BRANCH  13  22
ATOM      1  F   UNL     1      -6.373   3.500   0.615  0.00  0.00    -0.205 F 
ATOM     22  C   UNL     1      -3.668   0.547  -0.393  0.00  0.00    -0.033 A 
ATOM     23  C   UNL     1      -4.953   0.202   0.025  0.00  0.00    +0.008 A 
ATOM     24  C   UNL     1      -3.297   1.889  -0.471  0.00  0.00    +0.008 A 
ATOM     25  C   UNL     1      -5.867   1.200   0.366  0.00  0.00    +0.038 A 
ATOM     26  C   UNL     1      -4.210   2.887  -0.130  0.00  0.00    +0.038 A 
ATOM     27  C   UNL     1      -5.496   2.542   0.288  0.00  0.00    +0.123 A 
ENDBRANCH  13  22
ENDBRANCH   5  13
ENDBRANCH   8   5
BRANCH   8  11
ATOM     11  C   UNL     1      -0.604  -2.473  -1.115  0.00  0.00    +0.085 C 
BRANCH  11  12
ATOM      3  O   UNL     1       2.806  -1.564  -0.569  0.00  0.00    -0.350 OA
ATOM      7  N   UNL     1       1.760  -2.478  -0.546  0.00  0.00    -0.082 NA
ATOM     12  C   UNL     1       0.702  -1.803  -1.004  0.00  0.00    +0.086 A 
ATOM     19  C   UNL     1       1.016  -0.472  -1.328  0.00  0.00    +0.081 A 
ATOM     20  C   UNL     1       2.351  -0.373  -1.036  0.00  0.00    +0.222 A 
BRANCH  20  21
ATOM      4  O   UNL     1       3.086   1.555  -2.039  0.00  0.00    -0.267 OA
ATOM      6  N   UNL     1       4.367   0.787  -0.240  0.00  0.00    -0.295 N 
ATOM     14  C   UNL     1       5.933   1.818   1.955  0.00  0.00    +0.003 C 
ATOM     15  C   UNL     1       4.554   1.195   2.178  0.00  0.00    +0.019 C 
ATOM     16  C   UNL     1       6.054   2.398   0.545  0.00  0.00    +0.019 C 
ATOM     17  C   UNL     1       4.219   0.183   1.085  0.00  0.00    +0.108 C 
ATOM     18  C   UNL     1       5.694   1.356  -0.510  0.00  0.00    +0.108 C 
ATOM     21  C   UNL     1       3.302   0.741  -1.142  0.00  0.00    +0.285 C 
ENDBRANCH  20  21
ENDBRANCH  11  12
ENDBRANCH   8  11
TORSDOF 6
