MODEL 1
REMARK VINA RESULT:      -7.5      0.000      0.000
REMARK  Name = 40777983
REMARK  11 active torsions:
REMARK  status: ('A' for Active; 'I' for Inactive)
REMARK    1  A    between atoms: O_2  and  C_11
REMARK    2  A    between atoms: O_3  and  C_12
REMARK    3  A    between atoms: N_7  and  C_21
REMARK    4  A    between atoms: N_8  and  C_15
REMARK    5  A    between atoms: N_9  and  C_33
REMARK    6  A    between atoms: N_9  and  C_34
REMARK    7  A    between atoms: N_9  and  C_35
REMARK    8  A    between atoms: C_10  and  C_14
REMARK    9  A    between atoms: C_13  and  C_15
REMARK   10  A    between atoms: C_14  and  C_16
REMARK   11  A    between atoms: C_22  and  C_25
REMARK                            x       y       z     vdW  Elec       q    Type
REMARK                         _______ _______ _______ _____ _____    ______ ____
ROOT
ATOM      1  O   UNL     1      13.083   8.343  22.144  0.00  0.00    -0.366 OA
ATOM     10  C   UNL     1      12.989   9.767  21.907  0.00  0.00    +0.159 C 
ATOM     11  C   UNL     1      11.687   9.990  21.144  0.00  0.00    +0.175 C 
ATOM     12  C   UNL     1      11.527   8.677  20.404  0.00  0.00    +0.176 C 
ATOM     13  C   UNL     1      12.016   7.681  21.442  0.00  0.00    +0.167 C 
ENDROOT
BRANCH  11   2
ATOM      2  O   UNL     1      10.638  10.151  22.098  0.00  0.00    -0.387 OA
ATOM     36  H   UNL     1      10.260  11.038  21.966  0.00  0.00    +0.210 HD
ENDBRANCH  11   2
BRANCH  12   3
ATOM      3  O   UNL     1      10.197   8.419  20.007  0.00  0.00    -0.387 OA
ATOM     37  H   UNL     1      10.164   8.485  19.038  0.00  0.00    +0.210 HD
ENDBRANCH  12   3
BRANCH  10  14
ATOM     14  C   UNL     1      14.221  10.190  21.119  0.00  0.00    +0.130 C 
BRANCH  14  16
ATOM      4  O   UNL     1      13.782  12.522  21.229  0.00  0.00    -0.276 OA
ATOM      6  N   UNL     1      14.033  11.607  19.108  0.00  0.00    -0.298 N 
ATOM      7  N   UNL     1      14.310  11.881  16.239  0.00  0.00    -0.327 N 
ATOM     16  C   UNL     1      13.992  11.549  20.501  0.00  0.00    +0.218 C 
ATOM     17  C   UNL     1      14.283  10.450  18.245  0.00  0.00    +0.126 C 
ATOM     18  C   UNL     1      13.828  12.887  18.434  0.00  0.00    +0.126 C 
ATOM     19  C   UNL     1      13.767  10.651  16.820  0.00  0.00    +0.124 C 
ATOM     20  C   UNL     1      14.636  12.988  17.143  0.00  0.00    +0.124 C 
BRANCH   7  21
ATOM     21  C   UNL     1      14.481  12.013  14.863  0.00  0.00    +0.030 A 
ATOM     23  C   UNL     1      15.691  11.646  14.272  0.00  0.00    +0.023 A 
ATOM     24  C   UNL     1      13.443  12.510  14.076  0.00  0.00    +0.023 A 
ATOM     26  C   UNL     1      15.862  11.776  12.894  0.00  0.00    +0.002 A 
ATOM     27  C   UNL     1      13.614  12.640  12.697  0.00  0.00    +0.002 A 
ATOM     28  C   UNL     1      14.823  12.273  12.107  0.00  0.00    +0.000 A 
ENDBRANCH   7  21
ENDBRANCH  14  16
ENDBRANCH  10  14
BRANCH  13  15
ATOM     15  C   UNL     1      12.528   6.386  20.837  0.00  0.00    +0.138 C 
BRANCH  15   8
ATOM      5  O   UNL     1      14.349   7.078  18.727  0.00  0.00    -0.270 OA
ATOM      8  N   UNL     1      13.959   6.321  20.885  0.00  0.00    -0.309 N 
ATOM     22  C   UNL     1      14.768   6.678  19.810  0.00  0.00    +0.244 C 
ATOM     38  H   UNL     1      14.374   6.051  21.771  0.00  0.00    +0.149 HD
BRANCH  22  25
ATOM     25  C   UNL     1      16.233   6.529  20.012  0.00  0.00    +0.037 A 
ATOM     29  C   UNL     1      16.848   7.127  21.113  0.00  0.00    +0.015 A 
ATOM     30  C   UNL     1      16.992   5.794  19.103  0.00  0.00    +0.015 A 
ATOM     31  C   UNL     1      18.223   6.989  21.303  0.00  0.00    +0.024 A 
ATOM     32  C   UNL     1      18.367   5.655  19.292  0.00  0.00    +0.024 A 
ATOM     33  C   UNL     1      18.982   6.252  20.393  0.00  0.00    +0.029 A 
BRANCH  33   9
ATOM      9  N   UNL     1      20.373   6.111  20.585  0.00  0.00    -0.336 N 
ATOM     34  C   UNL     1      21.227   7.281  20.648  0.00  0.00    +0.129 C 
ATOM     35  C   UNL     1      20.964   4.795  20.730  0.00  0.00    +0.129 C 
ENDBRANCH  33   9
ENDBRANCH  22  25
ENDBRANCH  15   8
ENDBRANCH  13  15
TORSDOF 9
ENDMDL
MODEL 2
REMARK VINA RESULT:      -7.3     27.264     29.997
REMARK  Name = 40777983
REMARK  11 active torsions:
REMARK  status: ('A' for Active; 'I' for Inactive)
REMARK    1  A    between atoms: O_2  and  C_11
REMARK    2  A    between atoms: O_3  and  C_12
REMARK    3  A    between atoms: N_7  and  C_21
REMARK    4  A    between atoms: N_8  and  C_15
REMARK    5  A    between atoms: N_9  and  C_33
REMARK    6  A    between atoms: N_9  and  C_34
REMARK    7  A    between atoms: N_9  and  C_35
REMARK    8  A    between atoms: C_10  and  C_14
REMARK    9  A    between atoms: C_13  and  C_15
REMARK   10  A    between atoms: C_14  and  C_16
REMARK   11  A    between atoms: C_22  and  C_25
REMARK                            x       y       z     vdW  Elec       q    Type
REMARK                         _______ _______ _______ _____ _____    ______ ____
ROOT
ATOM      1  O   UNL     1      -3.865 -11.507  18.356  0.00  0.00    -0.366 OA
ATOM     10  C   UNL     1      -5.159 -11.971  18.803  0.00  0.00    +0.159 C 
ATOM     11  C   UNL     1      -5.782 -12.710  17.623  0.00  0.00    +0.175 C 
ATOM     12  C   UNL     1      -5.146 -12.008  16.441  0.00  0.00    +0.176 C 
ATOM     13  C   UNL     1      -3.733 -11.775  16.949  0.00  0.00    +0.167 C 
ENDROOT
BRANCH  11   2
ATOM      2  O   UNL     1      -5.354 -14.071  17.679  0.00  0.00    -0.387 OA
ATOM     36  H   UNL     1      -6.081 -14.588  18.066  0.00  0.00    +0.210 HD
ENDBRANCH  11   2
BRANCH  12   3
ATOM      3  O   UNL     1      -5.164 -12.778  15.258  0.00  0.00    -0.387 OA
ATOM     37  H   UNL     1      -5.560 -12.230  14.559  0.00  0.00    +0.210 HD
ENDBRANCH  12   3
BRANCH  10  14
ATOM     14  C   UNL     1      -5.966 -10.756  19.237  0.00  0.00    +0.130 C 
BRANCH  14  16
ATOM      4  O   UNL     1      -7.768 -12.049  20.085  0.00  0.00    -0.276 OA
ATOM      6  N   UNL     1      -8.312 -10.364  18.580  0.00  0.00    -0.298 N 
ATOM      7  N   UNL     1     -10.254  -8.720  17.201  0.00  0.00    -0.327 N 
ATOM     16  C   UNL     1      -7.427 -11.122  19.347  0.00  0.00    +0.218 C 
ATOM     17  C   UNL     1      -7.904  -9.263  17.704  0.00  0.00    +0.126 C 
ATOM     18  C   UNL     1      -9.743 -10.652  18.637  0.00  0.00    +0.126 C 
ATOM     19  C   UNL     1      -8.933  -8.961  16.615  0.00  0.00    +0.124 C 
ATOM     20  C   UNL     1     -10.586  -9.392  18.460  0.00  0.00    +0.124 C 
BRANCH   7  21
ATOM     21  C   UNL     1     -11.185  -7.902  16.564  0.00  0.00    +0.030 A 
ATOM     23  C   UNL     1     -10.786  -6.679  16.025  0.00  0.00    +0.023 A 
ATOM     24  C   UNL     1     -12.516  -8.307  16.464  0.00  0.00    +0.023 A 
ATOM     26  C   UNL     1     -11.717  -5.861  15.386  0.00  0.00    +0.002 A 
ATOM     27  C   UNL     1     -13.448  -7.489  15.825  0.00  0.00    +0.002 A 
ATOM     28  C   UNL     1     -13.049  -6.266  15.286  0.00  0.00    +0.000 A 
ENDBRANCH   7  21
ENDBRANCH  14  16
ENDBRANCH  10  14
BRANCH  13  15
ATOM     15  C   UNL     1      -3.035 -10.610  16.269  0.00  0.00    +0.138 C 
BRANCH  15   8
ATOM      5  O   UNL     1      -1.812 -11.171  13.732  0.00  0.00    -0.270 OA
ATOM      8  N   UNL     1      -3.593 -10.355  14.974  0.00  0.00    -0.309 N 
ATOM     22  C   UNL     1      -2.927 -10.660  13.791  0.00  0.00    +0.244 C 
ATOM     38  H   UNL     1      -4.537  -9.984  14.950  0.00  0.00    +0.149 HD
BRANCH  22  25
ATOM     25  C   UNL     1      -3.632 -10.308  12.531  0.00  0.00    +0.037 A 
ATOM     29  C   UNL     1      -5.024 -10.205  12.517  0.00  0.00    +0.015 A 
ATOM     30  C   UNL     1      -2.905 -10.084  11.363  0.00  0.00    +0.015 A 
ATOM     31  C   UNL     1      -5.686  -9.876  11.334  0.00  0.00    +0.024 A 
ATOM     32  C   UNL     1      -3.566  -9.755  10.180  0.00  0.00    +0.024 A 
ATOM     33  C   UNL     1      -4.957  -9.650  10.166  0.00  0.00    +0.029 A 
BRANCH  33   9
ATOM      9  N   UNL     1      -5.627  -9.317   8.970  0.00  0.00    -0.336 N 
ATOM     34  C   UNL     1      -5.206  -9.892   7.708  0.00  0.00    +0.129 C 
ATOM     35  C   UNL     1      -6.751  -8.401   8.990  0.00  0.00    +0.129 C 
ENDBRANCH  33   9
ENDBRANCH  22  25
ENDBRANCH  15   8
ENDBRANCH  13  15
TORSDOF 9
ENDMDL
MODEL 3
REMARK VINA RESULT:      -7.2      3.632      9.064
REMARK  Name = 40777983
REMARK  11 active torsions:
REMARK  status: ('A' for Active; 'I' for Inactive)
REMARK    1  A    between atoms: O_2  and  C_11
REMARK    2  A    between atoms: O_3  and  C_12
REMARK    3  A    between atoms: N_7  and  C_21
REMARK    4  A    between atoms: N_8  and  C_15
REMARK    5  A    between atoms: N_9  and  C_33
REMARK    6  A    between atoms: N_9  and  C_34
REMARK    7  A    between atoms: N_9  and  C_35
REMARK    8  A    between atoms: C_10  and  C_14
REMARK    9  A    between atoms: C_13  and  C_15
REMARK   10  A    between atoms: C_14  and  C_16
REMARK   11  A    between atoms: C_22  and  C_25
REMARK                            x       y       z     vdW  Elec       q    Type
REMARK                         _______ _______ _______ _____ _____    ______ ____
ROOT
ATOM      1  O   UNL     1      13.516   9.228  19.438  0.00  0.00    -0.366 OA
ATOM     10  C   UNL     1      14.617   8.483  18.867  0.00  0.00    +0.159 C 
ATOM     11  C   UNL     1      14.015   7.586  17.791  0.00  0.00    +0.175 C 
ATOM     12  C   UNL     1      12.611   7.363  18.315  0.00  0.00    +0.176 C 
ATOM     13  C   UNL     1      12.282   8.729  18.895  0.00  0.00    +0.167 C 
ENDROOT
BRANCH  11   2
ATOM      2  O   UNL     1      13.975   8.325  16.571  0.00  0.00    -0.387 OA
ATOM     36  H   UNL     1      13.043   8.394  16.302  0.00  0.00    +0.210 HD
ENDBRANCH  11   2
BRANCH  12   3
ATOM      3  O   UNL     1      11.694   6.978  17.313  0.00  0.00    -0.387 OA
ATOM     37  H   UNL     1      10.819   7.311  17.574  0.00  0.00    +0.210 HD
ENDBRANCH  12   3
BRANCH  10  14
ATOM     14  C   UNL     1      15.282   7.701  19.990  0.00  0.00    +0.130 C 
BRANCH  14  16
ATOM      4  O   UNL     1      16.397   9.683  20.676  0.00  0.00    -0.276 OA
ATOM      6  N   UNL     1      17.625   7.711  20.765  0.00  0.00    -0.298 N 
ATOM      7  N   UNL     1      19.984   6.221  21.534  0.00  0.00    -0.327 N 
ATOM     16  C   UNL     1      16.478   8.464  20.509  0.00  0.00    +0.218 C 
ATOM     17  C   UNL     1      17.719   6.263  20.565  0.00  0.00    +0.126 C 
ATOM     18  C   UNL     1      18.822   8.375  21.275  0.00  0.00    +0.126 C 
ATOM     19  C   UNL     1      19.160   5.780  20.406  0.00  0.00    +0.124 C 
ATOM     20  C   UNL     1      19.623   7.470  22.208  0.00  0.00    +0.124 C 
BRANCH   7  21
ATOM     21  C   UNL     1      21.102   5.493  21.936  0.00  0.00    +0.030 A 
ATOM     23  C   UNL     1      21.470   4.340  21.241  0.00  0.00    +0.023 A 
ATOM     24  C   UNL     1      21.854   5.917  23.031  0.00  0.00    +0.023 A 
ATOM     26  C   UNL     1      22.590   3.612  21.642  0.00  0.00    +0.002 A 
ATOM     27  C   UNL     1      22.974   5.189  23.432  0.00  0.00    +0.002 A 
ATOM     28  C   UNL     1      23.342   4.037  22.738  0.00  0.00    +0.000 A 
ENDBRANCH   7  21
ENDBRANCH  14  16
ENDBRANCH  10  14
BRANCH  13  15
ATOM     15  C   UNL     1      11.225   8.681  19.985  0.00  0.00    +0.138 C 
BRANCH  15   8
ATOM      5  O   UNL     1      10.581   8.725  22.782  0.00  0.00    -0.270 OA
ATOM      8  N   UNL     1      11.347   9.798  20.874  0.00  0.00    -0.309 N 
ATOM     22  C   UNL     1      11.010   9.730  22.222  0.00  0.00    +0.244 C 
ATOM     38  H   UNL     1      11.748  10.646  20.488  0.00  0.00    +0.149 HD
BRANCH  22  25
ATOM     25  C   UNL     1      11.169  10.985  23.003  0.00  0.00    +0.037 A 
ATOM     29  C   UNL     1      11.454  12.183  22.346  0.00  0.00    +0.015 A 
ATOM     30  C   UNL     1      11.035  10.965  24.391  0.00  0.00    +0.015 A 
ATOM     31  C   UNL     1      11.605  13.360  23.079  0.00  0.00    +0.024 A 
ATOM     32  C   UNL     1      11.186  12.142  25.124  0.00  0.00    +0.024 A 
ATOM     33  C   UNL     1      11.470  13.340  24.467  0.00  0.00    +0.029 A 
BRANCH  33   9
ATOM      9  N   UNL     1      11.621  14.531  25.208  0.00  0.00    -0.336 N 
ATOM     34  C   UNL     1      12.782  14.726  26.054  0.00  0.00    +0.129 C 
ATOM     35  C   UNL     1      10.622  15.578  25.126  0.00  0.00    +0.129 C 
ENDBRANCH  33   9
ENDBRANCH  22  25
ENDBRANCH  15   8
ENDBRANCH  13  15
TORSDOF 9
ENDMDL
MODEL 4
REMARK VINA RESULT:      -7.0      1.757      7.160
REMARK  Name = 40777983
REMARK  11 active torsions:
REMARK  status: ('A' for Active; 'I' for Inactive)
REMARK    1  A    between atoms: O_2  and  C_11
REMARK    2  A    between atoms: O_3  and  C_12
REMARK    3  A    between atoms: N_7  and  C_21
REMARK    4  A    between atoms: N_8  and  C_15
REMARK    5  A    between atoms: N_9  and  C_33
REMARK    6  A    between atoms: N_9  and  C_34
REMARK    7  A    between atoms: N_9  and  C_35
REMARK    8  A    between atoms: C_10  and  C_14
REMARK    9  A    between atoms: C_13  and  C_15
REMARK   10  A    between atoms: C_14  and  C_16
REMARK   11  A    between atoms: C_22  and  C_25
REMARK                            x       y       z     vdW  Elec       q    Type
REMARK                         _______ _______ _______ _____ _____    ______ ____
ROOT
ATOM      1  O   UNL     1      11.583  10.645  21.025  0.00  0.00    -0.366 OA
ATOM     10  C   UNL     1      10.587  10.041  21.882  0.00  0.00    +0.159 C 
ATOM     11  C   UNL     1      10.960  10.426  23.311  0.00  0.00    +0.175 C 
ATOM     12  C   UNL     1      12.463  10.584  23.212  0.00  0.00    +0.176 C 
ATOM     13  C   UNL     1      12.612  11.228  21.844  0.00  0.00    +0.167 C 
ENDROOT
BRANCH  11   2
ATOM      2  O   UNL     1      10.348  11.681  23.604  0.00  0.00    -0.387 OA
ATOM     36  H   UNL     1      10.977  12.192  24.142  0.00  0.00    +0.210 HD
ENDBRANCH  11   2
BRANCH  12   3
ATOM      3  O   UNL     1      13.009  11.386  24.238  0.00  0.00    -0.387 OA
ATOM     37  H   UNL     1      13.876  11.701  23.931  0.00  0.00    +0.210 HD
ENDBRANCH  12   3
BRANCH  10  14
ATOM     14  C   UNL     1      10.616   8.538  21.644  0.00  0.00    +0.130 C 
BRANCH  14  16
ATOM      4  O   UNL     1      10.599   8.443  19.271  0.00  0.00    -0.276 OA
ATOM      6  N   UNL     1      12.547   7.746  20.329  0.00  0.00    -0.298 N 
ATOM      7  N   UNL     1      15.319   6.917  20.256  0.00  0.00    -0.327 N 
ATOM     16  C   UNL     1      11.243   8.243  20.303  0.00  0.00    +0.218 C 
ATOM     17  C   UNL     1      13.311   7.509  21.556  0.00  0.00    +0.126 C 
ATOM     18  C   UNL     1      13.226   7.442  19.071  0.00  0.00    +0.126 C 
ATOM     19  C   UNL     1      14.448   6.506  21.360  0.00  0.00    +0.124 C 
ATOM     20  C   UNL     1      14.730   7.691  19.161  0.00  0.00    +0.124 C 
BRANCH   7  21
ATOM     21  C   UNL     1      16.664   6.554  20.227  0.00  0.00    +0.030 A 
ATOM     23  C   UNL     1      17.513   6.942  21.264  0.00  0.00    +0.023 A 
ATOM     24  C   UNL     1      17.161   5.802  19.163  0.00  0.00    +0.023 A 
ATOM     26  C   UNL     1      18.859   6.578  21.236  0.00  0.00    +0.002 A 
ATOM     27  C   UNL     1      18.507   5.437  19.135  0.00  0.00    +0.002 A 
ATOM     28  C   UNL     1      19.356   5.825  20.171  0.00  0.00    +0.000 A 
ENDBRANCH   7  21
ENDBRANCH  14  16
ENDBRANCH  10  14
BRANCH  13  15
ATOM     15  C   UNL     1      13.971  10.983  21.209  0.00  0.00    +0.138 C 
BRANCH  15   8
ATOM      5  O   UNL     1      16.189  11.538  19.473  0.00  0.00    -0.270 OA
ATOM      8  N   UNL     1      13.920  11.171  19.790  0.00  0.00    -0.309 N 
ATOM     22  C   UNL     1      15.051  11.438  19.023  0.00  0.00    +0.244 C 
ATOM     38  H   UNL     1      13.017  11.046  19.345  0.00  0.00    +0.149 HD
BRANCH  22  25
ATOM     25  C   UNL     1      14.826  11.633  17.567  0.00  0.00    +0.037 A 
ATOM     29  C   UNL     1      14.271  10.604  16.804  0.00  0.00    +0.015 A 
ATOM     30  C   UNL     1      15.170  12.841  16.963  0.00  0.00    +0.015 A 
ATOM     31  C   UNL     1      14.060  10.786  15.437  0.00  0.00    +0.024 A 
ATOM     32  C   UNL     1      14.960  13.024  15.596  0.00  0.00    +0.024 A 
ATOM     33  C   UNL     1      14.404  11.996  14.834  0.00  0.00    +0.029 A 
BRANCH  33   9
ATOM      9  N   UNL     1      14.191  12.181  13.451  0.00  0.00    -0.336 N 
ATOM     34  C   UNL     1      15.282  12.015  12.512  0.00  0.00    +0.129 C 
ATOM     35  C   UNL     1      12.875  12.529  12.952  0.00  0.00    +0.129 C 
ENDBRANCH  33   9
ENDBRANCH  22  25
ENDBRANCH  15   8
ENDBRANCH  13  15
TORSDOF 9
ENDMDL
MODEL 5
REMARK VINA RESULT:      -6.9     28.173     31.581
REMARK  Name = 40777983
REMARK  11 active torsions:
REMARK  status: ('A' for Active; 'I' for Inactive)
REMARK    1  A    between atoms: O_2  and  C_11
REMARK    2  A    between atoms: O_3  and  C_12
REMARK    3  A    between atoms: N_7  and  C_21
REMARK    4  A    between atoms: N_8  and  C_15
REMARK    5  A    between atoms: N_9  and  C_33
REMARK    6  A    between atoms: N_9  and  C_34
REMARK    7  A    between atoms: N_9  and  C_35
REMARK    8  A    between atoms: C_10  and  C_14
REMARK    9  A    between atoms: C_13  and  C_15
REMARK   10  A    between atoms: C_14  and  C_16
REMARK   11  A    between atoms: C_22  and  C_25
REMARK                            x       y       z     vdW  Elec       q    Type
REMARK                         _______ _______ _______ _____ _____    ______ ____
ROOT
ATOM      1  O   UNL     1     -17.617   2.725  27.154  0.00  0.00    -0.366 OA
ATOM     10  C   UNL     1     -17.739   3.408  25.884  0.00  0.00    +0.159 C 
ATOM     11  C   UNL     1     -17.709   2.326  24.810  0.00  0.00    +0.175 C 
ATOM     12  C   UNL     1     -16.877   1.247  25.472  0.00  0.00    +0.176 C 
ATOM     13  C   UNL     1     -17.358   1.331  26.911  0.00  0.00    +0.167 C 
ENDROOT
BRANCH  11   2
ATOM      2  O   UNL     1     -19.045   1.866  24.609  0.00  0.00    -0.387 OA
ATOM     36  H   UNL     1     -19.065   1.390  23.761  0.00  0.00    +0.210 HD
ENDBRANCH  11   2
BRANCH  12   3
ATOM      3  O   UNL     1     -17.082  -0.036  24.918  0.00  0.00    -0.387 OA
ATOM     37  H   UNL     1     -16.242  -0.521  24.988  0.00  0.00    +0.210 HD
ENDBRANCH  12   3
BRANCH  10  14
ATOM     14  C   UNL     1     -16.582   4.390  25.771  0.00  0.00    +0.130 C 
BRANCH  14  16
ATOM      4  O   UNL     1     -18.012   6.193  25.184  0.00  0.00    -0.276 OA
ATOM      6  N   UNL     1     -16.148   5.858  23.837  0.00  0.00    -0.298 N 
ATOM      7  N   UNL     1     -14.368   6.691  21.711  0.00  0.00    -0.327 N 
ATOM     16  C   UNL     1     -16.987   5.564  24.912  0.00  0.00    +0.218 C 
ATOM     17  C   UNL     1     -14.931   5.110  23.516  0.00  0.00    +0.126 C 
ATOM     18  C   UNL     1     -16.468   6.984  22.962  0.00  0.00    +0.126 C 
ATOM     19  C   UNL     1     -14.503   5.274  22.057  0.00  0.00    +0.124 C 
ATOM     20  C   UNL     1     -15.212   7.659  22.418  0.00  0.00    +0.124 C 
BRANCH   7  21
ATOM     21  C   UNL     1     -13.490   7.108  20.714  0.00  0.00    +0.030 A 
ATOM     23  C   UNL     1     -13.988   7.587  19.502  0.00  0.00    +0.023 A 
ATOM     24  C   UNL     1     -12.113   7.047  20.927  0.00  0.00    +0.023 A 
ATOM     26  C   UNL     1     -13.109   8.006  18.503  0.00  0.00    +0.002 A 
ATOM     27  C   UNL     1     -11.233   7.465  19.928  0.00  0.00    +0.002 A 
ATOM     28  C   UNL     1     -11.731   7.945  18.716  0.00  0.00    +0.000 A 
ENDBRANCH   7  21
ENDBRANCH  14  16
ENDBRANCH  10  14
BRANCH  13  15
ATOM     15  C   UNL     1     -16.341   0.817  27.915  0.00  0.00    +0.138 C 
BRANCH  15   8
ATOM      5  O   UNL     1     -14.025   0.825  29.613  0.00  0.00    -0.270 OA
ATOM      8  N   UNL     1     -15.959   1.845  28.837  0.00  0.00    -0.309 N 
ATOM     22  C   UNL     1     -14.814   1.766  29.624  0.00  0.00    +0.244 C 
ATOM     38  H   UNL     1     -16.537   2.679  28.857  0.00  0.00    +0.149 HD
BRANCH  22  25
ATOM     25  C   UNL     1     -14.572   2.904  30.549  0.00  0.00    +0.037 A 
ATOM     29  C   UNL     1     -15.469   3.972  30.589  0.00  0.00    +0.015 A 
ATOM     30  C   UNL     1     -13.449   2.907  31.374  0.00  0.00    +0.015 A 
ATOM     31  C   UNL     1     -15.243   5.041  31.455  0.00  0.00    +0.024 A 
ATOM     32  C   UNL     1     -13.221   3.976  32.242  0.00  0.00    +0.024 A 
ATOM     33  C   UNL     1     -14.119   5.042  32.282  0.00  0.00    +0.029 A 
BRANCH  33   9
ATOM      9  N   UNL     1     -13.890   6.123  33.159  0.00  0.00    -0.336 N 
ATOM     34  C   UNL     1     -14.220   6.010  34.566  0.00  0.00    +0.129 C 
ATOM     35  C   UNL     1     -13.312   7.359  32.665  0.00  0.00    +0.129 C 
ENDBRANCH  33   9
ENDBRANCH  22  25
ENDBRANCH  15   8
ENDBRANCH  13  15
TORSDOF 9
ENDMDL
MODEL 6
REMARK VINA RESULT:      -6.9      3.135      8.297
REMARK  Name = 40777983
REMARK  11 active torsions:
REMARK  status: ('A' for Active; 'I' for Inactive)
REMARK    1  A    between atoms: O_2  and  C_11
REMARK    2  A    between atoms: O_3  and  C_12
REMARK    3  A    between atoms: N_7  and  C_21
REMARK    4  A    between atoms: N_8  and  C_15
REMARK    5  A    between atoms: N_9  and  C_33
REMARK    6  A    between atoms: N_9  and  C_34
REMARK    7  A    between atoms: N_9  and  C_35
REMARK    8  A    between atoms: C_10  and  C_14
REMARK    9  A    between atoms: C_13  and  C_15
REMARK   10  A    between atoms: C_14  and  C_16
REMARK   11  A    between atoms: C_22  and  C_25
REMARK                            x       y       z     vdW  Elec       q    Type
REMARK                         _______ _______ _______ _____ _____    ______ ____
ROOT
ATOM      1  O   UNL     1      14.128   8.277  19.547  0.00  0.00    -0.366 OA
ATOM     10  C   UNL     1      13.808   7.188  20.443  0.00  0.00    +0.159 C 
ATOM     11  C   UNL     1      12.298   6.991  20.357  0.00  0.00    +0.175 C 
ATOM     12  C   UNL     1      11.817   8.384  20.007  0.00  0.00    +0.176 C 
ATOM     13  C   UNL     1      12.904   8.850  19.053  0.00  0.00    +0.167 C 
ENDROOT
BRANCH  11   2
ATOM      2  O   UNL     1      12.030   6.091  19.283  0.00  0.00    -0.387 OA
ATOM     36  H   UNL     1      11.211   5.614  19.500  0.00  0.00    +0.210 HD
ENDBRANCH  11   2
BRANCH  12   3
ATOM      3  O   UNL     1      10.541   8.401  19.406  0.00  0.00    -0.387 OA
ATOM     37  H   UNL     1      10.620   7.964  18.541  0.00  0.00    +0.210 HD
ENDBRANCH  12   3
BRANCH  10  14
ATOM     14  C   UNL     1      14.279   7.578  21.837  0.00  0.00    +0.130 C 
BRANCH  14  16
ATOM      4  O   UNL     1      15.189   9.770  21.918  0.00  0.00    -0.276 OA
ATOM      6  N   UNL     1      16.668   8.044  21.434  0.00  0.00    -0.298 N 
ATOM      7  N   UNL     1      19.351   7.038  21.025  0.00  0.00    -0.327 N 
ATOM     16  C   UNL     1      15.412   8.571  21.737  0.00  0.00    +0.218 C 
ATOM     17  C   UNL     1      16.931   6.619  21.220  0.00  0.00    +0.126 C 
ATOM     18  C   UNL     1      17.817   8.939  21.327  0.00  0.00    +0.126 C 
ATOM     19  C   UNL     1      18.203   6.367  20.410  0.00  0.00    +0.124 C 
ATOM     20  C   UNL     1      19.109   8.267  21.784  0.00  0.00    +0.124 C 
BRANCH   7  21
ATOM     21  C   UNL     1      20.644   6.544  20.863  0.00  0.00    +0.030 A 
ATOM     23  C   UNL     1      20.876   5.169  20.913  0.00  0.00    +0.023 A 
ATOM     24  C   UNL     1      21.705   7.423  20.652  0.00  0.00    +0.023 A 
ATOM     26  C   UNL     1      22.170   4.674  20.751  0.00  0.00    +0.002 A 
ATOM     27  C   UNL     1      22.999   6.928  20.489  0.00  0.00    +0.002 A 
ATOM     28  C   UNL     1      23.231   5.554  20.538  0.00  0.00    +0.000 A 
ENDBRANCH   7  21
ENDBRANCH  14  16
ENDBRANCH  10  14
BRANCH  13  15
ATOM     15  C   UNL     1      13.038  10.362  18.986  0.00  0.00    +0.138 C 
BRANCH  15   8
ATOM      5  O   UNL     1      12.640  13.146  19.566  0.00  0.00    -0.270 OA
ATOM      8  N   UNL     1      12.885  10.953  20.283  0.00  0.00    -0.309 N 
ATOM     22  C   UNL     1      12.695  12.319  20.472  0.00  0.00    +0.244 C 
ATOM     38  H   UNL     1      12.865  10.319  21.074  0.00  0.00    +0.149 HD
BRANCH  22  25
ATOM     25  C   UNL     1      12.580  12.777  21.881  0.00  0.00    +0.037 A 
ATOM     29  C   UNL     1      11.365  12.653  22.557  0.00  0.00    +0.015 A 
ATOM     30  C   UNL     1      13.684  13.332  22.527  0.00  0.00    +0.015 A 
ATOM     31  C   UNL     1      11.256  13.083  23.879  0.00  0.00    +0.024 A 
ATOM     32  C   UNL     1      13.575  13.763  23.850  0.00  0.00    +0.024 A 
ATOM     33  C   UNL     1      12.362  13.638  24.525  0.00  0.00    +0.029 A 
BRANCH  33   9
ATOM      9  N   UNL     1      12.251  14.073  25.863  0.00  0.00    -0.336 N 
ATOM     34  C   UNL     1      11.029  14.693  26.335  0.00  0.00    +0.129 C 
ATOM     35  C   UNL     1      13.357  13.898  26.784  0.00  0.00    +0.129 C 
ENDBRANCH  33   9
ENDBRANCH  22  25
ENDBRANCH  15   8
ENDBRANCH  13  15
TORSDOF 9
ENDMDL
MODEL 7
REMARK VINA RESULT:      -6.8     26.999     29.924
REMARK  Name = 40777983
REMARK  11 active torsions:
REMARK  status: ('A' for Active; 'I' for Inactive)
REMARK    1  A    between atoms: O_2  and  C_11
REMARK    2  A    between atoms: O_3  and  C_12
REMARK    3  A    between atoms: N_7  and  C_21
REMARK    4  A    between atoms: N_8  and  C_15
REMARK    5  A    between atoms: N_9  and  C_33
REMARK    6  A    between atoms: N_9  and  C_34
REMARK    7  A    between atoms: N_9  and  C_35
REMARK    8  A    between atoms: C_10  and  C_14
REMARK    9  A    between atoms: C_13  and  C_15
REMARK   10  A    between atoms: C_14  and  C_16
REMARK   11  A    between atoms: C_22  and  C_25
REMARK                            x       y       z     vdW  Elec       q    Type
REMARK                         _______ _______ _______ _____ _____    ______ ____
ROOT
ATOM      1  O   UNL     1      -3.778 -10.365  16.763  0.00  0.00    -0.366 OA
ATOM     10  C   UNL     1      -5.055 -10.964  17.085  0.00  0.00    +0.159 C 
ATOM     11  C   UNL     1      -4.971 -12.420  16.640  0.00  0.00    +0.175 C 
ATOM     12  C   UNL     1      -3.981 -12.343  15.495  0.00  0.00    +0.176 C 
ATOM     13  C   UNL     1      -2.994 -11.311  16.015  0.00  0.00    +0.167 C 
ENDROOT
BRANCH  11   2
ATOM      2  O   UNL     1      -4.424 -13.180  17.716  0.00  0.00    -0.387 OA
ATOM     36  H   UNL     1      -3.560 -13.518  17.424  0.00  0.00    +0.210 HD
ENDBRANCH  11   2
BRANCH  12   3
ATOM      3  O   UNL     1      -3.358 -13.577  15.211  0.00  0.00    -0.387 OA
ATOM     37  H   UNL     1      -2.796 -13.447  14.429  0.00  0.00    +0.210 HD
ENDBRANCH  12   3
BRANCH  10  14
ATOM     14  C   UNL     1      -6.135 -10.179  16.354  0.00  0.00    +0.130 C 
BRANCH  14  16
ATOM      4  O   UNL     1      -7.049  -9.934  18.532  0.00  0.00    -0.276 OA
ATOM      6  N   UNL     1      -8.387  -9.256  16.756  0.00  0.00    -0.298 N 
ATOM      7  N   UNL     1     -10.753  -7.957  15.710  0.00  0.00    -0.327 N 
ATOM     16  C   UNL     1      -7.224  -9.781  17.321  0.00  0.00    +0.218 C 
ATOM     17  C   UNL     1      -8.592  -9.075  15.317  0.00  0.00    +0.126 C 
ATOM     18  C   UNL     1      -9.485  -8.840  17.626  0.00  0.00    +0.126 C 
ATOM     19  C   UNL     1     -10.071  -8.997  14.936  0.00  0.00    +0.124 C 
ATOM     20  C   UNL     1     -10.249  -7.650  17.052  0.00  0.00    +0.124 C 
BRANCH   7  21
ATOM     21  C   UNL     1     -11.872  -7.300  15.203  0.00  0.00    +0.030 A 
ATOM     23  C   UNL     1     -13.115  -7.934  15.211  0.00  0.00    +0.023 A 
ATOM     24  C   UNL     1     -11.750  -6.010  14.689  0.00  0.00    +0.023 A 
ATOM     26  C   UNL     1     -14.236  -7.276  14.705  0.00  0.00    +0.002 A 
ATOM     27  C   UNL     1     -12.871  -5.352  14.182  0.00  0.00    +0.002 A 
ATOM     28  C   UNL     1     -14.114  -5.985  14.190  0.00  0.00    +0.000 A 
ENDBRANCH   7  21
ENDBRANCH  14  16
ENDBRANCH  10  14
BRANCH  13  15
ATOM     15  C   UNL     1      -2.240 -10.591  14.911  0.00  0.00    +0.138 C 
BRANCH  15   8
ATOM      5  O   UNL     1      -1.512 -10.547  12.134  0.00  0.00    -0.270 OA
ATOM      8  N   UNL     1      -3.101 -10.293  13.804  0.00  0.00    -0.309 N 
ATOM     22  C   UNL     1      -2.661 -10.295  12.484  0.00  0.00    +0.244 C 
ATOM     38  H   UNL     1      -4.079 -10.130  14.019  0.00  0.00    +0.149 HD
BRANCH  22  25
ATOM     25  C   UNL     1      -3.673  -9.939  11.455  0.00  0.00    +0.037 A 
ATOM     29  C   UNL     1      -3.261  -9.523  10.188  0.00  0.00    +0.015 A 
ATOM     30  C   UNL     1      -5.032 -10.020  11.754  0.00  0.00    +0.015 A 
ATOM     31  C   UNL     1      -4.210  -9.189   9.222  0.00  0.00    +0.024 A 
ATOM     32  C   UNL     1      -5.982  -9.685  10.789  0.00  0.00    +0.024 A 
ATOM     33  C   UNL     1      -5.570  -9.271   9.522  0.00  0.00    +0.029 A 
BRANCH  33   9
ATOM      9  N   UNL     1      -6.530  -8.932   8.545  0.00  0.00    -0.336 N 
ATOM     34  C   UNL     1      -7.594  -7.997   8.853  0.00  0.00    +0.129 C 
ATOM     35  C   UNL     1      -6.459  -9.509   7.216  0.00  0.00    +0.129 C 
ENDBRANCH  33   9
ENDBRANCH  22  25
ENDBRANCH  15   8
ENDBRANCH  13  15
TORSDOF 9
ENDMDL
MODEL 8
REMARK VINA RESULT:      -6.8     27.178     30.457
REMARK  Name = 40777983
REMARK  11 active torsions:
REMARK  status: ('A' for Active; 'I' for Inactive)
REMARK    1  A    between atoms: O_2  and  C_11
REMARK    2  A    between atoms: O_3  and  C_12
REMARK    3  A    between atoms: N_7  and  C_21
REMARK    4  A    between atoms: N_8  and  C_15
REMARK    5  A    between atoms: N_9  and  C_33
REMARK    6  A    between atoms: N_9  and  C_34
REMARK    7  A    between atoms: N_9  and  C_35
REMARK    8  A    between atoms: C_10  and  C_14
REMARK    9  A    between atoms: C_13  and  C_15
REMARK   10  A    between atoms: C_14  and  C_16
REMARK   11  A    between atoms: C_22  and  C_25
REMARK                            x       y       z     vdW  Elec       q    Type
REMARK                         _______ _______ _______ _____ _____    ______ ____
ROOT
ATOM      1  O   UNL     1     -16.787   4.373  21.928  0.00  0.00    -0.366 OA
ATOM     10  C   UNL     1     -15.828   5.401  21.590  0.00  0.00    +0.159 C 
ATOM     11  C   UNL     1     -14.637   5.201  22.522  0.00  0.00    +0.175 C 
ATOM     12  C   UNL     1     -15.290   4.579  23.739  0.00  0.00    +0.176 C 
ATOM     13  C   UNL     1     -16.328   3.672  23.098  0.00  0.00    +0.167 C 
ENDROOT
BRANCH  11   2
ATOM      2  O   UNL     1     -13.747   4.269  21.908  0.00  0.00    -0.387 OA
ATOM     36  H   UNL     1     -13.029   4.093  22.540  0.00  0.00    +0.210 HD
ENDBRANCH  11   2
BRANCH  12   3
ATOM      3  O   UNL     1     -14.388   3.860  24.552  0.00  0.00    -0.387 OA
ATOM     37  H   UNL     1     -14.270   4.365  25.374  0.00  0.00    +0.210 HD
ENDBRANCH  12   3
BRANCH  10  14
ATOM     14  C   UNL     1     -16.508   6.750  21.774  0.00  0.00    +0.130 C 
BRANCH  14  16
ATOM      4  O   UNL     1     -15.480   8.080  23.453  0.00  0.00    -0.276 OA
ATOM      6  N   UNL     1     -14.653   8.304  21.293  0.00  0.00    -0.298 N 
ATOM      7  N   UNL     1     -12.696   9.316  19.415  0.00  0.00    -0.327 N 
ATOM     16  C   UNL     1     -15.504   7.768  22.260  0.00  0.00    +0.218 C 
ATOM     17  C   UNL     1     -14.682   7.933  19.876  0.00  0.00    +0.126 C 
ATOM     18  C   UNL     1     -13.648   9.290  21.685  0.00  0.00    +0.126 C 
ATOM     19  C   UNL     1     -14.055   8.995  18.973  0.00  0.00    +0.124 C 
ATOM     20  C   UNL     1     -12.382   9.182  20.840  0.00  0.00    +0.124 C 
BRANCH   7  21
ATOM     21  C   UNL     1     -11.736   9.772  18.514  0.00  0.00    +0.030 A 
ATOM     23  C   UNL     1     -11.446   9.029  17.369  0.00  0.00    +0.023 A 
ATOM     24  C   UNL     1     -11.064  10.970  18.757  0.00  0.00    +0.023 A 
ATOM     26  C   UNL     1     -10.486   9.485  16.466  0.00  0.00    +0.002 A 
ATOM     27  C   UNL     1     -10.103  11.426  17.854  0.00  0.00    +0.002 A 
ATOM     28  C   UNL     1      -9.814  10.684  16.709  0.00  0.00    +0.000 A 
ENDBRANCH   7  21
ENDBRANCH  14  16
ENDBRANCH  10  14
BRANCH  13  15
ATOM     15  C   UNL     1     -17.505   3.369  24.008  0.00  0.00    +0.138 C 
BRANCH  15   8
ATOM      5  O   UNL     1     -16.654   0.983  25.361  0.00  0.00    -0.270 OA
ATOM      8  N   UNL     1     -17.090   3.262  25.375  0.00  0.00    -0.309 N 
ATOM     22  C   UNL     1     -16.691   2.059  25.951  0.00  0.00    +0.244 C 
ATOM     38  H   UNL     1     -17.043   4.125  25.907  0.00  0.00    +0.149 HD
BRANCH  22  25
ATOM     25  C   UNL     1     -16.315   2.112  27.388  0.00  0.00    +0.037 A 
ATOM     29  C   UNL     1     -16.433   0.971  28.182  0.00  0.00    +0.015 A 
ATOM     30  C   UNL     1     -15.845   3.302  27.943  0.00  0.00    +0.015 A 
ATOM     31  C   UNL     1     -16.080   1.020  29.531  0.00  0.00    +0.024 A 
ATOM     32  C   UNL     1     -15.491   3.352  29.292  0.00  0.00    +0.024 A 
ATOM     33  C   UNL     1     -15.609   2.211  30.085  0.00  0.00    +0.029 A 
BRANCH  33   9
ATOM      9  N   UNL     1     -15.252   2.260  31.449  0.00  0.00    -0.336 N 
ATOM     34  C   UNL     1     -14.835   1.058  32.143  0.00  0.00    +0.129 C 
ATOM     35  C   UNL     1     -15.288   3.517  32.171  0.00  0.00    +0.129 C 
ENDBRANCH  33   9
ENDBRANCH  22  25
ENDBRANCH  15   8
ENDBRANCH  13  15
TORSDOF 9
ENDMDL
MODEL 9
REMARK VINA RESULT:      -6.7      1.926      2.817
REMARK  Name = 40777983
REMARK  11 active torsions:
REMARK  status: ('A' for Active; 'I' for Inactive)
REMARK    1  A    between atoms: O_2  and  C_11
REMARK    2  A    between atoms: O_3  and  C_12
REMARK    3  A    between atoms: N_7  and  C_21
REMARK    4  A    between atoms: N_8  and  C_15
REMARK    5  A    between atoms: N_9  and  C_33
REMARK    6  A    between atoms: N_9  and  C_34
REMARK    7  A    between atoms: N_9  and  C_35
REMARK    8  A    between atoms: C_10  and  C_14
REMARK    9  A    between atoms: C_13  and  C_15
REMARK   10  A    between atoms: C_14  and  C_16
REMARK   11  A    between atoms: C_22  and  C_25
REMARK                            x       y       z     vdW  Elec       q    Type
REMARK                         _______ _______ _______ _____ _____    ______ ____
ROOT
ATOM      1  O   UNL     1      13.580   8.376  21.126  0.00  0.00    -0.366 OA
ATOM     10  C   UNL     1      12.189   8.662  21.399  0.00  0.00    +0.159 C 
ATOM     11  C   UNL     1      11.378   7.840  20.403  0.00  0.00    +0.175 C 
ATOM     12  C   UNL     1      12.332   7.734  19.231  0.00  0.00    +0.176 C 
ATOM     13  C   UNL     1      13.666   7.568  19.939  0.00  0.00    +0.167 C 
ENDROOT
BRANCH  11   2
ATOM      2  O   UNL     1      11.151   6.553  20.974  0.00  0.00    -0.387 OA
ATOM     36  H   UNL     1      11.983   6.267  21.388  0.00  0.00    +0.210 HD
ENDBRANCH  11   2
BRANCH  12   3
ATOM      3  O   UNL     1      12.048   6.648  18.375  0.00  0.00    -0.387 OA
ATOM     37  H   UNL     1      12.271   6.923  17.470  0.00  0.00    +0.210 HD
ENDBRANCH  12   3
BRANCH  10  14
ATOM     14  C   UNL     1      11.983  10.162  21.241  0.00  0.00    +0.130 C 
BRANCH  14  16
ATOM      4  O   UNL     1      13.676  11.013  22.672  0.00  0.00    -0.276 OA
ATOM      6  N   UNL     1      13.948  11.390  20.396  0.00  0.00    -0.298 N 
ATOM      7  N   UNL     1      15.530  12.277  18.139  0.00  0.00    -0.327 N 
ATOM     16  C   UNL     1      13.278  10.890  21.512  0.00  0.00    +0.218 C 
ATOM     17  C   UNL     1      13.474  11.242  19.018  0.00  0.00    +0.126 C 
ATOM     18  C   UNL     1      15.213  12.101  20.574  0.00  0.00    +0.126 C 
ATOM     19  C   UNL     1      14.067  12.287  18.072  0.00  0.00    +0.124 C 
ATOM     20  C   UNL     1      16.162  11.879  19.399  0.00  0.00    +0.124 C 
BRANCH   7  21
ATOM     21  C   UNL     1      16.303  12.669  17.048  0.00  0.00    +0.030 A 
ATOM     23  C   UNL     1      15.733  12.726  15.775  0.00  0.00    +0.023 A 
ATOM     24  C   UNL     1      17.644  13.005  17.228  0.00  0.00    +0.023 A 
ATOM     26  C   UNL     1      16.506  13.119  14.683  0.00  0.00    +0.002 A 
ATOM     27  C   UNL     1      18.417  13.398  16.135  0.00  0.00    +0.002 A 
ATOM     28  C   UNL     1      17.848  13.456  14.863  0.00  0.00    +0.000 A 
ENDBRANCH   7  21
ENDBRANCH  14  16
ENDBRANCH  10  14
BRANCH  13  15
ATOM     15  C   UNL     1      14.852   8.014  19.101  0.00  0.00    +0.138 C 
BRANCH  15   8
ATOM      5  O   UNL     1      16.530   5.708  18.774  0.00  0.00    -0.270 OA
ATOM      8  N   UNL     1      16.090   7.754  19.774  0.00  0.00    -0.309 N 
ATOM     22  C   UNL     1      16.841   6.604  19.554  0.00  0.00    +0.244 C 
ATOM     38  H   UNL     1      16.434   8.481  20.393  0.00  0.00    +0.149 HD
BRANCH  22  25
ATOM     25  C   UNL     1      18.089   6.472  20.351  0.00  0.00    +0.037 A 
ATOM     29  C   UNL     1      19.038   5.509  20.006  0.00  0.00    +0.015 A 
ATOM     30  C   UNL     1      18.311   7.309  21.444  0.00  0.00    +0.015 A 
ATOM     31  C   UNL     1      20.208   5.384  20.754  0.00  0.00    +0.024 A 
ATOM     32  C   UNL     1      19.481   7.185  22.193  0.00  0.00    +0.024 A 
ATOM     33  C   UNL     1      20.430   6.222  21.847  0.00  0.00    +0.029 A 
BRANCH  33   9
ATOM      9  N   UNL     1      21.614   6.096  22.603  0.00  0.00    -0.336 N 
ATOM     34  C   UNL     1      21.617   6.408  24.019  0.00  0.00    +0.129 C 
ATOM     35  C   UNL     1      22.841   5.645  21.976  0.00  0.00    +0.129 C 
ENDBRANCH  33   9
ENDBRANCH  22  25
ENDBRANCH  15   8
ENDBRANCH  13  15
TORSDOF 9
ENDMDL
MODEL 10
REMARK VINA RESULT:      -6.7     27.401     30.012
REMARK  Name = 40777983
REMARK  11 active torsions:
REMARK  status: ('A' for Active; 'I' for Inactive)
REMARK    1  A    between atoms: O_2  and  C_11
REMARK    2  A    between atoms: O_3  and  C_12
REMARK    3  A    between atoms: N_7  and  C_21
REMARK    4  A    between atoms: N_8  and  C_15
REMARK    5  A    between atoms: N_9  and  C_33
REMARK    6  A    between atoms: N_9  and  C_34
REMARK    7  A    between atoms: N_9  and  C_35
REMARK    8  A    between atoms: C_10  and  C_14
REMARK    9  A    between atoms: C_13  and  C_15
REMARK   10  A    between atoms: C_14  and  C_16
REMARK   11  A    between atoms: C_22  and  C_25
REMARK                            x       y       z     vdW  Elec       q    Type
REMARK                         _______ _______ _______ _____ _____    ______ ____
ROOT
ATOM      1  O   UNL     1      -7.680 -10.343   8.841  0.00  0.00    -0.366 OA
ATOM     10  C   UNL     1      -8.427  -9.453   9.702  0.00  0.00    +0.159 C 
ATOM     11  C   UNL     1      -8.578  -8.142   8.937  0.00  0.00    +0.175 C 
ATOM     12  C   UNL     1      -7.342  -8.144   8.062  0.00  0.00    +0.176 C 
ATOM     13  C   UNL     1      -7.237  -9.612   7.684  0.00  0.00    +0.167 C 
ENDROOT
BRANCH  11   2
ATOM      2  O   UNL     1      -9.753  -8.233   8.132  0.00  0.00    -0.387 OA
ATOM     36  H   UNL     1      -9.472  -8.208   7.202  0.00  0.00    +0.210 HD
ENDBRANCH  11   2
BRANCH  12   3
ATOM      3  O   UNL     1      -7.459  -7.311   6.927  0.00  0.00    -0.387 OA
ATOM     37  H   UNL     1      -6.937  -6.509   7.099  0.00  0.00    +0.210 HD
ENDBRANCH  12   3
BRANCH  10  14
ATOM     14  C   UNL     1      -7.647  -9.298  11.000  0.00  0.00    +0.130 C 
BRANCH  14  16
ATOM      4  O   UNL     1      -9.738  -9.762  12.027  0.00  0.00    -0.276 OA
ATOM      6  N   UNL     1      -7.850  -9.956  13.369  0.00  0.00    -0.298 N 
ATOM      7  N   UNL     1      -6.560 -10.733  15.841  0.00  0.00    -0.327 N 
ATOM     16  C   UNL     1      -8.515  -9.693  12.170  0.00  0.00    +0.218 C 
ATOM     17  C   UNL     1      -6.397  -9.874  13.537  0.00  0.00    +0.126 C 
ATOM     18  C   UNL     1      -8.619 -10.351  14.547  0.00  0.00    +0.126 C 
ATOM     19  C   UNL     1      -5.981  -9.686  14.996  0.00  0.00    +0.124 C 
ATOM     20  C   UNL     1      -7.842 -11.317  15.437  0.00  0.00    +0.124 C 
BRANCH   7  21
ATOM     21  C   UNL     1      -5.931 -11.140  17.015  0.00  0.00    +0.030 A 
ATOM     23  C   UNL     1      -4.539 -11.209  17.073  0.00  0.00    +0.023 A 
ATOM     24  C   UNL     1      -6.693 -11.479  18.134  0.00  0.00    +0.023 A 
ATOM     26  C   UNL     1      -3.908 -11.615  18.249  0.00  0.00    +0.002 A 
ATOM     27  C   UNL     1      -6.062 -11.885  19.310  0.00  0.00    +0.002 A 
ATOM     28  C   UNL     1      -4.670 -11.953  19.367  0.00  0.00    +0.000 A 
ENDBRANCH   7  21
ENDBRANCH  14  16
ENDBRANCH  10  14
BRANCH  13  15
ATOM     15  C   UNL     1      -5.827 -10.039   7.318  0.00  0.00    +0.138 C 
BRANCH  15   8
ATOM      5  O   UNL     1      -4.046  -8.593   9.044  0.00  0.00    -0.270 OA
ATOM      8  N   UNL     1      -5.130 -10.558   8.458  0.00  0.00    -0.309 N 
ATOM     22  C   UNL     1      -4.282  -9.782   9.242  0.00  0.00    +0.244 C 
ATOM     38  H   UNL     1      -5.323 -11.521   8.711  0.00  0.00    +0.149 HD
BRANCH  22  25
ATOM     25  C   UNL     1      -3.615 -10.477  10.374  0.00  0.00    +0.037 A 
ATOM     29  C   UNL     1      -4.080 -11.721  10.799  0.00  0.00    +0.015 A 
ATOM     30  C   UNL     1      -2.525  -9.885  11.011  0.00  0.00    +0.015 A 
ATOM     31  C   UNL     1      -3.455 -12.374  11.861  0.00  0.00    +0.024 A 
ATOM     32  C   UNL     1      -1.899 -10.536  12.074  0.00  0.00    +0.024 A 
ATOM     33  C   UNL     1      -2.364 -11.781  12.498  0.00  0.00    +0.029 A 
BRANCH  33   9
ATOM      9  N   UNL     1      -1.731 -12.441  13.573  0.00  0.00    -0.336 N 
ATOM     34  C   UNL     1      -1.317 -13.824  13.443  0.00  0.00    +0.129 C 
ATOM     35  C   UNL     1      -1.479 -11.741  14.817  0.00  0.00    +0.129 C 
ENDBRANCH  33   9
ENDBRANCH  22  25
ENDBRANCH  15   8
ENDBRANCH  13  15
TORSDOF 9
ENDMDL
