REMARK  Name = 7674751
REMARK  5 active torsions:
REMARK  status: ('A' for Active; 'I' for Inactive)
REMARK    1  A    between atoms: O_6  and  C_32
REMARK    2  A    between atoms: O_6  and  C_33
REMARK    3  A    between atoms: N_7  and  C_16
REMARK    4  A    between atoms: C_16  and  C_21
REMARK    5  A    between atoms: C_19  and  C_22
REMARK                            x       y       z     vdW  Elec       q    Type
REMARK                         _______ _______ _______ _____ _____    ______ ____
ROOT
ATOM      5  O   UNL     1      -1.105  -2.096   1.232  0.00  0.00    -0.267 OA
ATOM      7  N   UNL     1       3.750  -0.881   0.930  0.00  0.00    -0.297 NA
ATOM      8  N   UNL     1       0.933  -2.126   0.101  0.00  0.00    -0.311 N 
ATOM      9  C   UNL     1       3.021  -3.277   1.041  0.00  0.00    +0.024 C 
ATOM     10  C   UNL     1       3.129  -2.151  -1.130  0.00  0.00    +0.050 C 
ATOM     11  C   UNL     1       3.389  -3.478  -0.423  0.00  0.00    +0.017 C 
ATOM     12  C   UNL     1       3.882  -2.152   1.653  0.00  0.00    +0.090 C 
ATOM     13  C   UNL     1       4.017  -1.050  -0.506  0.00  0.00    +0.094 C 
ATOM     14  C   UNL     1       1.517  -2.989   1.138  0.00  0.00    +0.130 C 
ATOM     15  C   UNL     1       1.664  -1.767  -1.034  0.00  0.00    +0.026 A 
ATOM     17  C   UNL     1       1.076  -1.073  -2.022  0.00  0.00    +0.022 A 
ATOM     18  C   UNL     1      -0.420  -1.770   0.262  0.00  0.00    +0.259 A 
ATOM     19  C   UNL     1      -1.042  -0.962  -0.846  0.00  0.00    +0.047 A 
ATOM     20  C   UNL     1      -0.295  -0.661  -1.919  0.00  0.00    +0.015 A 
ENDROOT
BRANCH  19  22
ATOM     22  C   UNL     1      -2.438  -0.497  -0.762  0.00  0.00    -0.012 A 
ATOM     25  C   UNL     1      -3.470  -1.291  -1.263  0.00  0.00    +0.012 A 
ATOM     26  C   UNL     1      -2.729   0.737  -0.181  0.00  0.00    +0.012 A 
ATOM     30  C   UNL     1      -4.791  -0.851  -1.184  0.00  0.00    +0.046 A 
ATOM     31  C   UNL     1      -4.050   1.178  -0.101  0.00  0.00    +0.046 A 
ATOM     32  C   UNL     1      -5.081   0.383  -0.603  0.00  0.00    +0.130 A 
BRANCH  32   6
ATOM      6  O   UNL     1      -6.370   0.813  -0.526  0.00  0.00    -0.406 OA
BRANCH   6  33
ATOM      2  F   UNL     1      -6.355   0.279   1.698  0.00  0.00    -0.133 F 
ATOM      3  F   UNL     1      -8.244   0.805   0.733  0.00  0.00    -0.133 F 
ATOM      4  F   UNL     1      -6.763   2.369   1.104  0.00  0.00    -0.133 F 
ATOM     33  C   UNL     1      -6.918   1.072   0.761  0.00  0.00    +0.575 C 
ENDBRANCH   6  33
ENDBRANCH  32   6
ENDBRANCH  19  22
BRANCH   7  16
ATOM     16  C   UNL     1       4.619   0.142   1.506  0.00  0.00    +0.119 C 
BRANCH  16  21
ATOM      1  F   UNL     1       3.819   5.113  -0.993  0.00  0.00    -0.205 F 
ATOM     21  C   UNL     1       4.406   1.473   0.838  0.00  0.00    -0.033 A 
ATOM     23  C   UNL     1       5.163   1.808  -0.276  0.00  0.00    +0.008 A 
ATOM     24  C   UNL     1       3.453   2.348   1.343  0.00  0.00    +0.008 A 
ATOM     27  C   UNL     1       4.965   3.042  -0.896  0.00  0.00    +0.038 A 
ATOM     28  C   UNL     1       3.255   3.581   0.723  0.00  0.00    +0.038 A 
ATOM     29  C   UNL     1       4.010   3.928  -0.397  0.00  0.00    +0.123 A 
ENDBRANCH  16  21
ENDBRANCH   7  16
TORSDOF 5
