MODEL 1
REMARK VINA RESULT:      -6.7      0.000      0.000
REMARK  Name = 45361701
REMARK  9 active torsions:
REMARK  status: ('A' for Active; 'I' for Inactive)
REMARK    1  A    between atoms: N_7  and  C_19
REMARK    2  A    between atoms: N_11  and  C_37
REMARK    3  A    between atoms: N_11  and  C_38
REMARK    4  A    between atoms: N_11  and  C_39
REMARK    5  A    between atoms: C_12  and  C_15
REMARK    6  A    between atoms: C_15  and  C_19
REMARK    7  A    between atoms: C_19  and  C_25
REMARK    8  A    between atoms: C_20  and  C_23
REMARK    9  A    between atoms: C_27  and  C_32
REMARK                            x       y       z     vdW  Elec       q    Type
REMARK                         _______ _______ _______ _____ _____    ______ ____
ROOT
ATOM      3  O   UNL     1      -7.305 -16.029  17.078  0.00  0.00    -0.377 OA
ATOM      4  O   UNL     1      -3.285 -15.518  15.015  0.00  0.00    -0.252 OA
ATOM      5  O   UNL     1      -1.945  -9.954  11.465  0.00  0.00    -0.270 OA
ATOM      6  N   UNL     1      -4.044 -13.570  14.039  0.00  0.00    -0.271 N 
ATOM      8  N   UNL     1      -3.213 -11.863  11.923  0.00  0.00    -0.294 N 
ATOM      9  N   UNL     1      -5.549 -15.125  15.068  0.00  0.00    -0.281 N 
ATOM     20  C   UNL     1      -2.736 -12.902  14.115  0.00  0.00    +0.181 C 
ATOM     21  C   UNL     1      -2.185 -12.492  12.750  0.00  0.00    +0.140 C 
ATOM     22  C   UNL     1      -5.038 -12.966  13.130  0.00  0.00    +0.129 C 
ATOM     24  C   UNL     1      -4.427 -12.667  11.765  0.00  0.00    +0.127 C 
ATOM     26  C   UNL     1      -4.236 -14.779  14.728  0.00  0.00    +0.306 C 
ATOM     27  C   UNL     1      -2.968 -10.624  11.328  0.00  0.00    +0.247 C 
ATOM     28  C   UNL     1      -5.938 -16.532  15.150  0.00  0.00    +0.137 C 
ATOM     29  C   UNL     1      -6.525 -14.205  15.668  0.00  0.00    +0.137 C 
ATOM     30  C   UNL     1      -6.278 -16.898  16.587  0.00  0.00    +0.179 C 
ATOM     31  C   UNL     1      -6.869 -14.668  17.082  0.00  0.00    +0.179 C 
ENDROOT
BRANCH  27  32
ATOM     32  C   UNL     1      -4.015 -10.047  10.476  0.00  0.00    +0.037 A 
ATOM     33  C   UNL     1      -4.957  -9.175  11.023  0.00  0.00    +0.015 A 
ATOM     34  C   UNL     1      -4.068 -10.369   9.120  0.00  0.00    +0.015 A 
ATOM     35  C   UNL     1      -5.953  -8.628  10.215  0.00  0.00    +0.024 A 
ATOM     36  C   UNL     1      -5.063  -9.821   8.311  0.00  0.00    +0.024 A 
ATOM     37  C   UNL     1      -6.007  -8.951   8.859  0.00  0.00    +0.029 A 
BRANCH  37  11
ATOM     11  N   UNL     1      -7.012  -8.397   8.040  0.00  0.00    -0.336 N 
ATOM     38  C   UNL     1      -7.250  -8.924   6.711  0.00  0.00    +0.129 C 
ATOM     39  C   UNL     1      -7.817  -7.288   8.514  0.00  0.00    +0.129 C 
ENDBRANCH  37  11
ENDBRANCH  27  32
BRANCH  20  23
ATOM      1  O   UNL     1      -2.485 -10.610  14.743  0.00  0.00    -0.274 OA
ATOM      7  N   UNL     1      -3.636 -12.050  16.166  0.00  0.00    -0.302 N 
ATOM     23  C   UNL     1      -2.932 -11.720  15.020  0.00  0.00    +0.236 C 
ATOM     40  H   UNL     1      -3.958 -13.004  16.293  0.00  0.00    +0.150 HD
BRANCH   7  19
ATOM     19  C   UNL     1      -3.937 -11.096  17.209  0.00  0.00    +0.159 C 
BRANCH  19  25
ATOM      2  O   UNL     1      -5.205 -11.333  19.269  0.00  0.00    -0.274 OA
ATOM     10  N   UNL     1      -4.081 -13.164  18.459  0.00  0.00    -0.328 N 
ATOM     25  C   UNL     1      -4.492 -11.849  18.412  0.00  0.00    +0.231 C 
ATOM     41  H   UNL     1      -3.474 -13.572  17.755  0.00  0.00    +0.145 HD
ATOM     42  H   UNL     1      -4.373 -13.774  19.215  0.00  0.00    +0.145 HD
ENDBRANCH  19  25
BRANCH  19  15
ATOM     15  C   UNL     1      -4.870  -9.982  16.724  0.00  0.00    +0.035 C 
BRANCH  15  12
ATOM     12  C   UNL     1      -6.090 -10.480  15.950  0.00  0.00    -0.009 C 
ATOM     13  C   UNL     1      -7.381 -10.185  16.726  0.00  0.00    +0.003 C 
ATOM     14  C   UNL     1      -6.138  -9.851  14.552  0.00  0.00    +0.003 C 
ATOM     16  C   UNL     1      -8.619 -10.626  15.948  0.00  0.00    +0.000 C 
ATOM     17  C   UNL     1      -7.377 -10.292  13.777  0.00  0.00    +0.000 C 
ATOM     18  C   UNL     1      -8.658 -10.006  14.555  0.00  0.00    +0.000 C 
ENDBRANCH  15  12
ENDBRANCH  19  15
ENDBRANCH   7  19
ENDBRANCH  20  23
TORSDOF 7
ENDMDL
MODEL 2
REMARK VINA RESULT:      -6.1      4.727      7.887
REMARK  Name = 45361701
REMARK  9 active torsions:
REMARK  status: ('A' for Active; 'I' for Inactive)
REMARK    1  A    between atoms: N_7  and  C_19
REMARK    2  A    between atoms: N_11  and  C_37
REMARK    3  A    between atoms: N_11  and  C_38
REMARK    4  A    between atoms: N_11  and  C_39
REMARK    5  A    between atoms: C_12  and  C_15
REMARK    6  A    between atoms: C_15  and  C_19
REMARK    7  A    between atoms: C_19  and  C_25
REMARK    8  A    between atoms: C_20  and  C_23
REMARK    9  A    between atoms: C_27  and  C_32
REMARK                            x       y       z     vdW  Elec       q    Type
REMARK                         _______ _______ _______ _____ _____    ______ ____
ROOT
ATOM      3  O   UNL     1     -13.981 -14.915  15.825  0.00  0.00    -0.377 OA
ATOM      4  O   UNL     1     -11.497 -15.037  19.632  0.00  0.00    -0.252 OA
ATOM      5  O   UNL     1      -6.271 -10.867  20.441  0.00  0.00    -0.270 OA
ATOM      6  N   UNL     1     -10.034 -13.506  18.714  0.00  0.00    -0.271 N 
ATOM      8  N   UNL     1      -7.421 -12.547  19.294  0.00  0.00    -0.294 N 
ATOM      9  N   UNL     1     -11.635 -14.672  17.366  0.00  0.00    -0.281 N 
ATOM     20  C   UNL     1      -9.774 -12.834  19.996  0.00  0.00    +0.181 C 
ATOM     21  C   UNL     1      -8.305 -12.870  20.413  0.00  0.00    +0.140 C 
ATOM     22  C   UNL     1      -9.078 -13.233  17.624  0.00  0.00    +0.129 C 
ATOM     24  C   UNL     1      -7.638 -13.373  18.105  0.00  0.00    +0.127 C 
ATOM     26  C   UNL     1     -11.083 -14.438  18.631  0.00  0.00    +0.306 C 
ATOM     27  C   UNL     1      -6.448 -11.557  19.438  0.00  0.00    +0.247 C 
ATOM     28  C   UNL     1     -12.191 -15.986  17.042  0.00  0.00    +0.137 C 
ATOM     29  C   UNL     1     -12.004 -13.621  16.409  0.00  0.00    +0.137 C 
ATOM     30  C   UNL     1     -13.695 -15.882  16.840  0.00  0.00    +0.179 C 
ATOM     31  C   UNL     1     -13.517 -13.617  16.205  0.00  0.00    +0.179 C 
ENDROOT
BRANCH  27  32
ATOM     32  C   UNL     1      -5.559 -11.291  18.300  0.00  0.00    +0.037 A 
ATOM     33  C   UNL     1      -4.230 -11.714  18.340  0.00  0.00    +0.015 A 
ATOM     34  C   UNL     1      -6.042 -10.615  17.180  0.00  0.00    +0.015 A 
ATOM     35  C   UNL     1      -3.384 -11.461  17.260  0.00  0.00    +0.024 A 
ATOM     36  C   UNL     1      -5.197 -10.362  16.099  0.00  0.00    +0.024 A 
ATOM     37  C   UNL     1      -3.868 -10.784  16.140  0.00  0.00    +0.029 A 
BRANCH  37  11
ATOM     11  N   UNL     1      -3.015 -10.528  15.047  0.00  0.00    -0.336 N 
ATOM     38  C   UNL     1      -3.524 -10.574  13.691  0.00  0.00    +0.129 C 
ATOM     39  C   UNL     1      -1.615 -10.222  15.265  0.00  0.00    +0.129 C 
ENDBRANCH  37  11
ENDBRANCH  27  32
BRANCH  20  23
ATOM      1  O   UNL     1      -9.678 -10.466  20.304  0.00  0.00    -0.274 OA
ATOM      7  N   UNL     1     -11.465 -11.378  19.122  0.00  0.00    -0.302 N 
ATOM     23  C   UNL     1     -10.277 -11.429  19.831  0.00  0.00    +0.236 C 
ATOM     40  H   UNL     1     -11.875 -12.241  18.778  0.00  0.00    +0.150 HD
BRANCH   7  19
ATOM     19  C   UNL     1     -12.168 -10.146  18.847  0.00  0.00    +0.159 C 
BRANCH  19  25
ATOM      2  O   UNL     1     -13.054  -9.766  21.078  0.00  0.00    -0.274 OA
ATOM     10  N   UNL     1     -14.534 -10.097  19.353  0.00  0.00    -0.328 N 
ATOM     25  C   UNL     1     -13.269  -9.970  19.885  0.00  0.00    +0.231 C 
ATOM     41  H   UNL     1     -14.696 -10.286  18.369  0.00  0.00    +0.145 HD
ATOM     42  H   UNL     1     -15.356 -10.009  19.940  0.00  0.00    +0.145 HD
ENDBRANCH  19  25
BRANCH  19  15
ATOM     15  C   UNL     1     -12.694 -10.089  17.409  0.00  0.00    +0.035 C 
BRANCH  15  12
ATOM     12  C   UNL     1     -12.120  -8.945  16.576  0.00  0.00    -0.009 C 
ATOM     13  C   UNL     1     -13.153  -7.822  16.413  0.00  0.00    +0.003 C 
ATOM     14  C   UNL     1     -10.827  -8.412  17.206  0.00  0.00    +0.003 C 
ATOM     16  C   UNL     1     -12.583  -6.642  15.628  0.00  0.00    +0.000 C 
ATOM     17  C   UNL     1     -10.261  -7.232  16.420  0.00  0.00    +0.000 C 
ATOM     18  C   UNL     1     -11.293  -6.120  16.253  0.00  0.00    +0.000 C 
ENDBRANCH  15  12
ENDBRANCH  19  15
ENDBRANCH   7  19
ENDBRANCH  20  23
TORSDOF 7
ENDMDL
MODEL 3
REMARK VINA RESULT:      -6.0      2.928      6.664
REMARK  Name = 45361701
REMARK  9 active torsions:
REMARK  status: ('A' for Active; 'I' for Inactive)
REMARK    1  A    between atoms: N_7  and  C_19
REMARK    2  A    between atoms: N_11  and  C_37
REMARK    3  A    between atoms: N_11  and  C_38
REMARK    4  A    between atoms: N_11  and  C_39
REMARK    5  A    between atoms: C_12  and  C_15
REMARK    6  A    between atoms: C_15  and  C_19
REMARK    7  A    between atoms: C_19  and  C_25
REMARK    8  A    between atoms: C_20  and  C_23
REMARK    9  A    between atoms: C_27  and  C_32
REMARK                            x       y       z     vdW  Elec       q    Type
REMARK                         _______ _______ _______ _____ _____    ______ ____
ROOT
ATOM      3  O   UNL     1      -1.589 -11.897  13.953  0.00  0.00    -0.377 OA
ATOM      4  O   UNL     1      -3.396 -11.350  18.090  0.00  0.00    -0.252 OA
ATOM      5  O   UNL     1     -10.057 -10.716  18.856  0.00  0.00    -0.270 OA
ATOM      6  N   UNL     1      -5.472 -11.034  17.131  0.00  0.00    -0.271 N 
ATOM      8  N   UNL     1      -8.002 -10.046  17.969  0.00  0.00    -0.294 N 
ATOM      9  N   UNL     1      -3.462 -10.942  15.828  0.00  0.00    -0.281 N 
ATOM     20  C   UNL     1      -6.191 -11.709  18.222  0.00  0.00    +0.181 C 
ATOM     21  C   UNL     1      -7.205 -10.810  18.927  0.00  0.00    +0.140 C 
ATOM     22  C   UNL     1      -6.285 -10.198  16.227  0.00  0.00    +0.129 C 
ATOM     24  C   UNL     1      -7.207  -9.272  17.013  0.00  0.00    +0.127 C 
ATOM     26  C   UNL     1      -4.070 -11.126  17.076  0.00  0.00    +0.306 C 
ATOM     27  C   UNL     1      -9.395 -10.064  18.050  0.00  0.00    +0.247 C 
ATOM     28  C   UNL     1      -2.120 -10.368  15.746  0.00  0.00    +0.137 C 
ATOM     29  C   UNL     1      -3.918 -11.564  14.578  0.00  0.00    +0.137 C 
ATOM     30  C   UNL     1      -1.139 -11.404  15.219  0.00  0.00    +0.179 C 
ATOM     31  C   UNL     1      -2.859 -12.542  14.074  0.00  0.00    +0.179 C 
ENDROOT
BRANCH  27  32
ATOM     32  C   UNL     1     -10.155  -9.253  17.090  0.00  0.00    +0.037 A 
ATOM     33  C   UNL     1     -10.589  -9.818  15.891  0.00  0.00    +0.015 A 
ATOM     34  C   UNL     1     -10.441  -7.918  17.376  0.00  0.00    +0.015 A 
ATOM     35  C   UNL     1     -11.309  -9.048  14.977  0.00  0.00    +0.024 A 
ATOM     36  C   UNL     1     -11.162  -7.148  16.463  0.00  0.00    +0.024 A 
ATOM     37  C   UNL     1     -11.595  -7.713  15.263  0.00  0.00    +0.029 A 
BRANCH  37  11
ATOM     11  N   UNL     1     -12.324  -6.934  14.341  0.00  0.00    -0.336 N 
ATOM     38  C   UNL     1     -12.095  -5.506  14.244  0.00  0.00    +0.129 C 
ATOM     39  C   UNL     1     -13.317  -7.550  13.484  0.00  0.00    +0.129 C 
ENDBRANCH  37  11
ENDBRANCH  27  32
BRANCH  20  23
ATOM      1  O   UNL     1      -7.968 -13.278  17.925  0.00  0.00    -0.274 OA
ATOM      7  N   UNL     1      -6.021 -13.530  16.673  0.00  0.00    -0.302 N 
ATOM     23  C   UNL     1      -6.841 -12.911  17.601  0.00  0.00    +0.236 C 
ATOM     40  H   UNL     1      -5.103 -13.140  16.484  0.00  0.00    +0.150 HD
BRANCH   7  19
ATOM     19  C   UNL     1      -6.404 -14.721  15.951  0.00  0.00    +0.159 C 
BRANCH  19  25
ATOM      2  O   UNL     1      -5.120 -16.126  14.439  0.00  0.00    -0.274 OA
ATOM     10  N   UNL     1      -4.037 -15.152  16.215  0.00  0.00    -0.328 N 
ATOM     25  C   UNL     1      -5.144 -15.403  15.432  0.00  0.00    +0.231 C 
ATOM     41  H   UNL     1      -4.076 -14.570  17.045  0.00  0.00    +0.145 HD
ATOM     42  H   UNL     1      -3.135 -15.554  15.983  0.00  0.00    +0.145 HD
ENDBRANCH  19  25
BRANCH  19  15
ATOM     15  C   UNL     1      -7.418 -14.425  14.842  0.00  0.00    +0.035 C 
BRANCH  15  12
ATOM     12  C   UNL     1      -7.160 -13.123  14.087  0.00  0.00    -0.009 C 
ATOM     13  C   UNL     1      -6.633 -13.409  12.675  0.00  0.00    +0.003 C 
ATOM     14  C   UNL     1      -8.432 -12.267  14.033  0.00  0.00    +0.003 C 
ATOM     16  C   UNL     1      -6.418 -12.122  11.882  0.00  0.00    +0.000 C 
ATOM     17  C   UNL     1      -8.214 -10.981  13.239  0.00  0.00    +0.000 C 
ATOM     18  C   UNL     1      -7.682 -11.269  11.838  0.00  0.00    +0.000 C 
ENDBRANCH  15  12
ENDBRANCH  19  15
ENDBRANCH   7  19
ENDBRANCH  20  23
TORSDOF 7
ENDMDL
MODEL 4
REMARK VINA RESULT:      -5.9     25.442     28.933
REMARK  Name = 45361701
REMARK  9 active torsions:
REMARK  status: ('A' for Active; 'I' for Inactive)
REMARK    1  A    between atoms: N_7  and  C_19
REMARK    2  A    between atoms: N_11  and  C_37
REMARK    3  A    between atoms: N_11  and  C_38
REMARK    4  A    between atoms: N_11  and  C_39
REMARK    5  A    between atoms: C_12  and  C_15
REMARK    6  A    between atoms: C_15  and  C_19
REMARK    7  A    between atoms: C_19  and  C_25
REMARK    8  A    between atoms: C_20  and  C_23
REMARK    9  A    between atoms: C_27  and  C_32
REMARK                            x       y       z     vdW  Elec       q    Type
REMARK                         _______ _______ _______ _____ _____    ______ ____
ROOT
ATOM      3  O   UNL     1      17.323  10.486   1.098  0.00  0.00    -0.377 OA
ATOM      4  O   UNL     1      16.586   7.704   4.619  0.00  0.00    -0.252 OA
ATOM      5  O   UNL     1      10.543   7.466   7.583  0.00  0.00    -0.270 OA
ATOM      6  N   UNL     1      14.480   8.611   4.882  0.00  0.00    -0.271 N 
ATOM      8  N   UNL     1      12.465   8.598   6.887  0.00  0.00    -0.294 N 
ATOM      9  N   UNL     1      16.143   9.677   3.525  0.00  0.00    -0.281 N 
ATOM     20  C   UNL     1      13.872   7.336   5.293  0.00  0.00    +0.181 C 
ATOM     21  C   UNL     1      13.253   7.383   6.690  0.00  0.00    +0.140 C 
ATOM     22  C   UNL     1      13.704   9.832   5.170  0.00  0.00    +0.129 C 
ATOM     24  C   UNL     1      13.196   9.836   6.608  0.00  0.00    +0.127 C 
ATOM     26  C   UNL     1      15.783   8.608   4.354  0.00  0.00    +0.306 C 
ATOM     27  C   UNL     1      11.151   8.509   7.350  0.00  0.00    +0.247 C 
ATOM     28  C   UNL     1      17.532  10.132   3.478  0.00  0.00    +0.137 C 
ATOM     29  C   UNL     1      15.310  10.206   2.437  0.00  0.00    +0.137 C 
ATOM     30  C   UNL     1      18.125   9.859   2.104  0.00  0.00    +0.179 C 
ATOM     31  C   UNL     1      15.995   9.957   1.095  0.00  0.00    +0.179 C 
ENDROOT
BRANCH  27  32
ATOM     32  C   UNL     1      10.409   9.757   7.568  0.00  0.00    +0.037 A 
ATOM     33  C   UNL     1       9.750  10.372   6.502  0.00  0.00    +0.015 A 
ATOM     34  C   UNL     1      10.361  10.328   8.839  0.00  0.00    +0.015 A 
ATOM     35  C   UNL     1       9.046  11.558   6.708  0.00  0.00    +0.024 A 
ATOM     36  C   UNL     1       9.656  11.514   9.046  0.00  0.00    +0.024 A 
ATOM     37  C   UNL     1       9.000  12.130   7.980  0.00  0.00    +0.029 A 
BRANCH  37  11
ATOM     11  N   UNL     1       8.287  13.328   8.189  0.00  0.00    -0.336 N 
ATOM     38  C   UNL     1       8.190  13.902   9.517  0.00  0.00    +0.129 C 
ATOM     39  C   UNL     1       7.635  13.998   7.081  0.00  0.00    +0.129 C 
ENDBRANCH  37  11
ENDBRANCH  27  32
BRANCH  20  23
ATOM      1  O   UNL     1      12.925   7.473   3.104  0.00  0.00    -0.274 OA
ATOM      7  N   UNL     1      11.864   6.165   4.712  0.00  0.00    -0.302 N 
ATOM     23  C   UNL     1      12.855   7.008   4.239  0.00  0.00    +0.236 C 
ATOM     40  H   UNL     1      11.905   5.842   5.673  0.00  0.00    +0.150 HD
BRANCH   7  19
ATOM     19  C   UNL     1      10.755   5.718   3.901  0.00  0.00    +0.159 C 
BRANCH  19  25
ATOM      2  O   UNL     1       9.044   4.703   5.297  0.00  0.00    -0.274 OA
ATOM     10  N   UNL     1       8.894   6.949   4.839  0.00  0.00    -0.328 N 
ATOM     25  C   UNL     1       9.496   5.710   4.758  0.00  0.00    +0.231 C 
ATOM     41  H   UNL     1       9.267   7.768   4.370  0.00  0.00    +0.145 HD
ATOM     42  H   UNL     1       8.042   7.079   5.373  0.00  0.00    +0.145 HD
ENDBRANCH  19  25
BRANCH  19  15
ATOM     15  C   UNL     1      11.031   4.363   3.240  0.00  0.00    +0.035 C 
BRANCH  15  12
ATOM     12  C   UNL     1      11.689   4.459   1.865  0.00  0.00    -0.009 C 
ATOM     13  C   UNL     1      12.784   3.395   1.713  0.00  0.00    +0.003 C 
ATOM     14  C   UNL     1      10.641   4.328   0.752  0.00  0.00    +0.003 C 
ATOM     16  C   UNL     1      13.421   3.437   0.325  0.00  0.00    +0.000 C 
ATOM     17  C   UNL     1      11.281   4.369  -0.634  0.00  0.00    +0.000 C 
ATOM     18  C   UNL     1      12.375   3.315  -0.779  0.00  0.00    +0.000 C 
ENDBRANCH  15  12
ENDBRANCH  19  15
ENDBRANCH   7  19
ENDBRANCH  20  23
TORSDOF 7
ENDMDL
MODEL 5
REMARK VINA RESULT:      -5.9     25.734     28.521
REMARK  Name = 45361701
REMARK  9 active torsions:
REMARK  status: ('A' for Active; 'I' for Inactive)
REMARK    1  A    between atoms: N_7  and  C_19
REMARK    2  A    between atoms: N_11  and  C_37
REMARK    3  A    between atoms: N_11  and  C_38
REMARK    4  A    between atoms: N_11  and  C_39
REMARK    5  A    between atoms: C_12  and  C_15
REMARK    6  A    between atoms: C_15  and  C_19
REMARK    7  A    between atoms: C_19  and  C_25
REMARK    8  A    between atoms: C_20  and  C_23
REMARK    9  A    between atoms: C_27  and  C_32
REMARK                            x       y       z     vdW  Elec       q    Type
REMARK                         _______ _______ _______ _____ _____    ______ ____
ROOT
ATOM      3  O   UNL     1       8.353  11.344   2.729  0.00  0.00    -0.377 OA
ATOM      4  O   UNL     1       8.507   6.976   3.985  0.00  0.00    -0.252 OA
ATOM      5  O   UNL     1      13.116   2.824   1.362  0.00  0.00    -0.270 OA
ATOM      6  N   UNL     1      10.139   6.588   2.400  0.00  0.00    -0.271 N 
ATOM      8  N   UNL     1      11.325   4.313   1.174  0.00  0.00    -0.294 N 
ATOM      9  N   UNL     1       8.819   8.588   2.375  0.00  0.00    -0.281 N 
ATOM     20  C   UNL     1      10.854   5.606   3.229  0.00  0.00    +0.181 C 
ATOM     21  C   UNL     1      10.949   4.224   2.584  0.00  0.00    +0.140 C 
ATOM     22  C   UNL     1      10.473   6.601   0.963  0.00  0.00    +0.129 C 
ATOM     24  C   UNL     1      10.462   5.192   0.381  0.00  0.00    +0.127 C 
ATOM     26  C   UNL     1       9.122   7.363   2.982  0.00  0.00    +0.306 C 
ATOM     27  C   UNL     1      12.396   3.561   0.689  0.00  0.00    +0.247 C 
ATOM     28  C   UNL     1       7.458   9.119   2.438  0.00  0.00    +0.137 C 
ATOM     29  C   UNL     1       9.818   9.570   1.935  0.00  0.00    +0.137 C 
ATOM     30  C   UNL     1       7.431  10.392   3.270  0.00  0.00    +0.179 C 
ATOM     31  C   UNL     1       9.691  10.844   2.768  0.00  0.00    +0.179 C 
ENDROOT
BRANCH  27  32
ATOM     32  C   UNL     1      12.715   3.655  -0.741  0.00  0.00    +0.037 A 
ATOM     33  C   UNL     1      13.620   4.617  -1.191  0.00  0.00    +0.015 A 
ATOM     34  C   UNL     1      12.115   2.783  -1.649  0.00  0.00    +0.015 A 
ATOM     35  C   UNL     1      13.923   4.708  -2.549  0.00  0.00    +0.024 A 
ATOM     36  C   UNL     1      12.419   2.873  -3.007  0.00  0.00    +0.024 A 
ATOM     37  C   UNL     1      13.322   3.836  -3.458  0.00  0.00    +0.029 A 
BRANCH  37  11
ATOM     11  N   UNL     1      13.629   3.926  -4.831  0.00  0.00    -0.336 N 
ATOM     38  C   UNL     1      14.643   4.851  -5.298  0.00  0.00    +0.129 C 
ATOM     39  C   UNL     1      12.930   3.100  -5.795  0.00  0.00    +0.129 C 
ENDBRANCH  37  11
ENDBRANCH  27  32
BRANCH  20  23
ATOM      1  O   UNL     1      13.101   6.173   2.646  0.00  0.00    -0.274 OA
ATOM      7  N   UNL     1      12.309   6.732   4.763  0.00  0.00    -0.302 N 
ATOM     23  C   UNL     1      12.208   6.198   3.490  0.00  0.00    +0.236 C 
ATOM     40  H   UNL     1      11.505   6.697   5.381  0.00  0.00    +0.150 HD
BRANCH   7  19
ATOM     19  C   UNL     1      13.517   7.342   5.270  0.00  0.00    +0.159 C 
BRANCH  19  25
ATOM      2  O   UNL     1      13.068   8.406   7.408  0.00  0.00    -0.274 OA
ATOM     10  N   UNL     1      13.833   6.241   7.402  0.00  0.00    -0.328 N 
ATOM     25  C   UNL     1      13.430   7.409   6.789  0.00  0.00    +0.231 C 
ATOM     41  H   UNL     1      14.150   5.431   6.879  0.00  0.00    +0.145 HD
ATOM     42  H   UNL     1      13.831   6.156   8.412  0.00  0.00    +0.145 HD
ENDBRANCH  19  25
BRANCH  19  15
ATOM     15  C   UNL     1      13.789   8.708   4.631  0.00  0.00    +0.035 C 
BRANCH  15  12
ATOM     12  C   UNL     1      15.271   9.038   4.462  0.00  0.00    -0.009 C 
ATOM     13  C   UNL     1      15.767   9.908   5.623  0.00  0.00    +0.003 C 
ATOM     14  C   UNL     1      16.102   7.753   4.347  0.00  0.00    +0.003 C 
ATOM     16  C   UNL     1      17.260  10.207   5.505  0.00  0.00    +0.000 C 
ATOM     17  C   UNL     1      17.594   8.056   4.229  0.00  0.00    +0.000 C 
ATOM     18  C   UNL     1      18.083   8.928   5.382  0.00  0.00    +0.000 C 
ENDBRANCH  15  12
ENDBRANCH  19  15
ENDBRANCH   7  19
ENDBRANCH  20  23
TORSDOF 7
ENDMDL
MODEL 6
REMARK VINA RESULT:      -5.9     24.659     27.834
REMARK  Name = 45361701
REMARK  9 active torsions:
REMARK  status: ('A' for Active; 'I' for Inactive)
REMARK    1  A    between atoms: N_7  and  C_19
REMARK    2  A    between atoms: N_11  and  C_37
REMARK    3  A    between atoms: N_11  and  C_38
REMARK    4  A    between atoms: N_11  and  C_39
REMARK    5  A    between atoms: C_12  and  C_15
REMARK    6  A    between atoms: C_15  and  C_19
REMARK    7  A    between atoms: C_19  and  C_25
REMARK    8  A    between atoms: C_20  and  C_23
REMARK    9  A    between atoms: C_27  and  C_32
REMARK                            x       y       z     vdW  Elec       q    Type
REMARK                         _______ _______ _______ _____ _____    ______ ____
ROOT
ATOM      3  O   UNL     1       4.106  10.977   1.216  0.00  0.00    -0.377 OA
ATOM      4  O   UNL     1       8.608  10.375   0.991  0.00  0.00    -0.252 OA
ATOM      5  O   UNL     1      12.113   8.692   6.489  0.00  0.00    -0.270 OA
ATOM      6  N   UNL     1       8.678  10.113   3.282  0.00  0.00    -0.271 N 
ATOM      8  N   UNL     1      10.684  10.104   5.297  0.00  0.00    -0.294 N 
ATOM      9  N   UNL     1       6.752  11.022   2.183  0.00  0.00    -0.281 N 
ATOM     20  C   UNL     1       9.750   9.107   3.237  0.00  0.00    +0.181 C 
ATOM     21  C   UNL     1      11.009   9.528   3.993  0.00  0.00    +0.140 C 
ATOM     22  C   UNL     1       8.426  10.744   4.592  0.00  0.00    +0.129 C 
ATOM     24  C   UNL     1       9.726  11.211   5.239  0.00  0.00    +0.127 C 
ATOM     26  C   UNL     1       8.044  10.492   2.087  0.00  0.00    +0.306 C 
ATOM     27  C   UNL     1      11.309   9.622   6.448  0.00  0.00    +0.247 C 
ATOM     28  C   UNL     1       6.290  12.009   1.208  0.00  0.00    +0.137 C 
ATOM     29  C   UNL     1       5.675  10.448   3.001  0.00  0.00    +0.137 C 
ATOM     30  C   UNL     1       5.167  11.426   0.365  0.00  0.00    +0.179 C 
ATOM     31  C   UNL     1       4.554   9.943   2.095  0.00  0.00    +0.179 C 
ENDROOT
BRANCH  27  32
ATOM     32  C   UNL     1      10.979  10.254   7.731  0.00  0.00    +0.037 A 
ATOM     33  C   UNL     1      11.912  11.075   8.364  0.00  0.00    +0.015 A 
ATOM     34  C   UNL     1       9.733  10.034   8.318  0.00  0.00    +0.015 A 
ATOM     35  C   UNL     1      11.600  11.675   9.584  0.00  0.00    +0.024 A 
ATOM     36  C   UNL     1       9.419  10.635   9.537  0.00  0.00    +0.024 A 
ATOM     37  C   UNL     1      10.354  11.454  10.171  0.00  0.00    +0.029 A 
BRANCH  37  11
ATOM     11  N   UNL     1      10.036  12.061  11.403  0.00  0.00    -0.336 N 
ATOM     38  C   UNL     1      11.047  12.209  12.431  0.00  0.00    +0.129 C 
ATOM     39  C   UNL     1       8.692  12.540  11.661  0.00  0.00    +0.129 C 
ENDBRANCH  37  11
ENDBRANCH  27  32
BRANCH  20  23
ATOM      1  O   UNL     1       7.953   7.747   4.028  0.00  0.00    -0.274 OA
ATOM      7  N   UNL     1      10.109   6.870   4.015  0.00  0.00    -0.302 N 
ATOM     23  C   UNL     1       9.154   7.847   3.794  0.00  0.00    +0.236 C 
ATOM     40  H   UNL     1      11.079   7.063   3.786  0.00  0.00    +0.150 HD
BRANCH   7  19
ATOM     19  C   UNL     1       9.797   5.572   4.569  0.00  0.00    +0.159 C 
BRANCH  19  25
ATOM      2  O   UNL     1       9.142   5.495   6.908  0.00  0.00    -0.274 OA
ATOM     10  N   UNL     1      11.357   5.833   6.401  0.00  0.00    -0.328 N 
ATOM     25  C   UNL     1      10.035   5.613   6.073  0.00  0.00    +0.231 C 
ATOM     41  H   UNL     1      12.081   5.950   5.700  0.00  0.00    +0.145 HD
ATOM     42  H   UNL     1      11.649   5.891   7.370  0.00  0.00    +0.145 HD
ENDBRANCH  19  25
BRANCH  19  15
ATOM     15  C   UNL     1      10.571   4.446   3.876  0.00  0.00    +0.035 C 
BRANCH  15  12
ATOM     12  C   UNL     1      11.046   4.788   2.465  0.00  0.00    -0.009 C 
ATOM     13  C   UNL     1      12.256   3.928   2.078  0.00  0.00    +0.003 C 
ATOM     14  C   UNL     1       9.906   4.615   1.453  0.00  0.00    +0.003 C 
ATOM     16  C   UNL     1      12.717   4.214   0.650  0.00  0.00    +0.000 C 
ATOM     17  C   UNL     1      10.370   4.901   0.027  0.00  0.00    +0.000 C 
ATOM     18  C   UNL     1      11.579   4.050  -0.353  0.00  0.00    +0.000 C 
ENDBRANCH  15  12
ENDBRANCH  19  15
ENDBRANCH   7  19
ENDBRANCH  20  23
TORSDOF 7
ENDMDL
MODEL 7
REMARK VINA RESULT:      -5.9      5.437      9.680
REMARK  Name = 45361701
REMARK  9 active torsions:
REMARK  status: ('A' for Active; 'I' for Inactive)
REMARK    1  A    between atoms: N_7  and  C_19
REMARK    2  A    between atoms: N_11  and  C_37
REMARK    3  A    between atoms: N_11  and  C_38
REMARK    4  A    between atoms: N_11  and  C_39
REMARK    5  A    between atoms: C_12  and  C_15
REMARK    6  A    between atoms: C_15  and  C_19
REMARK    7  A    between atoms: C_19  and  C_25
REMARK    8  A    between atoms: C_20  and  C_23
REMARK    9  A    between atoms: C_27  and  C_32
REMARK                            x       y       z     vdW  Elec       q    Type
REMARK                         _______ _______ _______ _____ _____    ______ ____
ROOT
ATOM      3  O   UNL     1     -11.556 -13.674   3.787  0.00  0.00    -0.377 OA
ATOM      4  O   UNL     1      -8.645 -10.221   3.250  0.00  0.00    -0.252 OA
ATOM      5  O   UNL     1      -7.571  -5.844   8.255  0.00  0.00    -0.270 OA
ATOM      6  N   UNL     1      -9.264  -9.392   5.313  0.00  0.00    -0.271 N 
ATOM      8  N   UNL     1      -8.956  -6.946   6.729  0.00  0.00    -0.294 N 
ATOM      9  N   UNL     1     -10.561 -11.070   4.197  0.00  0.00    -0.281 N 
ATOM     20  C   UNL     1      -7.915  -8.903   5.634  0.00  0.00    +0.181 C 
ATOM     21  C   UNL     1      -7.858  -7.395   5.875  0.00  0.00    +0.140 C 
ATOM     22  C   UNL     1     -10.369  -8.858   6.133  0.00  0.00    +0.129 C 
ATOM     24  C   UNL     1     -10.284  -7.340   6.252  0.00  0.00    +0.127 C 
ATOM     26  C   UNL     1      -9.441 -10.230   4.199  0.00  0.00    +0.306 C 
ATOM     27  C   UNL     1      -8.689  -6.172   7.859  0.00  0.00    +0.247 C 
ATOM     28  C   UNL     1     -11.194 -11.444   2.933  0.00  0.00    +0.137 C 
ATOM     29  C   UNL     1     -10.993 -11.885   5.340  0.00  0.00    +0.137 C 
ATOM     30  C   UNL     1     -11.023 -12.935   2.683  0.00  0.00    +0.179 C 
ATOM     31  C   UNL     1     -10.858 -13.367   4.996  0.00  0.00    +0.179 C 
ENDROOT
BRANCH  27  32
ATOM     32  C   UNL     1      -9.825  -5.713   8.668  0.00  0.00    +0.037 A 
ATOM     33  C   UNL     1     -10.650  -6.643   9.301  0.00  0.00    +0.015 A 
ATOM     34  C   UNL     1     -10.080  -4.349   8.803  0.00  0.00    +0.015 A 
ATOM     35  C   UNL     1     -11.731  -6.208  10.069  0.00  0.00    +0.024 A 
ATOM     36  C   UNL     1     -11.160  -3.913   9.571  0.00  0.00    +0.024 A 
ATOM     37  C   UNL     1     -11.986  -4.843  10.203  0.00  0.00    +0.029 A 
BRANCH  37  11
ATOM     11  N   UNL     1     -13.077  -4.402  10.980  0.00  0.00    -0.336 N 
ATOM     38  C   UNL     1     -12.858  -3.587  12.158  0.00  0.00    +0.129 C 
ATOM     39  C   UNL     1     -14.432  -4.763  10.613  0.00  0.00    +0.129 C 
ENDBRANCH  37  11
ENDBRANCH  27  32
BRANCH  20  23
ATOM      1  O   UNL     1      -7.887 -10.815   7.066  0.00  0.00    -0.274 OA
ATOM      7  N   UNL     1      -6.592  -8.966   7.631  0.00  0.00    -0.302 N 
ATOM     23  C   UNL     1      -7.473  -9.681   6.839  0.00  0.00    +0.236 C 
ATOM     40  H   UNL     1      -6.318  -8.030   7.348  0.00  0.00    +0.150 HD
BRANCH   7  19
ATOM     19  C   UNL     1      -6.037  -9.482   8.861  0.00  0.00    +0.159 C 
BRANCH  19  25
ATOM      2  O   UNL     1      -6.422  -8.456  11.031  0.00  0.00    -0.274 OA
ATOM     10  N   UNL     1      -8.233  -9.232   9.849  0.00  0.00    -0.328 N 
ATOM     25  C   UNL     1      -6.887  -8.988  10.025  0.00  0.00    +0.231 C 
ATOM     41  H   UNL     1      -8.600  -9.692   9.022  0.00  0.00    +0.145 HD
ATOM     42  H   UNL     1      -8.907  -8.959  10.555  0.00  0.00    +0.145 HD
ENDBRANCH  19  25
BRANCH  19  15
ATOM     15  C   UNL     1      -4.554  -9.132   9.019  0.00  0.00    +0.035 C 
BRANCH  15  12
ATOM     12  C   UNL     1      -3.710 -10.245   9.637  0.00  0.00    -0.009 C 
ATOM     13  C   UNL     1      -3.160  -9.813  11.002  0.00  0.00    +0.003 C 
ATOM     14  C   UNL     1      -4.525 -11.539   9.760  0.00  0.00    +0.003 C 
ATOM     16  C   UNL     1      -2.355 -10.930  11.664  0.00  0.00    +0.000 C 
ATOM     17  C   UNL     1      -3.718 -12.653  10.423  0.00  0.00    +0.000 C 
ATOM     18  C   UNL     1      -3.166 -12.217  11.778  0.00  0.00    +0.000 C 
ENDBRANCH  15  12
ENDBRANCH  19  15
ENDBRANCH   7  19
ENDBRANCH  20  23
TORSDOF 7
ENDMDL
MODEL 8
REMARK VINA RESULT:      -5.8     23.316     27.814
REMARK  Name = 45361701
REMARK  9 active torsions:
REMARK  status: ('A' for Active; 'I' for Inactive)
REMARK    1  A    between atoms: N_7  and  C_19
REMARK    2  A    between atoms: N_11  and  C_37
REMARK    3  A    between atoms: N_11  and  C_38
REMARK    4  A    between atoms: N_11  and  C_39
REMARK    5  A    between atoms: C_12  and  C_15
REMARK    6  A    between atoms: C_15  and  C_19
REMARK    7  A    between atoms: C_19  and  C_25
REMARK    8  A    between atoms: C_20  and  C_23
REMARK    9  A    between atoms: C_27  and  C_32
REMARK                            x       y       z     vdW  Elec       q    Type
REMARK                         _______ _______ _______ _____ _____    ______ ____
ROOT
ATOM      3  O   UNL     1       9.662 -12.620  39.660  0.00  0.00    -0.377 OA
ATOM      4  O   UNL     1       5.918 -10.156  38.894  0.00  0.00    -0.252 OA
ATOM      5  O   UNL     1       6.393  -3.803  36.709  0.00  0.00    -0.270 OA
ATOM      6  N   UNL     1       7.233  -8.306  38.477  0.00  0.00    -0.271 N 
ATOM      8  N   UNL     1       6.834  -5.500  38.254  0.00  0.00    -0.294 N 
ATOM      9  N   UNL     1       8.124 -10.264  39.534  0.00  0.00    -0.281 N 
ATOM     20  C   UNL     1       6.339  -7.779  37.435  0.00  0.00    +0.181 C 
ATOM     21  C   UNL     1       5.788  -6.390  37.753  0.00  0.00    +0.140 C 
ATOM     22  C   UNL     1       8.224  -7.363  39.030  0.00  0.00    +0.129 C 
ATOM     24  C   UNL     1       7.575  -6.033  39.399  0.00  0.00    +0.127 C 
ATOM     26  C   UNL     1       7.027  -9.609  38.961  0.00  0.00    +0.306 C 
ATOM     27  C   UNL     1       7.019  -4.245  37.671  0.00  0.00    +0.247 C 
ATOM     28  C   UNL     1       7.917 -11.241  40.602  0.00  0.00    +0.137 C 
ATOM     29  C   UNL     1       9.471 -10.300  38.951  0.00  0.00    +0.137 C 
ATOM     30  C   UNL     1       8.307 -12.631  40.121  0.00  0.00    +0.179 C 
ATOM     31  C   UNL     1       9.822 -11.732  38.552  0.00  0.00    +0.179 C 
ENDROOT
BRANCH  27  32
ATOM     32  C   UNL     1       8.057  -3.370  38.229  0.00  0.00    +0.037 A 
ATOM     33  C   UNL     1       9.372  -3.468  37.772  0.00  0.00    +0.015 A 
ATOM     34  C   UNL     1       7.731  -2.441  39.216  0.00  0.00    +0.015 A 
ATOM     35  C   UNL     1      10.359  -2.638  38.302  0.00  0.00    +0.024 A 
ATOM     36  C   UNL     1       8.717  -1.609  39.746  0.00  0.00    +0.024 A 
ATOM     37  C   UNL     1      10.032  -1.709  39.290  0.00  0.00    +0.029 A 
BRANCH  37  11
ATOM     11  N   UNL     1      11.028  -0.868  39.826  0.00  0.00    -0.336 N 
ATOM     38  C   UNL     1      12.379  -0.902  39.301  0.00  0.00    +0.129 C 
ATOM     39  C   UNL     1      10.718   0.037  40.915  0.00  0.00    +0.129 C 
ENDBRANCH  37  11
ENDBRANCH  27  32
BRANCH  20  23
ATOM      1  O   UNL     1       8.036  -8.606  35.970  0.00  0.00    -0.274 OA
ATOM      7  N   UNL     1       6.758  -6.780  35.297  0.00  0.00    -0.302 N 
ATOM     23  C   UNL     1       7.140  -7.788  36.165  0.00  0.00    +0.236 C 
ATOM     40  H   UNL     1       6.002  -6.157  35.564  0.00  0.00    +0.150 HD
BRANCH   7  19
ATOM     19  C   UNL     1       7.390  -6.559  34.017  0.00  0.00    +0.159 C 
BRANCH  19  25
ATOM      2  O   UNL     1       8.867  -4.629  33.996  0.00  0.00    -0.274 OA
ATOM     10  N   UNL     1       6.618  -4.290  33.675  0.00  0.00    -0.328 N 
ATOM     25  C   UNL     1       7.729  -5.079  33.889  0.00  0.00    +0.231 C 
ATOM     41  H   UNL     1       5.680  -4.674  33.610  0.00  0.00    +0.145 HD
ATOM     42  H   UNL     1       6.705  -3.284  33.580  0.00  0.00    +0.145 HD
ENDBRANCH  19  25
BRANCH  19  15
ATOM     15  C   UNL     1       6.536  -7.074  32.854  0.00  0.00    +0.035 C 
BRANCH  15  12
ATOM     12  C   UNL     1       7.028  -8.387  32.248  0.00  0.00    -0.009 C 
ATOM     13  C   UNL     1       6.447  -9.586  33.009  0.00  0.00    +0.003 C 
ATOM     14  C   UNL     1       6.675  -8.462  30.757  0.00  0.00    +0.003 C 
ATOM     16  C   UNL     1       6.884 -10.912  32.389  0.00  0.00    +0.000 C 
ATOM     17  C   UNL     1       7.111  -9.789  30.141  0.00  0.00    +0.000 C 
ATOM     18  C   UNL     1       6.538 -10.980  30.904  0.00  0.00    +0.000 C 
ENDBRANCH  15  12
ENDBRANCH  19  15
ENDBRANCH   7  19
ENDBRANCH  20  23
TORSDOF 7
ENDMDL
MODEL 9
REMARK VINA RESULT:      -5.8      3.893      7.441
REMARK  Name = 45361701
REMARK  9 active torsions:
REMARK  status: ('A' for Active; 'I' for Inactive)
REMARK    1  A    between atoms: N_7  and  C_19
REMARK    2  A    between atoms: N_11  and  C_37
REMARK    3  A    between atoms: N_11  and  C_38
REMARK    4  A    between atoms: N_11  and  C_39
REMARK    5  A    between atoms: C_12  and  C_15
REMARK    6  A    between atoms: C_15  and  C_19
REMARK    7  A    between atoms: C_19  and  C_25
REMARK    8  A    between atoms: C_20  and  C_23
REMARK    9  A    between atoms: C_27  and  C_32
REMARK                            x       y       z     vdW  Elec       q    Type
REMARK                         _______ _______ _______ _____ _____    ______ ____
ROOT
ATOM      3  O   UNL     1      -1.649 -11.695  14.099  0.00  0.00    -0.377 OA
ATOM      4  O   UNL     1      -3.638 -11.507  18.185  0.00  0.00    -0.252 OA
ATOM      5  O   UNL     1     -10.335 -11.039  18.710  0.00  0.00    -0.270 OA
ATOM      6  N   UNL     1      -5.676 -11.148  17.165  0.00  0.00    -0.271 N 
ATOM      8  N   UNL     1      -8.258 -10.269  17.969  0.00  0.00    -0.294 N 
ATOM      9  N   UNL     1      -3.616 -10.921  15.962  0.00  0.00    -0.281 N 
ATOM     20  C   UNL     1      -6.428 -11.919  18.167  0.00  0.00    +0.181 C 
ATOM     21  C   UNL     1      -7.487 -11.094  18.897  0.00  0.00    +0.140 C 
ATOM     22  C   UNL     1      -6.467 -10.255  16.296  0.00  0.00    +0.129 C 
ATOM     24  C   UNL     1      -7.438  -9.408  17.113  0.00  0.00    +0.127 C 
ATOM     26  C   UNL     1      -4.273 -11.214  17.163  0.00  0.00    +0.306 C 
ATOM     27  C   UNL     1      -9.653 -10.314  17.988  0.00  0.00    +0.247 C 
ATOM     28  C   UNL     1      -2.282 -10.322  15.983  0.00  0.00    +0.137 C 
ATOM     29  C   UNL     1      -4.008 -11.448  14.648  0.00  0.00    +0.137 C 
ATOM     30  C   UNL     1      -1.262 -11.298  15.419  0.00  0.00    +0.179 C 
ATOM     31  C   UNL     1      -2.911 -12.367  14.114  0.00  0.00    +0.179 C 
ENDROOT
BRANCH  27  32
ATOM     32  C   UNL     1     -10.386  -9.441  17.063  0.00  0.00    +0.037 A 
ATOM     33  C   UNL     1     -10.491  -8.075  17.329  0.00  0.00    +0.015 A 
ATOM     34  C   UNL     1     -10.978  -9.976  15.920  0.00  0.00    +0.015 A 
ATOM     35  C   UNL     1     -11.188  -7.245  16.452  0.00  0.00    +0.024 A 
ATOM     36  C   UNL     1     -11.675  -9.146  15.041  0.00  0.00    +0.024 A 
ATOM     37  C   UNL     1     -11.781  -7.781  15.308  0.00  0.00    +0.029 A 
BRANCH  37  11
ATOM     11  N   UNL     1     -12.486  -6.943  14.420  0.00  0.00    -0.336 N 
ATOM     38  C   UNL     1     -13.209  -7.506  13.296  0.00  0.00    +0.129 C 
ATOM     39  C   UNL     1     -12.491  -5.506  14.614  0.00  0.00    +0.129 C 
ENDBRANCH  37  11
ENDBRANCH  27  32
BRANCH  20  23
ATOM      1  O   UNL     1      -6.458 -13.606  16.475  0.00  0.00    -0.274 OA
ATOM      7  N   UNL     1      -8.269 -13.434  17.928  0.00  0.00    -0.302 N 
ATOM     23  C   UNL     1      -7.029 -13.077  17.426  0.00  0.00    +0.236 C 
ATOM     40  H   UNL     1      -8.649 -12.924  18.719  0.00  0.00    +0.150 HD
BRANCH   7  19
ATOM     19  C   UNL     1      -9.068 -14.504  17.375  0.00  0.00    +0.159 C 
BRANCH  19  25
ATOM      2  O   UNL     1     -11.324 -13.957  16.656  0.00  0.00    -0.274 OA
ATOM     10  N   UNL     1      -9.565 -13.316  15.326  0.00  0.00    -0.328 N 
ATOM     25  C   UNL     1     -10.115 -13.901  16.447  0.00  0.00    +0.231 C 
ATOM     41  H   UNL     1      -8.565 -13.296  15.155  0.00  0.00    +0.145 HD
ATOM     42  H   UNL     1     -10.155 -12.885  14.622  0.00  0.00    +0.145 HD
ENDBRANCH  19  25
BRANCH  19  15
ATOM     15  C   UNL     1      -9.680 -15.391  18.464  0.00  0.00    +0.035 C 
BRANCH  15  12
ATOM     12  C   UNL     1      -9.733 -14.741  19.845  0.00  0.00    -0.009 C 
ATOM     13  C   UNL     1     -11.153 -14.254  20.160  0.00  0.00    +0.003 C 
ATOM     14  C   UNL     1      -9.238 -15.716  20.922  0.00  0.00    +0.003 C 
ATOM     16  C   UNL     1     -11.244 -13.648  21.559  0.00  0.00    +0.000 C 
ATOM     17  C   UNL     1      -9.331 -15.107  22.319  0.00  0.00    +0.000 C 
ATOM     18  C   UNL     1     -10.743 -14.617  22.626  0.00  0.00    +0.000 C 
ENDBRANCH  15  12
ENDBRANCH  19  15
ENDBRANCH   7  19
ENDBRANCH  20  23
TORSDOF 7
ENDMDL
MODEL 10
REMARK VINA RESULT:      -5.8     28.942     30.625
REMARK  Name = 45361701
REMARK  9 active torsions:
REMARK  status: ('A' for Active; 'I' for Inactive)
REMARK    1  A    between atoms: N_7  and  C_19
REMARK    2  A    between atoms: N_11  and  C_37
REMARK    3  A    between atoms: N_11  and  C_38
REMARK    4  A    between atoms: N_11  and  C_39
REMARK    5  A    between atoms: C_12  and  C_15
REMARK    6  A    between atoms: C_15  and  C_19
REMARK    7  A    between atoms: C_19  and  C_25
REMARK    8  A    between atoms: C_20  and  C_23
REMARK    9  A    between atoms: C_27  and  C_32
REMARK                            x       y       z     vdW  Elec       q    Type
REMARK                         _______ _______ _______ _____ _____    ______ ____
ROOT
ATOM      3  O   UNL     1      10.175   6.804  21.604  0.00  0.00    -0.377 OA
ATOM      4  O   UNL     1      14.604   7.834  21.651  0.00  0.00    -0.252 OA
ATOM      5  O   UNL     1      16.789  13.657  19.067  0.00  0.00    -0.270 OA
ATOM      6  N   UNL     1      14.166   9.729  20.408  0.00  0.00    -0.271 N 
ATOM      8  N   UNL     1      15.683  11.605  18.905  0.00  0.00    -0.294 N 
ATOM      9  N   UNL     1      12.546   7.978  20.636  0.00  0.00    -0.281 N 
ATOM     20  C   UNL     1      15.202  10.531  21.078  0.00  0.00    +0.181 C 
ATOM     21  C   UNL     1      16.273  11.056  20.124  0.00  0.00    +0.140 C 
ATOM     22  C   UNL     1      13.648  10.260  19.133  0.00  0.00    +0.129 C 
ATOM     24  C   UNL     1      14.784  10.682  18.208  0.00  0.00    +0.127 C 
ATOM     26  C   UNL     1      13.817   8.478  20.944  0.00  0.00    +0.306 C 
ATOM     27  C   UNL     1      16.032  12.887  18.477  0.00  0.00    +0.247 C 
ATOM     28  C   UNL     1      12.329   6.535  20.544  0.00  0.00    +0.137 C 
ATOM     29  C   UNL     1      11.305   8.761  20.699  0.00  0.00    +0.137 C 
ATOM     30  C   UNL     1      11.404   6.073  21.660  0.00  0.00    +0.179 C 
ATOM     31  C   UNL     1      10.398   8.203  21.794  0.00  0.00    +0.179 C 
ENDROOT
BRANCH  27  32
ATOM     32  C   UNL     1      15.443  13.384  17.228  0.00  0.00    +0.037 A 
ATOM     33  C   UNL     1      14.229  14.073  17.255  0.00  0.00    +0.015 A 
ATOM     34  C   UNL     1      16.095  13.168  16.014  0.00  0.00    +0.015 A 
ATOM     35  C   UNL     1      13.668  14.544  16.068  0.00  0.00    +0.024 A 
ATOM     36  C   UNL     1      15.535  13.640  14.827  0.00  0.00    +0.024 A 
ATOM     37  C   UNL     1      14.320  14.327  14.854  0.00  0.00    +0.029 A 
BRANCH  37  11
ATOM     11  N   UNL     1      13.755  14.804  13.654  0.00  0.00    -0.336 N 
ATOM     38  C   UNL     1      12.370  14.523  13.332  0.00  0.00    +0.129 C 
ATOM     39  C   UNL     1      14.553  15.576  12.722  0.00  0.00    +0.129 C 
ENDBRANCH  37  11
ENDBRANCH  27  32
BRANCH  20  23
ATOM      1  O   UNL     1      14.273  12.727  21.228  0.00  0.00    -0.274 OA
ATOM      7  N   UNL     1      14.093  11.300  23.059  0.00  0.00    -0.302 N 
ATOM     23  C   UNL     1      14.472  11.644  21.772  0.00  0.00    +0.236 C 
ATOM     40  H   UNL     1      14.313  10.373  23.409  0.00  0.00    +0.150 HD
BRANCH   7  19
ATOM     19  C   UNL     1      13.398  12.204  23.946  0.00  0.00    +0.159 C 
BRANCH  19  25
ATOM      2  O   UNL     1      13.308  12.426  26.364  0.00  0.00    -0.274 OA
ATOM     10  N   UNL     1      14.880  11.023  25.450  0.00  0.00    -0.328 N 
ATOM     25  C   UNL     1      13.826  11.908  25.378  0.00  0.00    +0.231 C 
ATOM     41  H   UNL     1      15.312  10.619  24.625  0.00  0.00    +0.145 HD
ATOM     42  H   UNL     1      15.267  10.748  26.347  0.00  0.00    +0.145 HD
ENDBRANCH  19  25
BRANCH  19  15
ATOM     15  C   UNL     1      11.878  12.145  23.756  0.00  0.00    +0.035 C 
BRANCH  15  12
ATOM     12  C   UNL     1      11.253  13.460  23.296  0.00  0.00    -0.009 C 
ATOM     13  C   UNL     1      10.712  13.332  21.866  0.00  0.00    +0.003 C 
ATOM     14  C   UNL     1      10.146  13.901  24.263  0.00  0.00    +0.003 C 
ATOM     16  C   UNL     1      10.033  14.620  21.403  0.00  0.00    +0.000 C 
ATOM     17  C   UNL     1       9.469  15.188  23.796  0.00  0.00    +0.000 C 
ATOM     18  C   UNL     1       8.939  15.059  22.371  0.00  0.00    +0.000 C 
ENDBRANCH  15  12
ENDBRANCH  19  15
ENDBRANCH   7  19
ENDBRANCH  20  23
TORSDOF 7
ENDMDL
