MODEL 1
REMARK VINA RESULT:      -6.8      0.000      0.000
REMARK  Name = 45360622
REMARK  11 active torsions:
REMARK  status: ('A' for Active; 'I' for Inactive)
REMARK    1  A    between atoms: O_4  and  C_27
REMARK    2  A    between atoms: N_7  and  C_10
REMARK    3  A    between atoms: N_7  and  C_18
REMARK    4  A    between atoms: N_8  and  C_22
REMARK    5  A    between atoms: C_11  and  C_16
REMARK    6  A    between atoms: C_16  and  C_17
REMARK    7  A    between atoms: C_17  and  C_19
REMARK    8  A    between atoms: C_18  and  C_20
REMARK    9  A    between atoms: C_22  and  C_25
REMARK   10  A    between atoms: C_22  and  C_26
REMARK   11  A    between atoms: C_23  and  C_27
REMARK                            x       y       z     vdW  Elec       q    Type
REMARK                         _______ _______ _______ _____ _____    ______ ____
ROOT
ATOM      1  O   UNL     1      12.174   6.591  19.029  0.00  0.00    -0.274 OA
ATOM      5  N   UNL     1      13.054   9.744  20.643  0.00  0.00    -0.286 NA
ATOM      6  N   UNL     1      10.987   7.852  20.503  0.00  0.00    -0.313 N 
ATOM      9  C   UNL     1      13.146   8.709  19.606  0.00  0.00    +0.145 C 
ATOM     10  C   UNL     1      15.142   8.853  20.980  0.00  0.00    +0.070 C 
ATOM     11  C   UNL     1      11.692  10.157  20.963  0.00  0.00    +0.075 C 
ATOM     12  C   UNL     1      14.549   8.109  19.782  0.00  0.00    +0.048 C 
ATOM     13  C   UNL     1      13.916   9.326  21.747  0.00  0.00    +0.104 C 
ATOM     14  C   UNL     1      10.858   8.968  21.413  0.00  0.00    +0.123 C 
ATOM     15  C   UNL     1      12.080   7.621  19.704  0.00  0.00    +0.230 C 
ATOM     28  H   UNL     1      10.274   7.130  20.544  0.00  0.00    +0.149 HD
ENDROOT
BRANCH  10   7
ATOM      7  N   UNL     1      16.041   8.030  21.773  0.00  0.00    -0.305 NA
ATOM     29  H   UNL     1      15.914   8.253  22.762  0.00  0.00    +0.123 HD
BRANCH   7  18
ATOM     18  C   UNL     1      17.432   8.275  21.412  0.00  0.00    +0.156 C 
BRANCH  18  20
ATOM      2  O   UNL     1      19.309   6.749  21.155  0.00  0.00    -0.461 OA
ATOM     20  C   UNL     1      18.057   7.080  20.744  0.00  0.00    +0.119 A 
ATOM     21  C   UNL     1      17.622   6.213  19.769  0.00  0.00    +0.046 A 
ATOM     23  C   UNL     1      19.678   5.656  20.434  0.00  0.00    +0.131 A 
ATOM     24  C   UNL     1      18.676   5.289  19.568  0.00  0.00    +0.047 A 
BRANCH  23  27
ATOM     27  C   UNL     1      21.015   5.114  20.714  0.00  0.00    +0.230 C 
BRANCH  27   4
ATOM      4  O   UNL     1      21.017   3.694  20.547  0.00  0.00    -0.387 OA
ATOM     31  H   UNL     1      20.470   3.500  19.766  0.00  0.00    +0.210 HD
ENDBRANCH  27   4
ENDBRANCH  23  27
ENDBRANCH  18  20
ENDBRANCH   7  18
ENDBRANCH  10   7
BRANCH  11  16
ATOM     16  C   UNL     1      11.640  11.286  21.993  0.00  0.00    +0.029 C 
BRANCH  16  17
ATOM     17  C   UNL     1      10.947  10.834  23.272  0.00  0.00    +0.097 C 
BRANCH  17  19
ATOM      3  O   UNL     1      10.647  11.955  25.396  0.00  0.00    -0.276 OA
ATOM      8  N   UNL     1      10.184  13.108  23.435  0.00  0.00    -0.313 N 
ATOM     19  C   UNL     1      10.586  12.002  24.170  0.00  0.00    +0.213 C 
ATOM     30  H   UNL     1      10.224  13.070  22.420  0.00  0.00    +0.149 HD
BRANCH   8  22
ATOM     22  C   UNL     1       9.788  14.347  24.061  0.00  0.00    +0.067 C 
ATOM     25  C   UNL     1      11.013  15.154  24.473  0.00  0.00    +0.027 C 
ATOM     26  C   UNL     1       8.889  15.147  23.127  0.00  0.00    +0.027 C 
ENDBRANCH   8  22
ENDBRANCH  17  19
ENDBRANCH  16  17
ENDBRANCH  11  16
TORSDOF 9
ENDMDL
MODEL 2
REMARK VINA RESULT:      -6.6      1.858      2.351
REMARK  Name = 45360622
REMARK  11 active torsions:
REMARK  status: ('A' for Active; 'I' for Inactive)
REMARK    1  A    between atoms: O_4  and  C_27
REMARK    2  A    between atoms: N_7  and  C_10
REMARK    3  A    between atoms: N_7  and  C_18
REMARK    4  A    between atoms: N_8  and  C_22
REMARK    5  A    between atoms: C_11  and  C_16
REMARK    6  A    between atoms: C_16  and  C_17
REMARK    7  A    between atoms: C_17  and  C_19
REMARK    8  A    between atoms: C_18  and  C_20
REMARK    9  A    between atoms: C_22  and  C_25
REMARK   10  A    between atoms: C_22  and  C_26
REMARK   11  A    between atoms: C_23  and  C_27
REMARK                            x       y       z     vdW  Elec       q    Type
REMARK                         _______ _______ _______ _____ _____    ______ ____
ROOT
ATOM      1  O   UNL     1      11.131   5.537  20.925  0.00  0.00    -0.274 OA
ATOM      5  N   UNL     1      12.464   8.934  21.021  0.00  0.00    -0.286 NA
ATOM      6  N   UNL     1      10.388   7.361  22.063  0.00  0.00    -0.313 N 
ATOM      9  C   UNL     1      12.265   7.598  20.444  0.00  0.00    +0.145 C 
ATOM     10  C   UNL     1      14.548   7.985  21.173  0.00  0.00    +0.070 C 
ATOM     11  C   UNL     1      11.238   9.584  21.470  0.00  0.00    +0.075 C 
ATOM     12  C   UNL     1      13.654   6.943  20.501  0.00  0.00    +0.048 C 
ATOM     13  C   UNL     1      13.569   8.833  21.971  0.00  0.00    +0.104 C 
ATOM     14  C   UNL     1      10.520   8.730  22.503  0.00  0.00    +0.123 C 
ATOM     15  C   UNL     1      11.236   6.742  21.177  0.00  0.00    +0.230 C 
ATOM     28  H   UNL     1       9.693   6.784  22.528  0.00  0.00    +0.149 HD
ENDROOT
BRANCH  10   7
ATOM      7  N   UNL     1      15.601   7.396  21.984  0.00  0.00    -0.305 NA
ATOM     29  H   UNL     1      16.166   8.141  22.393  0.00  0.00    +0.123 HD
BRANCH   7  18
ATOM     18  C   UNL     1      16.466   6.541  21.180  0.00  0.00    +0.156 C 
BRANCH  18  20
ATOM      2  O   UNL     1      18.838   6.100  20.860  0.00  0.00    -0.461 OA
ATOM     20  C   UNL     1      17.894   7.020  21.189  0.00  0.00    +0.119 A 
ATOM     21  C   UNL     1      18.477   8.234  21.467  0.00  0.00    +0.046 A 
ATOM     23  C   UNL     1      20.039   6.734  20.929  0.00  0.00    +0.131 A 
ATOM     24  C   UNL     1      19.870   8.048  21.299  0.00  0.00    +0.047 A 
BRANCH  23  27
ATOM     27  C   UNL     1      21.221   5.923  20.609  0.00  0.00    +0.230 C 
BRANCH  27   4
ATOM      4  O   UNL     1      20.844   4.779  19.838  0.00  0.00    -0.387 OA
ATOM     31  H   UNL     1      20.571   5.106  18.964  0.00  0.00    +0.210 HD
ENDBRANCH  27   4
ENDBRANCH  23  27
ENDBRANCH  18  20
ENDBRANCH   7  18
ENDBRANCH  10   7
BRANCH  11  16
ATOM     16  C   UNL     1      11.476  11.001  21.996  0.00  0.00    +0.029 C 
BRANCH  16  17
ATOM     17  C   UNL     1      10.926  11.163  23.407  0.00  0.00    +0.097 C 
BRANCH  17  19
ATOM      3  O   UNL     1      11.791  11.834  25.566  0.00  0.00    -0.276 OA
ATOM      8  N   UNL     1      13.043  12.273  23.662  0.00  0.00    -0.313 N 
ATOM     19  C   UNL     1      11.943  11.782  24.349  0.00  0.00    +0.213 C 
ATOM     30  H   UNL     1      13.106  12.130  22.658  0.00  0.00    +0.149 HD
BRANCH   8  22
ATOM     22  C   UNL     1      14.150  12.911  24.335  0.00  0.00    +0.067 C 
ATOM     25  C   UNL     1      15.232  11.892  24.670  0.00  0.00    +0.027 C 
ATOM     26  C   UNL     1      14.705  14.045  23.481  0.00  0.00    +0.027 C 
ENDBRANCH   8  22
ENDBRANCH  17  19
ENDBRANCH  16  17
ENDBRANCH  11  16
TORSDOF 9
ENDMDL
MODEL 3
REMARK VINA RESULT:      -6.4     27.555     29.781
REMARK  Name = 45360622
REMARK  11 active torsions:
REMARK  status: ('A' for Active; 'I' for Inactive)
REMARK    1  A    between atoms: O_4  and  C_27
REMARK    2  A    between atoms: N_7  and  C_10
REMARK    3  A    between atoms: N_7  and  C_18
REMARK    4  A    between atoms: N_8  and  C_22
REMARK    5  A    between atoms: C_11  and  C_16
REMARK    6  A    between atoms: C_16  and  C_17
REMARK    7  A    between atoms: C_17  and  C_19
REMARK    8  A    between atoms: C_18  and  C_20
REMARK    9  A    between atoms: C_22  and  C_25
REMARK   10  A    between atoms: C_22  and  C_26
REMARK   11  A    between atoms: C_23  and  C_27
REMARK                            x       y       z     vdW  Elec       q    Type
REMARK                         _______ _______ _______ _____ _____    ______ ____
ROOT
ATOM      1  O   UNL     1      -4.796 -12.852  18.573  0.00  0.00    -0.274 OA
ATOM      5  N   UNL     1      -4.061 -11.258  15.373  0.00  0.00    -0.286 NA
ATOM      6  N   UNL     1      -4.472 -13.783  16.523  0.00  0.00    -0.313 N 
ATOM      9  C   UNL     1      -4.114 -11.340  16.838  0.00  0.00    +0.145 C 
ATOM     10  C   UNL     1      -5.642  -9.689  15.925  0.00  0.00    +0.070 C 
ATOM     11  C   UNL     1      -3.491 -12.434  14.725  0.00  0.00    +0.075 C 
ATOM     12  C   UNL     1      -5.144 -10.276  17.247  0.00  0.00    +0.048 C 
ATOM     13  C   UNL     1      -5.372 -10.798  14.919  0.00  0.00    +0.104 C 
ATOM     14  C   UNL     1      -4.269 -13.686  15.096  0.00  0.00    +0.123 C 
ATOM     15  C   UNL     1      -4.511 -12.710  17.380  0.00  0.00    +0.230 C 
ATOM     28  H   UNL     1      -4.718 -14.694  16.901  0.00  0.00    +0.149 HD
ENDROOT
BRANCH  10   7
ATOM      7  N   UNL     1      -7.036  -9.276  15.973  0.00  0.00    -0.305 NA
ATOM     29  H   UNL     1      -7.108  -8.305  15.668  0.00  0.00    +0.123 HD
BRANCH   7  18
ATOM     18  C   UNL     1      -7.568  -9.383  17.326  0.00  0.00    +0.156 C 
BRANCH  18  20
ATOM      2  O   UNL     1      -9.388  -7.889  16.716  0.00  0.00    -0.461 OA
ATOM     20  C   UNL     1      -9.025  -9.013  17.387  0.00  0.00    +0.119 A 
ATOM     21  C   UNL     1     -10.116  -9.586  17.998  0.00  0.00    +0.046 A 
ATOM     23  C   UNL     1     -10.728  -7.743  16.900  0.00  0.00    +0.131 A 
ATOM     24  C   UNL     1     -11.222  -8.760  17.681  0.00  0.00    +0.047 A 
BRANCH  23  27
ATOM     27  C   UNL     1     -11.349  -6.577  16.255  0.00  0.00    +0.230 C 
BRANCH  27   4
ATOM      4  O   UNL     1     -10.346  -5.747  15.663  0.00  0.00    -0.387 OA
ATOM     31  H   UNL     1     -10.735  -5.364  14.858  0.00  0.00    +0.210 HD
ENDBRANCH  27   4
ENDBRANCH  23  27
ENDBRANCH  18  20
ENDBRANCH   7  18
ENDBRANCH  10   7
BRANCH  11  16
ATOM     16  C   UNL     1      -3.385 -12.282  13.206  0.00  0.00    +0.029 C 
BRANCH  16  17
ATOM     17  C   UNL     1      -2.072 -11.621  12.808  0.00  0.00    +0.097 C 
BRANCH  17  19
ATOM      3  O   UNL     1      -1.376  -9.692  11.523  0.00  0.00    -0.276 OA
ATOM      8  N   UNL     1      -3.625 -10.264  11.574  0.00  0.00    -0.313 N 
ATOM     19  C   UNL     1      -2.287 -10.422  11.904  0.00  0.00    +0.213 C 
ATOM     30  H   UNL     1      -4.300 -10.955  11.890  0.00  0.00    +0.149 HD
BRANCH   8  22
ATOM     22  C   UNL     1      -4.088  -9.192  10.724  0.00  0.00    +0.067 C 
ATOM     25  C   UNL     1      -4.100  -9.633   9.265  0.00  0.00    +0.027 C 
ATOM     26  C   UNL     1      -5.467  -8.721  11.170  0.00  0.00    +0.027 C 
ENDBRANCH   8  22
ENDBRANCH  17  19
ENDBRANCH  16  17
ENDBRANCH  11  16
TORSDOF 9
ENDMDL
MODEL 4
REMARK VINA RESULT:      -6.1      1.652      2.056
REMARK  Name = 45360622
REMARK  11 active torsions:
REMARK  status: ('A' for Active; 'I' for Inactive)
REMARK    1  A    between atoms: O_4  and  C_27
REMARK    2  A    between atoms: N_7  and  C_10
REMARK    3  A    between atoms: N_7  and  C_18
REMARK    4  A    between atoms: N_8  and  C_22
REMARK    5  A    between atoms: C_11  and  C_16
REMARK    6  A    between atoms: C_16  and  C_17
REMARK    7  A    between atoms: C_17  and  C_19
REMARK    8  A    between atoms: C_18  and  C_20
REMARK    9  A    between atoms: C_22  and  C_25
REMARK   10  A    between atoms: C_22  and  C_26
REMARK   11  A    between atoms: C_23  and  C_27
REMARK                            x       y       z     vdW  Elec       q    Type
REMARK                         _______ _______ _______ _____ _____    ______ ____
ROOT
ATOM      1  O   UNL     1      11.153   6.401  20.588  0.00  0.00    -0.274 OA
ATOM      5  N   UNL     1      11.926   9.962  20.375  0.00  0.00    -0.286 NA
ATOM      6  N   UNL     1      11.207   7.978  22.225  0.00  0.00    -0.313 N 
ATOM      9  C   UNL     1      11.505   8.657  19.848  0.00  0.00    +0.145 C 
ATOM     10  C   UNL     1      13.653   9.383  18.979  0.00  0.00    +0.070 C 
ATOM     11  C   UNL     1      11.260  10.353  21.613  0.00  0.00    +0.075 C 
ATOM     12  C   UNL     1      12.628   8.252  18.881  0.00  0.00    +0.048 C 
ATOM     13  C   UNL     1      13.387   9.986  20.350  0.00  0.00    +0.104 C 
ATOM     14  C   UNL     1      11.485   9.314  22.700  0.00  0.00    +0.123 C 
ATOM     15  C   UNL     1      11.298   7.583  20.912  0.00  0.00    +0.230 C 
ATOM     28  H   UNL     1      11.048   7.256  22.922  0.00  0.00    +0.149 HD
ENDROOT
BRANCH  10   7
ATOM      7  N   UNL     1      15.022   8.929  18.800  0.00  0.00    -0.305 NA
ATOM     29  H   UNL     1      15.021   8.062  18.261  0.00  0.00    +0.123 HD
BRANCH   7  18
ATOM     18  C   UNL     1      15.663   8.679  20.085  0.00  0.00    +0.156 C 
BRANCH  18  20
ATOM      2  O   UNL     1      17.762   7.673  20.796  0.00  0.00    -0.461 OA
ATOM     20  C   UNL     1      16.663   7.557  20.006  0.00  0.00    +0.119 A 
ATOM     21  C   UNL     1      16.711   6.390  19.279  0.00  0.00    +0.046 A 
ATOM     23  C   UNL     1      18.521   6.568  20.572  0.00  0.00    +0.131 A 
ATOM     24  C   UNL     1      17.919   5.748  19.646  0.00  0.00    +0.047 A 
BRANCH  23  27
ATOM     27  C   UNL     1      19.776   6.476  21.330  0.00  0.00    +0.230 C 
BRANCH  27   4
ATOM      4  O   UNL     1      20.878   6.883  20.514  0.00  0.00    -0.387 OA
ATOM     31  H   UNL     1      21.524   7.310  21.103  0.00  0.00    +0.210 HD
ENDBRANCH  27   4
ENDBRANCH  23  27
ENDBRANCH  18  20
ENDBRANCH   7  18
ENDBRANCH  10   7
BRANCH  11  16
ATOM     16  C   UNL     1      11.670  11.747  22.092  0.00  0.00    +0.029 C 
BRANCH  16  17
ATOM     17  C   UNL     1      10.811  12.201  23.264  0.00  0.00    +0.097 C 
BRANCH  17  19
ATOM      3  O   UNL     1      11.080  14.524  23.890  0.00  0.00    -0.276 OA
ATOM      8  N   UNL     1       9.494  13.961  22.291  0.00  0.00    -0.313 N 
ATOM     19  C   UNL     1      10.501  13.686  23.204  0.00  0.00    +0.213 C 
ATOM     30  H   UNL     1       9.116  13.206  21.726  0.00  0.00    +0.149 HD
BRANCH   8  22
ATOM     22  C   UNL     1       9.016  15.303  22.052  0.00  0.00    +0.067 C 
ATOM     25  C   UNL     1       8.749  15.518  20.567  0.00  0.00    +0.027 C 
ATOM     26  C   UNL     1       7.769  15.577  22.882  0.00  0.00    +0.027 C 
ENDBRANCH   8  22
ENDBRANCH  17  19
ENDBRANCH  16  17
ENDBRANCH  11  16
TORSDOF 9
ENDMDL
MODEL 5
REMARK VINA RESULT:      -6.1     17.556     20.700
REMARK  Name = 45360622
REMARK  11 active torsions:
REMARK  status: ('A' for Active; 'I' for Inactive)
REMARK    1  A    between atoms: O_4  and  C_27
REMARK    2  A    between atoms: N_7  and  C_10
REMARK    3  A    between atoms: N_7  and  C_18
REMARK    4  A    between atoms: N_8  and  C_22
REMARK    5  A    between atoms: C_11  and  C_16
REMARK    6  A    between atoms: C_16  and  C_17
REMARK    7  A    between atoms: C_17  and  C_19
REMARK    8  A    between atoms: C_18  and  C_20
REMARK    9  A    between atoms: C_22  and  C_25
REMARK   10  A    between atoms: C_22  and  C_26
REMARK   11  A    between atoms: C_23  and  C_27
REMARK                            x       y       z     vdW  Elec       q    Type
REMARK                         _______ _______ _______ _____ _____    ______ ____
ROOT
ATOM      1  O   UNL     1      15.222   6.695   3.195  0.00  0.00    -0.274 OA
ATOM      5  N   UNL     1      12.580   4.927   1.402  0.00  0.00    -0.286 NA
ATOM      6  N   UNL     1      15.281   4.689   2.123  0.00  0.00    -0.313 N 
ATOM      9  C   UNL     1      13.238   6.106   1.978  0.00  0.00    +0.145 C 
ATOM     10  C   UNL     1      11.181   5.516   3.123  0.00  0.00    +0.070 C 
ATOM     11  C   UNL     1      13.456   4.080   0.601  0.00  0.00    +0.075 C 
ATOM     12  C   UNL     1      12.309   6.548   3.118  0.00  0.00    +0.048 C 
ATOM     13  C   UNL     1      11.814   4.294   2.473  0.00  0.00    +0.104 C 
ATOM     14  C   UNL     1      14.643   3.600   1.422  0.00  0.00    +0.123 C 
ATOM     15  C   UNL     1      14.648   5.849   2.502  0.00  0.00    +0.230 C 
ATOM     28  H   UNL     1      16.227   4.540   2.461  0.00  0.00    +0.149 HD
ENDROOT
BRANCH  10   7
ATOM      7  N   UNL     1      10.650   5.257   4.451  0.00  0.00    -0.305 NA
ATOM     29  H   UNL     1       9.633   5.347   4.429  0.00  0.00    +0.123 HD
BRANCH   7  18
ATOM     18  C   UNL     1      11.183   6.203   5.423  0.00  0.00    +0.156 C 
BRANCH  18  20
ATOM      2  O   UNL     1      10.362   5.123   7.443  0.00  0.00    -0.461 OA
ATOM     20  C   UNL     1      10.354   6.246   6.678  0.00  0.00    +0.119 A 
ATOM     21  C   UNL     1       9.557   7.213   7.247  0.00  0.00    +0.046 A 
ATOM     23  C   UNL     1       9.561   5.376   8.512  0.00  0.00    +0.131 A 
ATOM     24  C   UNL     1       9.042   6.647   8.438  0.00  0.00    +0.047 A 
BRANCH  23  27
ATOM     27  C   UNL     1       9.418   4.287   9.489  0.00  0.00    +0.230 C 
BRANCH  27   4
ATOM      4  O   UNL     1       8.589   4.703  10.576  0.00  0.00    -0.387 OA
ATOM     31  H   UNL     1       8.763   5.650  10.718  0.00  0.00    +0.210 HD
ENDBRANCH  27   4
ENDBRANCH  23  27
ENDBRANCH  18  20
ENDBRANCH   7  18
ENDBRANCH  10   7
BRANCH  11  16
ATOM     16  C   UNL     1      12.720   2.903  -0.042  0.00  0.00    +0.029 C 
BRANCH  16  17
ATOM     17  C   UNL     1      12.457   3.158  -1.520  0.00  0.00    +0.097 C 
BRANCH  17  19
ATOM      3  O   UNL     1      10.168   3.221  -2.305  0.00  0.00    -0.276 OA
ATOM      8  N   UNL     1      11.064   5.103  -1.282  0.00  0.00    -0.313 N 
ATOM     19  C   UNL     1      11.103   3.800  -1.757  0.00  0.00    +0.213 C 
ATOM     30  H   UNL     1      11.871   5.475  -0.789  0.00  0.00    +0.149 HD
BRANCH   8  22
ATOM     22  C   UNL     1       9.885   5.928  -1.391  0.00  0.00    +0.067 C 
ATOM     25  C   UNL     1       9.793   6.887  -0.210  0.00  0.00    +0.027 C 
ATOM     26  C   UNL     1       9.886   6.682  -2.715  0.00  0.00    +0.027 C 
ENDBRANCH   8  22
ENDBRANCH  17  19
ENDBRANCH  16  17
ENDBRANCH  11  16
TORSDOF 9
ENDMDL
MODEL 6
REMARK VINA RESULT:      -6.1      2.556      3.435
REMARK  Name = 45360622
REMARK  11 active torsions:
REMARK  status: ('A' for Active; 'I' for Inactive)
REMARK    1  A    between atoms: O_4  and  C_27
REMARK    2  A    between atoms: N_7  and  C_10
REMARK    3  A    between atoms: N_7  and  C_18
REMARK    4  A    between atoms: N_8  and  C_22
REMARK    5  A    between atoms: C_11  and  C_16
REMARK    6  A    between atoms: C_16  and  C_17
REMARK    7  A    between atoms: C_17  and  C_19
REMARK    8  A    between atoms: C_18  and  C_20
REMARK    9  A    between atoms: C_22  and  C_25
REMARK   10  A    between atoms: C_22  and  C_26
REMARK   11  A    between atoms: C_23  and  C_27
REMARK                            x       y       z     vdW  Elec       q    Type
REMARK                         _______ _______ _______ _____ _____    ______ ____
ROOT
ATOM      1  O   UNL     1      10.936   5.917  21.290  0.00  0.00    -0.274 OA
ATOM      5  N   UNL     1      12.128   9.142  20.066  0.00  0.00    -0.286 NA
ATOM      6  N   UNL     1      11.107   7.911  22.371  0.00  0.00    -0.313 N 
ATOM      9  C   UNL     1      11.579   7.787  19.929  0.00  0.00    +0.145 C 
ATOM     10  C   UNL     1      13.830   7.992  19.043  0.00  0.00    +0.070 C 
ATOM     11  C   UNL     1      11.463   9.962  21.073  0.00  0.00    +0.075 C 
ATOM     12  C   UNL     1      12.685   6.993  19.217  0.00  0.00    +0.048 C 
ATOM     13  C   UNL     1      13.581   9.013  20.143  0.00  0.00    +0.104 C 
ATOM     14  C   UNL     1      11.520   9.293  22.437  0.00  0.00    +0.123 C 
ATOM     15  C   UNL     1      11.205   7.121  21.250  0.00  0.00    +0.230 C 
ATOM     28  H   UNL     1      10.837   7.459  23.240  0.00  0.00    +0.149 HD
ENDROOT
BRANCH  10   7
ATOM      7  N   UNL     1      15.144   7.372  19.114  0.00  0.00    -0.305 NA
ATOM     29  H   UNL     1      15.033   6.364  19.228  0.00  0.00    +0.123 HD
BRANCH   7  18
ATOM     18  C   UNL     1      15.908   7.890  20.242  0.00  0.00    +0.156 C 
BRANCH  18  20
ATOM      2  O   UNL     1      17.906   7.439  21.555  0.00  0.00    -0.461 OA
ATOM     20  C   UNL     1      17.206   7.151  20.427  0.00  0.00    +0.119 A 
ATOM     21  C   UNL     1      17.866   6.207  19.676  0.00  0.00    +0.046 A 
ATOM     23  C   UNL     1      19.027   6.671  21.524  0.00  0.00    +0.131 A 
ATOM     24  C   UNL     1      19.050   5.896  20.388  0.00  0.00    +0.047 A 
BRANCH  23  27
ATOM     27  C   UNL     1      19.947   6.818  22.660  0.00  0.00    +0.230 C 
BRANCH  27   4
ATOM      4  O   UNL     1      19.597   7.967  23.435  0.00  0.00    -0.387 OA
ATOM     31  H   UNL     1      18.773   8.321  23.059  0.00  0.00    +0.210 HD
ENDBRANCH  27   4
ENDBRANCH  23  27
ENDBRANCH  18  20
ENDBRANCH   7  18
ENDBRANCH  10   7
BRANCH  11  16
ATOM     16  C   UNL     1      12.013  11.388  21.136  0.00  0.00    +0.029 C 
BRANCH  16  17
ATOM     17  C   UNL     1      12.466  11.742  22.546  0.00  0.00    +0.097 C 
BRANCH  17  19
ATOM      3  O   UNL     1      14.156  13.233  23.429  0.00  0.00    -0.276 OA
ATOM      8  N   UNL     1      14.586  12.076  21.463  0.00  0.00    -0.313 N 
ATOM     19  C   UNL     1      13.812  12.442  22.555  0.00  0.00    +0.213 C 
ATOM     30  H   UNL     1      14.238  11.366  20.824  0.00  0.00    +0.149 HD
BRANCH   8  22
ATOM     22  C   UNL     1      15.911  12.607  21.244  0.00  0.00    +0.067 C 
ATOM     25  C   UNL     1      16.836  11.527  20.696  0.00  0.00    +0.027 C 
ATOM     26  C   UNL     1      15.851  13.809  20.310  0.00  0.00    +0.027 C 
ENDBRANCH   8  22
ENDBRANCH  17  19
ENDBRANCH  16  17
ENDBRANCH  11  16
TORSDOF 9
ENDMDL
MODEL 7
REMARK VINA RESULT:      -6.0     27.617     29.495
REMARK  Name = 45360622
REMARK  11 active torsions:
REMARK  status: ('A' for Active; 'I' for Inactive)
REMARK    1  A    between atoms: O_4  and  C_27
REMARK    2  A    between atoms: N_7  and  C_10
REMARK    3  A    between atoms: N_7  and  C_18
REMARK    4  A    between atoms: N_8  and  C_22
REMARK    5  A    between atoms: C_11  and  C_16
REMARK    6  A    between atoms: C_16  and  C_17
REMARK    7  A    between atoms: C_17  and  C_19
REMARK    8  A    between atoms: C_18  and  C_20
REMARK    9  A    between atoms: C_22  and  C_25
REMARK   10  A    between atoms: C_22  and  C_26
REMARK   11  A    between atoms: C_23  and  C_27
REMARK                            x       y       z     vdW  Elec       q    Type
REMARK                         _______ _______ _______ _____ _____    ______ ____
ROOT
ATOM      1  O   UNL     1      -1.736 -14.251  13.004  0.00  0.00    -0.274 OA
ATOM      5  N   UNL     1      -2.709 -10.743  12.744  0.00  0.00    -0.286 NA
ATOM      6  N   UNL     1      -3.205 -13.250  11.585  0.00  0.00    -0.313 N 
ATOM      9  C   UNL     1      -1.828 -11.855  13.121  0.00  0.00    +0.145 C 
ATOM     10  C   UNL     1      -2.792 -10.719  15.037  0.00  0.00    +0.070 C 
ATOM     11  C   UNL     1      -3.204 -10.806  11.373  0.00  0.00    +0.075 C 
ATOM     12  C   UNL     1      -1.834 -11.849  14.657  0.00  0.00    +0.048 C 
ATOM     13  C   UNL     1      -3.690 -10.588  13.816  0.00  0.00    +0.104 C 
ATOM     14  C   UNL     1      -3.957 -12.104  11.129  0.00  0.00    +0.123 C 
ATOM     15  C   UNL     1      -2.265 -13.216  12.587  0.00  0.00    +0.230 C 
ATOM     28  H   UNL     1      -3.472 -14.161  11.224  0.00  0.00    +0.149 HD
ENDROOT
BRANCH  10   7
ATOM      7  N   UNL     1      -3.521 -10.978  16.268  0.00  0.00    -0.305 NA
ATOM     29  H   UNL     1      -3.620 -11.987  16.393  0.00  0.00    +0.123 HD
BRANCH   7  18
ATOM     18  C   UNL     1      -4.848 -10.379  16.227  0.00  0.00    +0.156 C 
BRANCH  18  20
ATOM      2  O   UNL     1      -6.953 -10.538  17.437  0.00  0.00    -0.461 OA
ATOM     20  C   UNL     1      -5.598 -10.586  17.516  0.00  0.00    +0.119 A 
ATOM     21  C   UNL     1      -5.196 -10.823  18.810  0.00  0.00    +0.046 A 
ATOM     23  C   UNL     1      -7.423 -10.748  18.696  0.00  0.00    +0.131 A 
ATOM     24  C   UNL     1      -6.382 -10.928  19.576  0.00  0.00    +0.047 A 
BRANCH  23  27
ATOM     27  C   UNL     1      -8.884 -10.740  18.854  0.00  0.00    +0.230 C 
BRANCH  27   4
ATOM      4  O   UNL     1      -9.233 -10.448  20.210  0.00  0.00    -0.387 OA
ATOM     31  H   UNL     1      -8.415 -10.506  20.732  0.00  0.00    +0.210 HD
ENDBRANCH  27   4
ENDBRANCH  23  27
ENDBRANCH  18  20
ENDBRANCH   7  18
ENDBRANCH  10   7
BRANCH  11  16
ATOM     16  C   UNL     1      -4.059  -9.595  10.994  0.00  0.00    +0.029 C 
BRANCH  16  17
ATOM     17  C   UNL     1      -3.757  -9.130   9.576  0.00  0.00    +0.097 C 
BRANCH  17  19
ATOM      3  O   UNL     1      -4.993 -10.041   7.705  0.00  0.00    -0.276 OA
ATOM      8  N   UNL     1      -5.993  -8.427   9.041  0.00  0.00    -0.313 N 
ATOM     19  C   UNL     1      -4.959  -9.270   8.661  0.00  0.00    +0.213 C 
ATOM     30  H   UNL     1      -5.893  -7.868   9.884  0.00  0.00    +0.149 HD
BRANCH   8  22
ATOM     22  C   UNL     1      -7.246  -8.373   8.326  0.00  0.00    +0.067 C 
ATOM     25  C   UNL     1      -8.298  -9.225   9.026  0.00  0.00    +0.027 C 
ATOM     26  C   UNL     1      -7.712  -6.929   8.183  0.00  0.00    +0.027 C 
ENDBRANCH   8  22
ENDBRANCH  17  19
ENDBRANCH  16  17
ENDBRANCH  11  16
TORSDOF 9
ENDMDL
MODEL 8
REMARK VINA RESULT:      -6.0     17.491     20.690
REMARK  Name = 45360622
REMARK  11 active torsions:
REMARK  status: ('A' for Active; 'I' for Inactive)
REMARK    1  A    between atoms: O_4  and  C_27
REMARK    2  A    between atoms: N_7  and  C_10
REMARK    3  A    between atoms: N_7  and  C_18
REMARK    4  A    between atoms: N_8  and  C_22
REMARK    5  A    between atoms: C_11  and  C_16
REMARK    6  A    between atoms: C_16  and  C_17
REMARK    7  A    between atoms: C_17  and  C_19
REMARK    8  A    between atoms: C_18  and  C_20
REMARK    9  A    between atoms: C_22  and  C_25
REMARK   10  A    between atoms: C_22  and  C_26
REMARK   11  A    between atoms: C_23  and  C_27
REMARK                            x       y       z     vdW  Elec       q    Type
REMARK                         _______ _______ _______ _____ _____    ______ ____
ROOT
ATOM      1  O   UNL     1      15.575   6.715   2.679  0.00  0.00    -0.274 OA
ATOM      5  N   UNL     1      12.015   6.404   1.932  0.00  0.00    -0.286 NA
ATOM      6  N   UNL     1      14.368   4.883   2.077  0.00  0.00    -0.313 N 
ATOM      9  C   UNL     1      13.286   7.125   2.082  0.00  0.00    +0.145 C 
ATOM     10  C   UNL     1      11.637   7.753   3.749  0.00  0.00    +0.070 C 
ATOM     11  C   UNL     1      12.112   5.171   1.159  0.00  0.00    +0.075 C 
ATOM     12  C   UNL     1      13.057   8.065   3.276  0.00  0.00    +0.048 C 
ATOM     13  C   UNL     1      11.401   6.333   3.255  0.00  0.00    +0.104 C 
ATOM     14  C   UNL     1      13.119   4.219   1.784  0.00  0.00    +0.123 C 
ATOM     15  C   UNL     1      14.496   6.228   2.327  0.00  0.00    +0.230 C 
ATOM     28  H   UNL     1      15.186   4.299   2.224  0.00  0.00    +0.149 HD
ENDROOT
BRANCH  10   7
ATOM      7  N   UNL     1      11.469   7.903   5.186  0.00  0.00    -0.305 NA
ATOM     29  H   UNL     1      12.219   8.491   5.552  0.00  0.00    +0.123 HD
BRANCH   7  18
ATOM     18  C   UNL     1      11.518   6.610   5.857  0.00  0.00    +0.156 C 
BRANCH  18  20
ATOM      2  O   UNL     1      10.511   5.361   7.687  0.00  0.00    -0.461 OA
ATOM     20  C   UNL     1      10.532   6.528   6.991  0.00  0.00    +0.119 A 
ATOM     21  C   UNL     1       9.609   7.412   7.501  0.00  0.00    +0.046 A 
ATOM     23  C   UNL     1       9.564   5.501   8.652  0.00  0.00    +0.131 A 
ATOM     24  C   UNL     1       8.980   6.744   8.579  0.00  0.00    +0.047 A 
BRANCH  23  27
ATOM     27  C   UNL     1       9.364   4.347   9.539  0.00  0.00    +0.230 C 
BRANCH  27   4
ATOM      4  O   UNL     1      10.071   4.538  10.767  0.00  0.00    -0.387 OA
ATOM     31  H   UNL     1       9.440   4.365  11.487  0.00  0.00    +0.210 HD
ENDBRANCH  27   4
ENDBRANCH  23  27
ENDBRANCH  18  20
ENDBRANCH   7  18
ENDBRANCH  10   7
BRANCH  11  16
ATOM     16  C   UNL     1      10.757   4.486   0.962  0.00  0.00    +0.029 C 
BRANCH  16  17
ATOM     17  C   UNL     1       9.864   5.292   0.028  0.00  0.00    +0.097 C 
BRANCH  17  19
ATOM      3  O   UNL     1      10.105   5.899  -2.302  0.00  0.00    -0.276 OA
ATOM      8  N   UNL     1      10.575   3.722  -1.648  0.00  0.00    -0.313 N 
ATOM     19  C   UNL     1      10.186   5.036  -1.432  0.00  0.00    +0.213 C 
ATOM     30  H   UNL     1      10.669   3.095  -0.853  0.00  0.00    +0.149 HD
BRANCH   8  22
ATOM     22  C   UNL     1      10.932   3.229  -2.957  0.00  0.00    +0.067 C 
ATOM     25  C   UNL     1      12.098   2.252  -2.860  0.00  0.00    +0.027 C 
ATOM     26  C   UNL     1       9.726   2.583  -3.627  0.00  0.00    +0.027 C 
ENDBRANCH   8  22
ENDBRANCH  17  19
ENDBRANCH  16  17
ENDBRANCH  11  16
TORSDOF 9
ENDMDL
MODEL 9
REMARK VINA RESULT:      -6.0     27.390     31.057
REMARK  Name = 45360622
REMARK  11 active torsions:
REMARK  status: ('A' for Active; 'I' for Inactive)
REMARK    1  A    between atoms: O_4  and  C_27
REMARK    2  A    between atoms: N_7  and  C_10
REMARK    3  A    between atoms: N_7  and  C_18
REMARK    4  A    between atoms: N_8  and  C_22
REMARK    5  A    between atoms: C_11  and  C_16
REMARK    6  A    between atoms: C_16  and  C_17
REMARK    7  A    between atoms: C_17  and  C_19
REMARK    8  A    between atoms: C_18  and  C_20
REMARK    9  A    between atoms: C_22  and  C_25
REMARK   10  A    between atoms: C_22  and  C_26
REMARK   11  A    between atoms: C_23  and  C_27
REMARK                            x       y       z     vdW  Elec       q    Type
REMARK                         _______ _______ _______ _____ _____    ______ ____
ROOT
ATOM      1  O   UNL     1      -9.810 -14.741  19.139  0.00  0.00    -0.274 OA
ATOM      5  N   UNL     1      -7.947 -11.666  19.767  0.00  0.00    -0.286 NA
ATOM      6  N   UNL     1      -7.847 -14.022  18.246  0.00  0.00    -0.313 N 
ATOM      9  C   UNL     1      -8.913 -12.725  20.085  0.00  0.00    +0.145 C 
ATOM     10  C   UNL     1      -9.963 -10.571  19.697  0.00  0.00    +0.070 C 
ATOM     11  C   UNL     1      -6.655 -12.152  19.296  0.00  0.00    +0.075 C 
ATOM     12  C   UNL     1     -10.277 -12.018  20.078  0.00  0.00    +0.048 C 
ATOM     13  C   UNL     1      -8.644 -10.679  18.945  0.00  0.00    +0.104 C 
ATOM     14  C   UNL     1      -6.822 -13.021  18.060  0.00  0.00    +0.123 C 
ATOM     15  C   UNL     1      -8.910 -13.897  19.107  0.00  0.00    +0.230 C 
ATOM     28  H   UNL     1      -7.846 -14.817  17.615  0.00  0.00    +0.149 HD
ENDROOT
BRANCH  10   7
ATOM      7  N   UNL     1     -11.021  -9.941  18.924  0.00  0.00    -0.305 NA
ATOM     29  H   UNL     1     -11.905 -10.039  19.424  0.00  0.00    +0.123 HD
BRANCH   7  18
ATOM     18  C   UNL     1     -11.153 -10.563  17.613  0.00  0.00    +0.156 C 
BRANCH  18  20
ATOM      2  O   UNL     1     -10.964  -8.268  16.827  0.00  0.00    -0.461 OA
ATOM     20  C   UNL     1     -11.328  -9.540  16.521  0.00  0.00    +0.119 A 
ATOM     21  C   UNL     1     -11.793  -9.615  15.229  0.00  0.00    +0.046 A 
ATOM     23  C   UNL     1     -11.200  -7.519  15.716  0.00  0.00    +0.131 A 
ATOM     24  C   UNL     1     -11.710  -8.301  14.706  0.00  0.00    +0.047 A 
BRANCH  23  27
ATOM     27  C   UNL     1     -10.876  -6.089  15.815  0.00  0.00    +0.230 C 
BRANCH  27   4
ATOM      4  O   UNL     1     -11.399  -5.385  14.685  0.00  0.00    -0.387 OA
ATOM     31  H   UNL     1     -12.069  -5.960  14.279  0.00  0.00    +0.210 HD
ENDBRANCH  27   4
ENDBRANCH  23  27
ENDBRANCH  18  20
ENDBRANCH   7  18
ENDBRANCH  10   7
BRANCH  11  16
ATOM     16  C   UNL     1      -5.652 -11.025  19.045  0.00  0.00    +0.029 C 
BRANCH  16  17
ATOM     17  C   UNL     1      -4.349 -11.565  18.471  0.00  0.00    +0.097 C 
BRANCH  17  19
ATOM      3  O   UNL     1      -4.706 -10.080  16.593  0.00  0.00    -0.276 OA
ATOM      8  N   UNL     1      -2.768 -11.355  16.673  0.00  0.00    -0.313 N 
ATOM     19  C   UNL     1      -3.989 -10.906  17.152  0.00  0.00    +0.213 C 
ATOM     30  H   UNL     1      -2.218 -11.997  17.237  0.00  0.00    +0.149 HD
BRANCH   8  22
ATOM     22  C   UNL     1      -2.205 -10.879  15.431  0.00  0.00    +0.067 C 
ATOM     25  C   UNL     1      -0.929 -10.087  15.692  0.00  0.00    +0.027 C 
ATOM     26  C   UNL     1      -1.946 -12.046  14.486  0.00  0.00    +0.027 C 
ENDBRANCH   8  22
ENDBRANCH  17  19
ENDBRANCH  16  17
ENDBRANCH  11  16
TORSDOF 9
ENDMDL
MODEL 10
REMARK VINA RESULT:      -5.9     28.236     31.211
REMARK  Name = 45360622
REMARK  11 active torsions:
REMARK  status: ('A' for Active; 'I' for Inactive)
REMARK    1  A    between atoms: O_4  and  C_27
REMARK    2  A    between atoms: N_7  and  C_10
REMARK    3  A    between atoms: N_7  and  C_18
REMARK    4  A    between atoms: N_8  and  C_22
REMARK    5  A    between atoms: C_11  and  C_16
REMARK    6  A    between atoms: C_16  and  C_17
REMARK    7  A    between atoms: C_17  and  C_19
REMARK    8  A    between atoms: C_18  and  C_20
REMARK    9  A    between atoms: C_22  and  C_25
REMARK   10  A    between atoms: C_22  and  C_26
REMARK   11  A    between atoms: C_23  and  C_27
REMARK                            x       y       z     vdW  Elec       q    Type
REMARK                         _______ _______ _______ _____ _____    ______ ____
ROOT
ATOM      1  O   UNL     1      -6.258  -9.889  13.245  0.00  0.00    -0.274 OA
ATOM      5  N   UNL     1      -7.506 -10.279  16.653  0.00  0.00    -0.286 NA
ATOM      6  N   UNL     1      -5.117  -9.987  15.210  0.00  0.00    -0.313 N 
ATOM      9  C   UNL     1      -7.575 -10.385  15.190  0.00  0.00    +0.145 C 
ATOM     10  C   UNL     1      -9.146  -8.772  16.099  0.00  0.00    +0.070 C 
ATOM     11  C   UNL     1      -6.262 -10.771  17.233  0.00  0.00    +0.075 C 
ATOM     12  C   UNL     1      -8.690  -9.408  14.785  0.00  0.00    +0.048 C 
ATOM     13  C   UNL     1      -7.935  -8.928  17.008  0.00  0.00    +0.104 C 
ATOM     14  C   UNL     1      -5.065 -10.034  16.653  0.00  0.00    +0.123 C 
ATOM     15  C   UNL     1      -6.274 -10.044  14.470  0.00  0.00    +0.230 C 
ATOM     28  H   UNL     1      -4.254  -9.781  14.715  0.00  0.00    +0.149 HD
ENDROOT
BRANCH  10   7
ATOM      7  N   UNL     1      -9.581  -7.393  15.944  0.00  0.00    -0.305 NA
ATOM     29  H   UNL     1      -8.866  -6.771  16.325  0.00  0.00    +0.123 HD
BRANCH   7  18
ATOM     18  C   UNL     1     -10.833  -7.156  16.652  0.00  0.00    +0.156 C 
BRANCH  18  20
ATOM      2  O   UNL     1     -11.473  -5.905  14.665  0.00  0.00    -0.461 OA
ATOM     20  C   UNL     1     -11.902  -6.621  15.738  0.00  0.00    +0.119 A 
ATOM     21  C   UNL     1     -13.275  -6.701  15.749  0.00  0.00    +0.046 A 
ATOM     23  C   UNL     1     -12.586  -5.524  13.983  0.00  0.00    +0.131 A 
ATOM     24  C   UNL     1     -13.719  -5.988  14.609  0.00  0.00    +0.047 A 
BRANCH  23  27
ATOM     27  C   UNL     1     -12.362  -4.727  12.768  0.00  0.00    +0.230 C 
BRANCH  27   4
ATOM      4  O   UNL     1     -12.018  -3.383  13.114  0.00  0.00    -0.387 OA
ATOM     31  H   UNL     1     -11.575  -3.418  13.980  0.00  0.00    +0.210 HD
ENDBRANCH  27   4
ENDBRANCH  23  27
ENDBRANCH  18  20
ENDBRANCH   7  18
ENDBRANCH  10   7
BRANCH  11  16
ATOM     16  C   UNL     1      -6.255 -10.712  18.762  0.00  0.00    +0.029 C 
BRANCH  16  17
ATOM     17  C   UNL     1      -6.505 -12.087  19.367  0.00  0.00    +0.097 C 
BRANCH  17  19
ATOM      3  O   UNL     1      -8.726 -11.316  19.942  0.00  0.00    -0.276 OA
ATOM      8  N   UNL     1      -8.229 -13.575  20.136  0.00  0.00    -0.313 N 
ATOM     19  C   UNL     1      -7.937 -12.252  19.840  0.00  0.00    +0.213 C 
ATOM     30  H   UNL     1      -7.527 -14.289  19.963  0.00  0.00    +0.149 HD
BRANCH   8  22
ATOM     22  C   UNL     1      -9.528 -13.991  20.608  0.00  0.00    +0.067 C 
ATOM     25  C   UNL     1     -10.350 -14.575  19.465  0.00  0.00    +0.027 C 
ATOM     26  C   UNL     1      -9.383 -14.990  21.749  0.00  0.00    +0.027 C 
ENDBRANCH   8  22
ENDBRANCH  17  19
ENDBRANCH  16  17
ENDBRANCH  11  16
TORSDOF 9
ENDMDL
