REMARK  Name = 38026794
REMARK  9 active torsions:
REMARK  status: ('A' for Active; 'I' for Inactive)
REMARK    1  A    between atoms: O_5  and  C_12
REMARK    2  A    between atoms: O_6  and  C_20
REMARK    3  A    between atoms: N_8  and  C_10
REMARK    4  A    between atoms: N_9  and  C_19
REMARK    5  A    between atoms: C_11  and  C_19
REMARK    6  A    between atoms: C_13  and  C_20
REMARK    7  A    between atoms: C_16  and  C_21
REMARK    8  A    between atoms: C_22  and  C_23
REMARK    9  A    between atoms: C_28  and  C_29
REMARK                            x       y       z     vdW  Elec       q    Type
REMARK                         _______ _______ _______ _____ _____    ______ ____
ROOT
ATOM      4  O   UNL     1      -1.175  -2.061  -0.606  0.00  0.00    -0.365 OA
ATOM     10  C   UNL     1      -3.159  -0.748  -0.691  0.00  0.00    +0.118 C 
ATOM     11  C   UNL     1      -1.628  -0.689  -0.603  0.00  0.00    +0.155 C 
ATOM     12  C   UNL     1      -3.485  -2.106  -0.088  0.00  0.00    +0.165 C 
ATOM     13  C   UNL     1      -2.321  -2.935  -0.617  0.00  0.00    +0.174 C 
ENDROOT
BRANCH  10   8
ATOM      8  N   UNL     1      -3.878   0.375  -0.115  0.00  0.00    -0.295 NA
ATOM     14  C   UNL     1      -5.271   0.003   0.166  0.00  0.00    +0.085 C 
ATOM     15  C   UNL     1      -3.810   1.541  -1.006  0.00  0.00    +0.085 C 
ATOM     16  C   UNL     1      -5.974   2.423  -0.040  0.00  0.00    -0.012 C 
ATOM     17  C   UNL     1      -6.029   1.158   0.823  0.00  0.00    +0.018 C 
ATOM     18  C   UNL     1      -4.518   2.749  -0.389  0.00  0.00    +0.018 C 
ATOM     21  C   UNL     1      -6.645   3.598   0.665  0.00  0.00    +0.007 C 
ENDBRANCH  10   8
BRANCH  12   5
ATOM      5  O   UNL     1      -3.458  -2.064   1.333  0.00  0.00    -0.388 OA
ATOM     30  H   UNL     1      -3.775  -2.924   1.658  0.00  0.00    +0.210 HD
ENDBRANCH  12   5
BRANCH  11  19
ATOM     19  C   UNL     1      -1.039  -0.021   0.634  0.00  0.00    +0.137 C 
BRANCH  19   9
ATOM      7  O   UNL     1       0.665   1.990  -0.503  0.00  0.00    -0.270 OA
ATOM      9  N   UNL     1       0.392  -0.035   0.596  0.00  0.00    -0.309 N 
ATOM     22  C   UNL     1       1.143   0.988   0.021  0.00  0.00    +0.244 C 
ATOM     31  H   UNL     1       0.848  -0.870   0.949  0.00  0.00    +0.149 HD
BRANCH  22  23
ATOM     23  C   UNL     1       2.618   0.811   0.039  0.00  0.00    +0.037 A 
ATOM     24  C   UNL     1       3.405   1.418  -0.940  0.00  0.00    +0.013 A 
ATOM     25  C   UNL     1       3.216   0.037   1.033  0.00  0.00    +0.013 A 
ATOM     26  C   UNL     1       4.790   1.252  -0.924  0.00  0.00    +0.013 A 
ATOM     27  C   UNL     1       4.601  -0.130   1.049  0.00  0.00    +0.013 A 
ATOM     28  C   UNL     1       5.388   0.478   0.070  0.00  0.00    +0.055 A 
BRANCH  28  29
ATOM      1  F   UNL     1       7.461   0.758   1.231  0.00  0.00    -0.166 F 
ATOM      2  F   UNL     1       7.488   0.959  -0.934  0.00  0.00    -0.166 F 
ATOM      3  F   UNL     1       7.265  -1.002  -0.021  0.00  0.00    -0.166 F 
ATOM     29  C   UNL     1       6.869   0.301   0.088  0.00  0.00    +0.417 C 
ENDBRANCH  28  29
ENDBRANCH  22  23
ENDBRANCH  19   9
ENDBRANCH  11  19
BRANCH  13  20
ATOM     20  C   UNL     1      -2.001  -4.191   0.173  0.00  0.00    +0.190 C 
BRANCH  20   6
ATOM      6  O   UNL     1      -0.910  -4.856  -0.444  0.00  0.00    -0.392 OA
ATOM     32  H   UNL     1      -0.730  -5.655   0.078  0.00  0.00    +0.210 HD
ENDBRANCH  20   6
ENDBRANCH  13  20
TORSDOF 8
