MODEL 1
REMARK VINA RESULT:      -7.0      0.000      0.000
REMARK  Name = 51137389
REMARK  8 active torsions:
REMARK  status: ('A' for Active; 'I' for Inactive)
REMARK    1  A    between atoms: N_2  and  C_10
REMARK    2  A    between atoms: N_5  and  C_19
REMARK    3  A    between atoms: N_5  and  C_21
REMARK    4  A    between atoms: N_5  and  C_22
REMARK    5  A    between atoms: C_6  and  C_11
REMARK    6  A    between atoms: C_10  and  C_12
REMARK    7  A    between atoms: C_15  and  C_16
REMARK    8  A    between atoms: C_16  and  C_20
REMARK                            x       y       z     vdW  Elec       q    Type
REMARK                         _______ _______ _______ _____ _____    ______ ____
ROOT
ATOM      2  N   UNL     1      14.129   7.449  18.686  0.00  0.00    -0.297 NA
ATOM      6  C   UNL     1      13.637   9.476  17.550  0.00  0.00    +0.092 C 
ATOM      7  C   UNL     1      12.581   8.401  17.252  0.00  0.00    +0.029 C 
ATOM      8  C   UNL     1      14.532   8.857  18.638  0.00  0.00    +0.097 C 
ATOM      9  C   UNL     1      12.692   7.438  18.423  0.00  0.00    +0.085 C 
ENDROOT
BRANCH   6  11
ATOM      1  O   UNL     1      15.043  11.114  16.393  0.00  0.00    -0.424 OA
ATOM      3  N   UNL     1      14.470   9.355  15.135  0.00  0.00    -0.112 NA
ATOM      4  N   UNL     1      15.257  10.191  14.365  0.00  0.00    -0.112 NA
ATOM     11  C   UNL     1      14.373   9.933  16.309  0.00  0.00    +0.222 A 
ATOM     15  C   UNL     1      15.568  11.205  15.139  0.00  0.00    +0.222 A 
BRANCH  15  16
ATOM     16  C   UNL     1      16.384  12.390  14.848  0.00  0.00    +0.132 C 
BRANCH  16  20
ATOM     20  C   UNL     1      17.835  12.295  15.308  0.00  0.00    -0.038 A 
ATOM     23  C   UNL     1      18.773  11.624  14.524  0.00  0.00    +0.004 A 
ATOM     24  C   UNL     1      18.225  12.880  16.512  0.00  0.00    +0.004 A 
ATOM     25  C   UNL     1      20.100  11.538  14.944  0.00  0.00    +0.000 A 
ATOM     26  C   UNL     1      19.551  12.794  16.934  0.00  0.00    +0.000 A 
ATOM     27  C   UNL     1      20.489  12.123  16.149  0.00  0.00    +0.000 A 
ENDBRANCH  16  20
ENDBRANCH  15  16
ENDBRANCH   6  11
BRANCH   2  10
ATOM     10  C   UNL     1      14.471   6.812  19.948  0.00  0.00    +0.119 C 
BRANCH  10  12
ATOM     12  C   UNL     1      15.956   6.612  20.092  0.00  0.00    -0.033 A 
ATOM     13  C   UNL     1      16.620   7.099  21.218  0.00  0.00    +0.007 A 
ATOM     14  C   UNL     1      16.668   5.938  19.100  0.00  0.00    +0.007 A 
ATOM     17  C   UNL     1      17.996   6.914  21.350  0.00  0.00    +0.023 A 
ATOM     18  C   UNL     1      18.044   5.753  19.232  0.00  0.00    +0.023 A 
ATOM     19  C   UNL     1      18.708   6.240  20.357  0.00  0.00    +0.029 A 
BRANCH  19   5
ATOM      5  N   UNL     1      20.100   6.053  20.491  0.00  0.00    -0.336 N 
ATOM     21  C   UNL     1      20.980   7.190  20.667  0.00  0.00    +0.129 C 
ATOM     22  C   UNL     1      20.668   4.720  20.447  0.00  0.00    +0.129 C 
ENDBRANCH  19   5
ENDBRANCH  10  12
ENDBRANCH   2  10
TORSDOF 6
ENDMDL
MODEL 2
REMARK VINA RESULT:      -6.7     27.481     29.916
REMARK  Name = 51137389
REMARK  8 active torsions:
REMARK  status: ('A' for Active; 'I' for Inactive)
REMARK    1  A    between atoms: N_2  and  C_10
REMARK    2  A    between atoms: N_5  and  C_19
REMARK    3  A    between atoms: N_5  and  C_21
REMARK    4  A    between atoms: N_5  and  C_22
REMARK    5  A    between atoms: C_6  and  C_11
REMARK    6  A    between atoms: C_10  and  C_12
REMARK    7  A    between atoms: C_15  and  C_16
REMARK    8  A    between atoms: C_16  and  C_20
REMARK                            x       y       z     vdW  Elec       q    Type
REMARK                         _______ _______ _______ _____ _____    ______ ____
ROOT
ATOM      2  N   UNL     1      -3.325 -11.008  16.111  0.00  0.00    -0.297 NA
ATOM      6  C   UNL     1      -2.099 -11.830  14.250  0.00  0.00    +0.092 C 
ATOM      7  C   UNL     1      -1.423 -10.593  14.858  0.00  0.00    +0.029 C 
ATOM      8  C   UNL     1      -3.246 -12.169  15.220  0.00  0.00    +0.097 C 
ATOM      9  C   UNL     1      -1.949 -10.546  16.283  0.00  0.00    +0.085 C 
ENDROOT
BRANCH   6  11
ATOM      1  O   UNL     1      -2.532 -10.333  12.361  0.00  0.00    -0.424 OA
ATOM      3  N   UNL     1      -2.903 -12.493  11.914  0.00  0.00    -0.112 NA
ATOM      4  N   UNL     1      -3.183 -11.767  10.771  0.00  0.00    -0.112 NA
ATOM     11  C   UNL     1      -2.527 -11.616  12.814  0.00  0.00    +0.222 A 
ATOM     15  C   UNL     1      -2.953 -10.511  11.078  0.00  0.00    +0.222 A 
BRANCH  15  16
ATOM     16  C   UNL     1      -3.081  -9.306  10.249  0.00  0.00    +0.132 C 
BRANCH  16  20
ATOM     20  C   UNL     1      -4.406  -9.180   9.505  0.00  0.00    -0.038 A 
ATOM     23  C   UNL     1      -4.594  -9.851   8.298  0.00  0.00    +0.004 A 
ATOM     24  C   UNL     1      -5.429  -8.393  10.033  0.00  0.00    +0.004 A 
ATOM     25  C   UNL     1      -5.807  -9.736   7.617  0.00  0.00    +0.000 A 
ATOM     26  C   UNL     1      -6.642  -8.277   9.353  0.00  0.00    +0.000 A 
ATOM     27  C   UNL     1      -6.830  -8.949   8.146  0.00  0.00    +0.000 A 
ENDBRANCH  16  20
ENDBRANCH  15  16
ENDBRANCH   6  11
BRANCH   2  10
ATOM     10  C   UNL     1      -3.972 -11.319  17.377  0.00  0.00    +0.119 C 
BRANCH  10  12
ATOM     12  C   UNL     1      -5.369 -10.763  17.443  0.00  0.00    -0.033 A 
ATOM     13  C   UNL     1      -5.826  -9.901  16.446  0.00  0.00    +0.007 A 
ATOM     14  C   UNL     1      -6.208 -11.109  18.503  0.00  0.00    +0.007 A 
ATOM     17  C   UNL     1      -7.120  -9.386  16.508  0.00  0.00    +0.023 A 
ATOM     18  C   UNL     1      -7.502 -10.594  18.565  0.00  0.00    +0.023 A 
ATOM     19  C   UNL     1      -7.959  -9.732  17.569  0.00  0.00    +0.029 A 
BRANCH  19   5
ATOM      5  N   UNL     1      -9.268  -9.211  17.631  0.00  0.00    -0.336 N 
ATOM     21  C   UNL     1      -9.611  -7.999  16.914  0.00  0.00    +0.129 C 
ATOM     22  C   UNL     1     -10.286  -9.876  18.420  0.00  0.00    +0.129 C 
ENDBRANCH  19   5
ENDBRANCH  10  12
ENDBRANCH   2  10
TORSDOF 6
ENDMDL
MODEL 3
REMARK VINA RESULT:      -6.6     29.674     33.361
REMARK  Name = 51137389
REMARK  8 active torsions:
REMARK  status: ('A' for Active; 'I' for Inactive)
REMARK    1  A    between atoms: N_2  and  C_10
REMARK    2  A    between atoms: N_5  and  C_19
REMARK    3  A    between atoms: N_5  and  C_21
REMARK    4  A    between atoms: N_5  and  C_22
REMARK    5  A    between atoms: C_6  and  C_11
REMARK    6  A    between atoms: C_10  and  C_12
REMARK    7  A    between atoms: C_15  and  C_16
REMARK    8  A    between atoms: C_16  and  C_20
REMARK                            x       y       z     vdW  Elec       q    Type
REMARK                         _______ _______ _______ _____ _____    ______ ____
ROOT
ATOM      2  N   UNL     1     -17.701   3.300  25.536  0.00  0.00    -0.297 NA
ATOM      6  C   UNL     1     -18.019   4.053  23.306  0.00  0.00    +0.092 C 
ATOM      7  C   UNL     1     -18.141   2.525  23.399  0.00  0.00    +0.029 C 
ATOM      8  C   UNL     1     -17.910   4.529  24.766  0.00  0.00    +0.097 C 
ATOM      9  C   UNL     1     -18.484   2.270  24.858  0.00  0.00    +0.085 C 
ENDROOT
BRANCH   6  11
ATOM      1  O   UNL     1     -15.666   4.659  22.996  0.00  0.00    -0.424 OA
ATOM      3  N   UNL     1     -16.885   4.751  21.122  0.00  0.00    -0.112 NA
ATOM      4  N   UNL     1     -15.589   5.113  20.806  0.00  0.00    -0.112 NA
ATOM     11  C   UNL     1     -16.883   4.495  22.409  0.00  0.00    +0.222 A 
ATOM     15  C   UNL     1     -14.913   5.045  21.930  0.00  0.00    +0.222 A 
BRANCH  15  16
ATOM     16  C   UNL     1     -13.493   5.319  22.186  0.00  0.00    +0.132 C 
BRANCH  16  20
ATOM     20  C   UNL     1     -12.961   6.592  21.538  0.00  0.00    -0.038 A 
ATOM     23  C   UNL     1     -11.843   6.536  20.705  0.00  0.00    +0.004 A 
ATOM     24  C   UNL     1     -13.591   7.813  21.777  0.00  0.00    +0.004 A 
ATOM     25  C   UNL     1     -11.356   7.700  20.112  0.00  0.00    +0.000 A 
ATOM     26  C   UNL     1     -13.104   8.978  21.184  0.00  0.00    +0.000 A 
ATOM     27  C   UNL     1     -11.987   8.921  20.351  0.00  0.00    +0.000 A 
ENDBRANCH  16  20
ENDBRANCH  15  16
ENDBRANCH   6  11
BRANCH   2  10
ATOM     10  C   UNL     1     -18.068   3.449  26.936  0.00  0.00    +0.119 C 
BRANCH  10  12
ATOM     12  C   UNL     1     -17.034   2.853  27.854  0.00  0.00    -0.033 A 
ATOM     13  C   UNL     1     -17.099   1.502  28.195  0.00  0.00    +0.007 A 
ATOM     14  C   UNL     1     -16.010   3.652  28.363  0.00  0.00    +0.007 A 
ATOM     17  C   UNL     1     -16.141   0.950  29.045  0.00  0.00    +0.023 A 
ATOM     18  C   UNL     1     -15.052   3.100  29.213  0.00  0.00    +0.023 A 
ATOM     19  C   UNL     1     -15.118   1.751  29.554  0.00  0.00    +0.029 A 
BRANCH  19   5
ATOM      5  N   UNL     1     -14.148   1.192  30.414  0.00  0.00    -0.336 N 
ATOM     21  C   UNL     1     -13.739   1.895  31.613  0.00  0.00    +0.129 C 
ATOM     22  C   UNL     1     -13.543  -0.088  30.105  0.00  0.00    +0.129 C 
ENDBRANCH  19   5
ENDBRANCH  10  12
ENDBRANCH   2  10
TORSDOF 6
ENDMDL
MODEL 4
REMARK VINA RESULT:      -6.5      1.573      2.590
REMARK  Name = 51137389
REMARK  8 active torsions:
REMARK  status: ('A' for Active; 'I' for Inactive)
REMARK    1  A    between atoms: N_2  and  C_10
REMARK    2  A    between atoms: N_5  and  C_19
REMARK    3  A    between atoms: N_5  and  C_21
REMARK    4  A    between atoms: N_5  and  C_22
REMARK    5  A    between atoms: C_6  and  C_11
REMARK    6  A    between atoms: C_10  and  C_12
REMARK    7  A    between atoms: C_15  and  C_16
REMARK    8  A    between atoms: C_16  and  C_20
REMARK                            x       y       z     vdW  Elec       q    Type
REMARK                         _______ _______ _______ _____ _____    ______ ____
ROOT
ATOM      2  N   UNL     1      14.923   7.805  20.205  0.00  0.00    -0.297 NA
ATOM      6  C   UNL     1      13.190   8.677  18.834  0.00  0.00    +0.092 C 
ATOM      7  C   UNL     1      12.956   7.192  19.148  0.00  0.00    +0.029 C 
ATOM      8  C   UNL     1      14.398   9.077  19.700  0.00  0.00    +0.097 C 
ATOM      9  C   UNL     1      13.756   6.952  20.418  0.00  0.00    +0.085 C 
ENDROOT
BRANCH   6  11
ATOM      1  O   UNL     1      13.428  10.244  16.967  0.00  0.00    -0.424 OA
ATOM      3  N   UNL     1      13.446   8.092  16.357  0.00  0.00    -0.112 NA
ATOM      4  N   UNL     1      13.589   8.860  15.216  0.00  0.00    -0.112 NA
ATOM     11  C   UNL     1      13.356   8.941  17.353  0.00  0.00    +0.222 A 
ATOM     15  C   UNL     1      13.572  10.109  15.620  0.00  0.00    +0.222 A 
BRANCH  15  16
ATOM     16  C   UNL     1      13.688  11.347  14.839  0.00  0.00    +0.132 C 
BRANCH  16  20
ATOM     20  C   UNL     1      15.100  11.676  14.368  0.00  0.00    -0.038 A 
ATOM     23  C   UNL     1      16.149  11.716  15.286  0.00  0.00    +0.004 A 
ATOM     24  C   UNL     1      15.343  11.936  13.019  0.00  0.00    +0.004 A 
ATOM     25  C   UNL     1      17.442  12.016  14.855  0.00  0.00    +0.000 A 
ATOM     26  C   UNL     1      16.634  12.236  12.588  0.00  0.00    +0.000 A 
ATOM     27  C   UNL     1      17.684  12.277  13.506  0.00  0.00    +0.000 A 
ENDBRANCH  16  20
ENDBRANCH  15  16
ENDBRANCH   6  11
BRANCH   2  10
ATOM     10  C   UNL     1      15.722   7.970  21.409  0.00  0.00    +0.119 C 
BRANCH  10  12
ATOM     12  C   UNL     1      17.164   7.604  21.180  0.00  0.00    -0.033 A 
ATOM     13  C   UNL     1      17.487   6.404  20.546  0.00  0.00    +0.007 A 
ATOM     14  C   UNL     1      18.178   8.464  21.602  0.00  0.00    +0.007 A 
ATOM     17  C   UNL     1      18.823   6.064  20.334  0.00  0.00    +0.023 A 
ATOM     18  C   UNL     1      19.514   8.124  21.390  0.00  0.00    +0.023 A 
ATOM     19  C   UNL     1      19.836   6.925  20.757  0.00  0.00    +0.029 A 
BRANCH  19   5
ATOM      5  N   UNL     1      21.188   6.582  20.542  0.00  0.00    -0.336 N 
ATOM     21  C   UNL     1      22.198   7.614  20.428  0.00  0.00    +0.129 C 
ATOM     22  C   UNL     1      21.582   5.192  20.422  0.00  0.00    +0.129 C 
ENDBRANCH  19   5
ENDBRANCH  10  12
ENDBRANCH   2  10
TORSDOF 6
ENDMDL
MODEL 5
REMARK VINA RESULT:      -6.5      4.531      7.284
REMARK  Name = 51137389
REMARK  8 active torsions:
REMARK  status: ('A' for Active; 'I' for Inactive)
REMARK    1  A    between atoms: N_2  and  C_10
REMARK    2  A    between atoms: N_5  and  C_19
REMARK    3  A    between atoms: N_5  and  C_21
REMARK    4  A    between atoms: N_5  and  C_22
REMARK    5  A    between atoms: C_6  and  C_11
REMARK    6  A    between atoms: C_10  and  C_12
REMARK    7  A    between atoms: C_15  and  C_16
REMARK    8  A    between atoms: C_16  and  C_20
REMARK                            x       y       z     vdW  Elec       q    Type
REMARK                         _______ _______ _______ _____ _____    ______ ____
ROOT
ATOM      2  N   UNL     1      11.374   8.871  22.015  0.00  0.00    -0.297 NA
ATOM      6  C   UNL     1      11.678   7.654  19.998  0.00  0.00    +0.092 C 
ATOM      7  C   UNL     1      11.436   6.711  21.185  0.00  0.00    +0.029 C 
ATOM      8  C   UNL     1      11.447   9.067  20.564  0.00  0.00    +0.097 C 
ATOM      9  C   UNL     1      10.721   7.579  22.208  0.00  0.00    +0.085 C 
ENDROOT
BRANCH   6  11
ATOM      1  O   UNL     1      13.976   6.813  20.098  0.00  0.00    -0.424 OA
ATOM      3  N   UNL     1      13.444   7.782  18.152  0.00  0.00    -0.112 NA
ATOM      4  N   UNL     1      14.757   7.356  18.072  0.00  0.00    -0.112 NA
ATOM     11  C   UNL     1      13.029   7.444  19.351  0.00  0.00    +0.222 A 
ATOM     15  C   UNL     1      15.025   6.797  19.230  0.00  0.00    +0.222 A 
BRANCH  15  16
ATOM     16  C   UNL     1      16.266   6.171  19.702  0.00  0.00    +0.132 C 
BRANCH  16  20
ATOM     20  C   UNL     1      17.209   7.107  20.452  0.00  0.00    -0.038 A 
ATOM     23  C   UNL     1      16.823   8.421  20.716  0.00  0.00    +0.004 A 
ATOM     24  C   UNL     1      18.456   6.648  20.874  0.00  0.00    +0.004 A 
ATOM     25  C   UNL     1      17.684   9.276  21.402  0.00  0.00    +0.000 A 
ATOM     26  C   UNL     1      19.319   7.503  21.560  0.00  0.00    +0.000 A 
ATOM     27  C   UNL     1      18.933   8.817  21.824  0.00  0.00    +0.000 A 
ENDBRANCH  16  20
ENDBRANCH  15  16
ENDBRANCH   6  11
BRANCH   2  10
ATOM     10  C   UNL     1      10.677   9.956  22.690  0.00  0.00    +0.119 C 
BRANCH  10  12
ATOM     12  C   UNL     1      11.512  11.207  22.751  0.00  0.00    -0.033 A 
ATOM     13  C   UNL     1      12.720  11.206  23.449  0.00  0.00    +0.007 A 
ATOM     14  C   UNL     1      11.077  12.367  22.111  0.00  0.00    +0.007 A 
ATOM     17  C   UNL     1      13.493  12.366  23.506  0.00  0.00    +0.023 A 
ATOM     18  C   UNL     1      11.850  13.526  22.168  0.00  0.00    +0.023 A 
ATOM     19  C   UNL     1      13.057  13.526  22.865  0.00  0.00    +0.029 A 
BRANCH  19   5
ATOM      5  N   UNL     1      13.840  14.699  22.922  0.00  0.00    -0.336 N 
ATOM     21  C   UNL     1      14.544  15.052  24.139  0.00  0.00    +0.129 C 
ATOM     22  C   UNL     1      13.942  15.570  21.769  0.00  0.00    +0.129 C 
ENDBRANCH  19   5
ENDBRANCH  10  12
ENDBRANCH   2  10
TORSDOF 6
ENDMDL
MODEL 6
REMARK VINA RESULT:      -6.4      4.062      6.296
REMARK  Name = 51137389
REMARK  8 active torsions:
REMARK  status: ('A' for Active; 'I' for Inactive)
REMARK    1  A    between atoms: N_2  and  C_10
REMARK    2  A    between atoms: N_5  and  C_19
REMARK    3  A    between atoms: N_5  and  C_21
REMARK    4  A    between atoms: N_5  and  C_22
REMARK    5  A    between atoms: C_6  and  C_11
REMARK    6  A    between atoms: C_10  and  C_12
REMARK    7  A    between atoms: C_15  and  C_16
REMARK    8  A    between atoms: C_16  and  C_20
REMARK                            x       y       z     vdW  Elec       q    Type
REMARK                         _______ _______ _______ _____ _____    ______ ____
ROOT
ATOM      2  N   UNL     1      12.856   8.027  19.676  0.00  0.00    -0.297 NA
ATOM      6  C   UNL     1      13.620   7.572  17.473  0.00  0.00    +0.092 C 
ATOM      7  C   UNL     1      14.702   7.251  18.514  0.00  0.00    +0.029 C 
ATOM      8  C   UNL     1      12.365   7.907  18.300  0.00  0.00    +0.097 C 
ATOM      9  C   UNL     1      13.925   7.040  19.804  0.00  0.00    +0.085 C 
ENDROOT
BRANCH   6  11
ATOM      1  O   UNL     1      14.509   9.813  17.041  0.00  0.00    -0.424 OA
ATOM      3  N   UNL     1      14.037   8.648  15.190  0.00  0.00    -0.112 NA
ATOM      4  N   UNL     1      14.527   9.881  14.804  0.00  0.00    -0.112 NA
ATOM     11  C   UNL     1      14.045   8.653  16.503  0.00  0.00    +0.222 A 
ATOM     15  C   UNL     1      14.789  10.528  15.916  0.00  0.00    +0.222 A 
BRANCH  15  16
ATOM     16  C   UNL     1      15.330  11.879  16.108  0.00  0.00    +0.132 C 
BRANCH  16  20
ATOM     20  C   UNL     1      15.117  12.462  17.501  0.00  0.00    -0.038 A 
ATOM     23  C   UNL     1      16.159  12.451  18.428  0.00  0.00    +0.004 A 
ATOM     24  C   UNL     1      13.881  13.006  17.848  0.00  0.00    +0.004 A 
ATOM     25  C   UNL     1      15.965  12.984  19.702  0.00  0.00    +0.000 A 
ATOM     26  C   UNL     1      13.686  13.539  19.122  0.00  0.00    +0.000 A 
ATOM     27  C   UNL     1      14.728  13.528  20.049  0.00  0.00    +0.000 A 
ENDBRANCH  16  20
ENDBRANCH  15  16
ENDBRANCH   6  11
BRANCH   2  10
ATOM     10  C   UNL     1      11.803   7.841  20.663  0.00  0.00    +0.119 C 
BRANCH  10  12
ATOM     12  C   UNL     1      11.550   9.095  21.457  0.00  0.00    -0.033 A 
ATOM     13  C   UNL     1      11.919  10.336  20.937  0.00  0.00    +0.007 A 
ATOM     14  C   UNL     1      10.947   9.016  22.712  0.00  0.00    +0.007 A 
ATOM     17  C   UNL     1      11.685  11.498  21.673  0.00  0.00    +0.023 A 
ATOM     18  C   UNL     1      10.713  10.178  23.447  0.00  0.00    +0.023 A 
ATOM     19  C   UNL     1      11.082  11.418  22.928  0.00  0.00    +0.029 A 
BRANCH  19   5
ATOM      5  N   UNL     1      10.844  12.593  23.672  0.00  0.00    -0.336 N 
ATOM     21  C   UNL     1      10.913  12.572  25.120  0.00  0.00    +0.129 C 
ATOM     22  C   UNL     1      10.520  13.835  22.999  0.00  0.00    +0.129 C 
ENDBRANCH  19   5
ENDBRANCH  10  12
ENDBRANCH   2  10
TORSDOF 6
ENDMDL
MODEL 7
REMARK VINA RESULT:      -6.4     27.575     30.434
REMARK  Name = 51137389
REMARK  8 active torsions:
REMARK  status: ('A' for Active; 'I' for Inactive)
REMARK    1  A    between atoms: N_2  and  C_10
REMARK    2  A    between atoms: N_5  and  C_19
REMARK    3  A    between atoms: N_5  and  C_21
REMARK    4  A    between atoms: N_5  and  C_22
REMARK    5  A    between atoms: C_6  and  C_11
REMARK    6  A    between atoms: C_10  and  C_12
REMARK    7  A    between atoms: C_15  and  C_16
REMARK    8  A    between atoms: C_16  and  C_20
REMARK                            x       y       z     vdW  Elec       q    Type
REMARK                         _______ _______ _______ _____ _____    ______ ____
ROOT
ATOM      2  N   UNL     1      -3.321 -10.046  10.944  0.00  0.00    -0.297 NA
ATOM      6  C   UNL     1      -1.959 -11.146  12.549  0.00  0.00    +0.092 C 
ATOM      7  C   UNL     1      -3.141 -12.030  12.123  0.00  0.00    +0.029 C 
ATOM      8  C   UNL     1      -2.022  -9.927  11.612  0.00  0.00    +0.097 C 
ATOM      9  C   UNL     1      -3.545 -11.479  10.766  0.00  0.00    +0.085 C 
ENDROOT
BRANCH   6  11
ATOM      1  O   UNL     1      -2.882 -11.484  14.793  0.00  0.00    -0.424 OA
ATOM      3  N   UNL     1      -1.251  -9.956  14.700  0.00  0.00    -0.112 NA
ATOM      4  N   UNL     1      -1.677 -10.046  16.012  0.00  0.00    -0.112 NA
ATOM     11  C   UNL     1      -1.982 -10.812  14.025  0.00  0.00    +0.222 A 
ATOM     15  C   UNL     1      -2.630 -10.949  16.019  0.00  0.00    +0.222 A 
BRANCH  15  16
ATOM     16  C   UNL     1      -3.436 -11.450  17.139  0.00  0.00    +0.132 C 
BRANCH  16  20
ATOM     20  C   UNL     1      -4.805 -10.795  17.285  0.00  0.00    -0.038 A 
ATOM     23  C   UNL     1      -5.520 -10.930  18.475  0.00  0.00    +0.004 A 
ATOM     24  C   UNL     1      -5.343 -10.061  16.228  0.00  0.00    +0.004 A 
ATOM     25  C   UNL     1      -6.772 -10.330  18.608  0.00  0.00    +0.000 A 
ATOM     26  C   UNL     1      -6.595  -9.462  16.360  0.00  0.00    +0.000 A 
ATOM     27  C   UNL     1      -7.310  -9.596  17.550  0.00  0.00    +0.000 A 
ENDBRANCH  16  20
ENDBRANCH  15  16
ENDBRANCH   6  11
BRANCH   2  10
ATOM     10  C   UNL     1      -3.373  -9.312   9.688  0.00  0.00    +0.119 C 
BRANCH  10  12
ATOM     12  C   UNL     1      -4.780  -9.186   9.170  0.00  0.00    -0.033 A 
ATOM     13  C   UNL     1      -5.764  -8.591   9.960  0.00  0.00    +0.007 A 
ATOM     14  C   UNL     1      -5.101  -9.664   7.900  0.00  0.00    +0.007 A 
ATOM     17  C   UNL     1      -7.069  -8.474   9.480  0.00  0.00    +0.023 A 
ATOM     18  C   UNL     1      -6.405  -9.548   7.420  0.00  0.00    +0.023 A 
ATOM     19  C   UNL     1      -7.389  -8.954   8.209  0.00  0.00    +0.029 A 
BRANCH  19   5
ATOM      5  N   UNL     1      -8.708  -8.836   7.723  0.00  0.00    -0.336 N 
ATOM     21  C   UNL     1      -9.270  -9.863   6.869  0.00  0.00    +0.129 C 
ATOM     22  C   UNL     1      -9.515  -7.681   8.063  0.00  0.00    +0.129 C 
ENDBRANCH  19   5
ENDBRANCH  10  12
ENDBRANCH   2  10
TORSDOF 6
ENDMDL
MODEL 8
REMARK VINA RESULT:      -6.3     28.594     31.067
REMARK  Name = 51137389
REMARK  8 active torsions:
REMARK  status: ('A' for Active; 'I' for Inactive)
REMARK    1  A    between atoms: N_2  and  C_10
REMARK    2  A    between atoms: N_5  and  C_19
REMARK    3  A    between atoms: N_5  and  C_21
REMARK    4  A    between atoms: N_5  and  C_22
REMARK    5  A    between atoms: C_6  and  C_11
REMARK    6  A    between atoms: C_10  and  C_12
REMARK    7  A    between atoms: C_15  and  C_16
REMARK    8  A    between atoms: C_16  and  C_20
REMARK                            x       y       z     vdW  Elec       q    Type
REMARK                         _______ _______ _______ _____ _____    ______ ____
ROOT
ATOM      2  N   UNL     1      -7.353 -10.724  18.270  0.00  0.00    -0.297 NA
ATOM      6  C   UNL     1      -5.329 -11.813  17.669  0.00  0.00    +0.092 C 
ATOM      7  C   UNL     1      -5.116 -10.856  18.851  0.00  0.00    +0.029 C 
ATOM      8  C   UNL     1      -6.852 -11.825  17.442  0.00  0.00    +0.097 C 
ATOM      9  C   UNL     1      -6.501 -10.701  19.457  0.00  0.00    +0.085 C 
ENDROOT
BRANCH   6  11
ATOM      1  O   UNL     1      -4.863 -12.010  15.272  0.00  0.00    -0.424 OA
ATOM      3  N   UNL     1      -3.490 -10.615  16.356  0.00  0.00    -0.112 NA
ATOM      4  N   UNL     1      -3.119 -10.630  15.025  0.00  0.00    -0.112 NA
ATOM     11  C   UNL     1      -4.511 -11.434  16.454  0.00  0.00    +0.222 A 
ATOM     15  C   UNL     1      -3.947 -11.458  14.430  0.00  0.00    +0.222 A 
BRANCH  15  16
ATOM     16  C   UNL     1      -4.020 -11.856  13.019  0.00  0.00    +0.132 C 
BRANCH  16  20
ATOM     20  C   UNL     1      -4.129 -10.698  12.033  0.00  0.00    -0.038 A 
ATOM     23  C   UNL     1      -5.260  -9.881  12.039  0.00  0.00    +0.004 A 
ATOM     24  C   UNL     1      -3.098 -10.455  11.126  0.00  0.00    +0.004 A 
ATOM     25  C   UNL     1      -5.359  -8.822  11.137  0.00  0.00    +0.000 A 
ATOM     26  C   UNL     1      -3.197  -9.396  10.224  0.00  0.00    +0.000 A 
ATOM     27  C   UNL     1      -4.328  -8.579  10.229  0.00  0.00    +0.000 A 
ENDBRANCH  16  20
ENDBRANCH  15  16
ENDBRANCH   6  11
BRANCH   2  10
ATOM     10  C   UNL     1      -8.763 -10.867  18.597  0.00  0.00    +0.119 C 
BRANCH  10  12
ATOM     12  C   UNL     1      -9.608  -9.829  17.908  0.00  0.00    -0.033 A 
ATOM     13  C   UNL     1      -9.000  -8.778  17.222  0.00  0.00    +0.007 A 
ATOM     14  C   UNL     1     -10.999  -9.918  17.955  0.00  0.00    +0.007 A 
ATOM     17  C   UNL     1      -9.782  -7.815  16.585  0.00  0.00    +0.023 A 
ATOM     18  C   UNL     1     -11.782  -8.956  17.318  0.00  0.00    +0.023 A 
ATOM     19  C   UNL     1     -11.174  -7.905  16.633  0.00  0.00    +0.029 A 
BRANCH  19   5
ATOM      5  N   UNL     1     -11.966  -6.932  15.987  0.00  0.00    -0.336 N 
ATOM     21  C   UNL     1     -11.343  -5.821  15.296  0.00  0.00    +0.129 C 
ATOM     22  C   UNL     1     -13.412  -7.026  16.014  0.00  0.00    +0.129 C 
ENDBRANCH  19   5
ENDBRANCH  10  12
ENDBRANCH   2  10
TORSDOF 6
ENDMDL
MODEL 9
REMARK VINA RESULT:      -6.3      3.874      8.642
REMARK  Name = 51137389
REMARK  8 active torsions:
REMARK  status: ('A' for Active; 'I' for Inactive)
REMARK    1  A    between atoms: N_2  and  C_10
REMARK    2  A    between atoms: N_5  and  C_19
REMARK    3  A    between atoms: N_5  and  C_21
REMARK    4  A    between atoms: N_5  and  C_22
REMARK    5  A    between atoms: C_6  and  C_11
REMARK    6  A    between atoms: C_10  and  C_12
REMARK    7  A    between atoms: C_15  and  C_16
REMARK    8  A    between atoms: C_16  and  C_20
REMARK                            x       y       z     vdW  Elec       q    Type
REMARK                         _______ _______ _______ _____ _____    ______ ____
ROOT
ATOM      2  N   UNL     1      16.370   6.510  20.905  0.00  0.00    -0.297 NA
ATOM      6  C   UNL     1      18.671   6.694  20.346  0.00  0.00    +0.092 C 
ATOM      7  C   UNL     1      17.920   5.824  19.328  0.00  0.00    +0.029 C 
ATOM      8  C   UNL     1      17.573   7.268  21.259  0.00  0.00    +0.097 C 
ATOM      9  C   UNL     1      16.469   6.257  19.470  0.00  0.00    +0.085 C 
ENDROOT
BRANCH   6  11
ATOM      1  O   UNL     1      20.204   4.789  20.484  0.00  0.00    -0.424 OA
ATOM      3  N   UNL     1      20.372   6.220  22.196  0.00  0.00    -0.112 NA
ATOM      4  N   UNL     1      21.285   5.202  22.399  0.00  0.00    -0.112 NA
ATOM     11  C   UNL     1      19.764   5.937  21.068  0.00  0.00    +0.222 A 
ATOM     15  C   UNL     1      21.152   4.390  21.377  0.00  0.00    +0.222 A 
BRANCH  15  16
ATOM     16  C   UNL     1      21.868   3.146  21.070  0.00  0.00    +0.132 C 
BRANCH  16  20
ATOM     20  C   UNL     1      23.356   3.318  20.785  0.00  0.00    -0.038 A 
ATOM     23  C   UNL     1      23.833   4.526  20.276  0.00  0.00    +0.004 A 
ATOM     24  C   UNL     1      24.241   2.269  21.034  0.00  0.00    +0.004 A 
ATOM     25  C   UNL     1      25.195   4.685  20.016  0.00  0.00    +0.000 A 
ATOM     26  C   UNL     1      25.602   2.427  20.774  0.00  0.00    +0.000 A 
ATOM     27  C   UNL     1      26.079   3.634  20.265  0.00  0.00    +0.000 A 
ENDBRANCH  16  20
ENDBRANCH  15  16
ENDBRANCH   6  11
BRANCH   2  10
ATOM     10  C   UNL     1      15.144   7.207  21.266  0.00  0.00    +0.119 C 
BRANCH  10  12
ATOM     12  C   UNL     1      14.397   7.692  20.053  0.00  0.00    -0.033 A 
ATOM     13  C   UNL     1      13.324   6.954  19.553  0.00  0.00    +0.007 A 
ATOM     14  C   UNL     1      14.777   8.880  19.429  0.00  0.00    +0.007 A 
ATOM     17  C   UNL     1      12.632   7.404  18.429  0.00  0.00    +0.023 A 
ATOM     18  C   UNL     1      14.085   9.329  18.304  0.00  0.00    +0.023 A 
ATOM     19  C   UNL     1      13.013   8.592  17.804  0.00  0.00    +0.029 A 
BRANCH  19   5
ATOM      5  N   UNL     1      12.313   9.047  16.667  0.00  0.00    -0.336 N 
ATOM     21  C   UNL     1      12.994   9.817  15.645  0.00  0.00    +0.129 C 
ATOM     22  C   UNL     1      10.901   8.758  16.511  0.00  0.00    +0.129 C 
ENDBRANCH  19   5
ENDBRANCH  10  12
ENDBRANCH   2  10
TORSDOF 6
ENDMDL
MODEL 10
REMARK VINA RESULT:      -6.3     29.169     32.856
REMARK  Name = 51137389
REMARK  8 active torsions:
REMARK  status: ('A' for Active; 'I' for Inactive)
REMARK    1  A    between atoms: N_2  and  C_10
REMARK    2  A    between atoms: N_5  and  C_19
REMARK    3  A    between atoms: N_5  and  C_21
REMARK    4  A    between atoms: N_5  and  C_22
REMARK    5  A    between atoms: C_6  and  C_11
REMARK    6  A    between atoms: C_10  and  C_12
REMARK    7  A    between atoms: C_15  and  C_16
REMARK    8  A    between atoms: C_16  and  C_20
REMARK                            x       y       z     vdW  Elec       q    Type
REMARK                         _______ _______ _______ _____ _____    ______ ____
ROOT
ATOM      2  N   UNL     1     -17.119   3.463  25.428  0.00  0.00    -0.297 NA
ATOM      6  C   UNL     1     -16.985   4.638  23.368  0.00  0.00    +0.092 C 
ATOM      7  C   UNL     1     -17.290   3.150  23.140  0.00  0.00    +0.029 C 
ATOM      8  C   UNL     1     -17.062   4.827  24.894  0.00  0.00    +0.097 C 
ATOM      9  C   UNL     1     -17.891   2.689  24.458  0.00  0.00    +0.085 C 
ENDROOT
BRANCH   6  11
ATOM      1  O   UNL     1     -15.469   6.408  22.616  0.00  0.00    -0.424 OA
ATOM      3  N   UNL     1     -14.685   4.338  22.290  0.00  0.00    -0.112 NA
ATOM      4  N   UNL     1     -13.737   5.231  21.826  0.00  0.00    -0.112 NA
ATOM     11  C   UNL     1     -15.677   5.069  22.742  0.00  0.00    +0.222 A 
ATOM     15  C   UNL     1     -14.237   6.427  22.036  0.00  0.00    +0.222 A 
BRANCH  15  16
ATOM     16  C   UNL     1     -13.663   7.746  21.741  0.00  0.00    +0.132 C 
BRANCH  16  20
ATOM     20  C   UNL     1     -12.976   7.856  20.385  0.00  0.00    -0.038 A 
ATOM     23  C   UNL     1     -11.583   7.835  20.305  0.00  0.00    +0.004 A 
ATOM     24  C   UNL     1     -13.739   7.976  19.224  0.00  0.00    +0.004 A 
ATOM     25  C   UNL     1     -10.954   7.935  19.065  0.00  0.00    +0.000 A 
ATOM     26  C   UNL     1     -13.110   8.076  17.983  0.00  0.00    +0.000 A 
ATOM     27  C   UNL     1     -11.718   8.055  17.903  0.00  0.00    +0.000 A 
ENDBRANCH  16  20
ENDBRANCH  15  16
ENDBRANCH   6  11
BRANCH   2  10
ATOM     10  C   UNL     1     -17.689   3.410  26.766  0.00  0.00    +0.119 C 
BRANCH  10  12
ATOM     12  C   UNL     1     -16.742   2.786  27.755  0.00  0.00    -0.033 A 
ATOM     13  C   UNL     1     -16.737   1.403  27.940  0.00  0.00    +0.007 A 
ATOM     14  C   UNL     1     -15.869   3.591  28.487  0.00  0.00    +0.007 A 
ATOM     17  C   UNL     1     -15.860   0.826  28.857  0.00  0.00    +0.023 A 
ATOM     18  C   UNL     1     -14.992   3.013  29.405  0.00  0.00    +0.023 A 
ATOM     19  C   UNL     1     -14.987   1.631  29.590  0.00  0.00    +0.029 A 
BRANCH  19   5
ATOM      5  N   UNL     1     -14.099   1.046  30.517  0.00  0.00    -0.336 N 
ATOM     21  C   UNL     1     -13.463  -0.223  30.224  0.00  0.00    +0.129 C 
ATOM     22  C   UNL     1     -13.818   1.702  31.779  0.00  0.00    +0.129 C 
ENDBRANCH  19   5
ENDBRANCH  10  12
ENDBRANCH   2  10
TORSDOF 6
ENDMDL
