MODEL 1
REMARK VINA RESULT:      -6.7      0.000      0.000
REMARK  Name = 75536918
REMARK  6 active torsions:
REMARK  status: ('A' for Active; 'I' for Inactive)
REMARK    1  A    between atoms: O_2  and  C_7
REMARK    2  A    between atoms: O_2  and  C_13
REMARK    3  A    between atoms: O_3  and  C_19
REMARK    4  A    between atoms: O_3  and  C_23
REMARK    5  A    between atoms: N_4  and  C_10
REMARK    6  A    between atoms: C_10  and  C_12
REMARK                            x       y       z     vdW  Elec       q    Type
REMARK                         _______ _______ _______ _____ _____    ______ ____
ROOT
ATOM      1  O   UNL     1      13.287   8.688  17.258  0.00  0.00    -0.375 OA
ATOM      4  N   UNL     1      12.131   8.281  19.861  0.00  0.00    -0.292 NA
ATOM      6  C   UNL     1      12.984   7.095  19.789  0.00  0.00    +0.131 C 
ATOM      7  C   UNL     1      14.318   7.420  19.105  0.00  0.00    +0.213 C 
ATOM      8  C   UNL     1      11.304   8.510  18.672  0.00  0.00    +0.113 C 
ATOM      9  C   UNL     1      14.239   7.690  17.604  0.00  0.00    +0.205 C 
ATOM     11  C   UNL     1      11.951   8.205  17.322  0.00  0.00    +0.175 C 
ENDROOT
BRANCH   7   2
ATOM      2  O   UNL     1      15.202   6.319  19.321  0.00  0.00    -0.485 OA
BRANCH   2  13
ATOM     13  C   UNL     1      16.407   6.607  19.900  0.00  0.00    +0.121 A 
ATOM     17  C   UNL     1      16.509   7.655  20.815  0.00  0.00    +0.045 A 
ATOM     18  C   UNL     1      17.535   5.854  19.574  0.00  0.00    +0.045 A 
ATOM     20  C   UNL     1      17.739   7.949  21.405  0.00  0.00    +0.004 A 
ATOM     21  C   UNL     1      18.764   6.147  20.164  0.00  0.00    +0.004 A 
ATOM     22  C   UNL     1      18.866   7.195  21.079  0.00  0.00    +0.000 A 
ENDBRANCH   2  13
ENDBRANCH   7   2
BRANCH   4  10
ATOM     10  C   UNL     1      11.290   8.264  21.059  0.00  0.00    +0.121 C 
BRANCH  10  12
ATOM      5  N   UNL     1      10.843  10.860  23.778  0.00  0.00    -0.221 NA
ATOM     12  C   UNL     1      11.302   9.590  21.772  0.00  0.00    -0.015 A 
ATOM     14  C   UNL     1      11.755  10.741  21.138  0.00  0.00    +0.011 A 
ATOM     15  C   UNL     1      10.860   9.702  23.081  0.00  0.00    +0.119 A 
ATOM     16  C   UNL     1      11.755  11.951  21.822  0.00  0.00    +0.067 A 
ATOM     19  C   UNL     1      11.293  11.957  23.129  0.00  0.00    +0.214 A 
BRANCH  19   3
ATOM      3  O   UNL     1      11.282  13.138  23.824  0.00  0.00    -0.480 OA
ATOM     23  C   UNL     1      10.544  13.159  25.041  0.00  0.00    +0.279 C 
ENDBRANCH  19   3
ENDBRANCH  10  12
ENDBRANCH   4  10
TORSDOF 5
ENDMDL
MODEL 2
REMARK VINA RESULT:      -6.5      3.084      5.481
REMARK  Name = 75536918
REMARK  6 active torsions:
REMARK  status: ('A' for Active; 'I' for Inactive)
REMARK    1  A    between atoms: O_2  and  C_7
REMARK    2  A    between atoms: O_2  and  C_13
REMARK    3  A    between atoms: O_3  and  C_19
REMARK    4  A    between atoms: O_3  and  C_23
REMARK    5  A    between atoms: N_4  and  C_10
REMARK    6  A    between atoms: C_10  and  C_12
REMARK                            x       y       z     vdW  Elec       q    Type
REMARK                         _______ _______ _______ _____ _____    ______ ____
ROOT
ATOM      1  O   UNL     1      11.837   6.772  20.097  0.00  0.00    -0.375 OA
ATOM      4  N   UNL     1      12.822   9.357  19.302  0.00  0.00    -0.292 NA
ATOM      6  C   UNL     1      13.764   9.061  20.381  0.00  0.00    +0.131 C 
ATOM      7  C   UNL     1      14.151   7.577  20.380  0.00  0.00    +0.213 C 
ATOM      8  C   UNL     1      11.414   9.134  19.647  0.00  0.00    +0.113 C 
ATOM      9  C   UNL     1      13.053   6.611  20.818  0.00  0.00    +0.205 C 
ATOM     11  C   UNL     1      11.108   7.918  20.518  0.00  0.00    +0.175 C 
ENDROOT
BRANCH   7   2
ATOM      2  O   UNL     1      15.271   7.414  21.253  0.00  0.00    -0.485 OA
BRANCH   2  13
ATOM     13  C   UNL     1      16.393   6.853  20.709  0.00  0.00    +0.121 A 
ATOM     17  C   UNL     1      17.617   6.959  21.370  0.00  0.00    +0.045 A 
ATOM     18  C   UNL     1      16.315   6.174  19.493  0.00  0.00    +0.045 A 
ATOM     20  C   UNL     1      18.762   6.387  20.816  0.00  0.00    +0.004 A 
ATOM     21  C   UNL     1      17.459   5.603  18.938  0.00  0.00    +0.004 A 
ATOM     22  C   UNL     1      18.683   5.708  19.599  0.00  0.00    +0.000 A 
ENDBRANCH   2  13
ENDBRANCH   7   2
BRANCH   4  10
ATOM     10  C   UNL     1      13.003  10.715  18.789  0.00  0.00    +0.121 C 
BRANCH  10  12
ATOM      5  N   UNL     1      14.012   9.662  15.295  0.00  0.00    -0.221 NA
ATOM     12  C   UNL     1      13.679  10.721  17.444  0.00  0.00    -0.015 A 
ATOM     14  C   UNL     1      14.564  11.733  17.090  0.00  0.00    +0.011 A 
ATOM     15  C   UNL     1      13.439   9.717  16.518  0.00  0.00    +0.119 A 
ATOM     16  C   UNL     1      15.172  11.712  15.840  0.00  0.00    +0.067 A 
ATOM     19  C   UNL     1      14.865  10.664  14.987  0.00  0.00    +0.214 A 
BRANCH  19   3
ATOM      3  O   UNL     1      15.453  10.621  13.750  0.00  0.00    -0.480 OA
ATOM     23  C   UNL     1      15.574  11.857  13.054  0.00  0.00    +0.279 C 
ENDBRANCH  19   3
ENDBRANCH  10  12
ENDBRANCH   4  10
TORSDOF 5
ENDMDL
MODEL 3
REMARK VINA RESULT:      -6.0     28.311     31.227
REMARK  Name = 75536918
REMARK  6 active torsions:
REMARK  status: ('A' for Active; 'I' for Inactive)
REMARK    1  A    between atoms: O_2  and  C_7
REMARK    2  A    between atoms: O_2  and  C_13
REMARK    3  A    between atoms: O_3  and  C_19
REMARK    4  A    between atoms: O_3  and  C_23
REMARK    5  A    between atoms: N_4  and  C_10
REMARK    6  A    between atoms: C_10  and  C_12
REMARK                            x       y       z     vdW  Elec       q    Type
REMARK                         _______ _______ _______ _____ _____    ______ ____
ROOT
ATOM      1  O   UNL     1     -16.751   5.240  33.787  0.00  0.00    -0.375 OA
ATOM      4  N   UNL     1     -16.041   4.893  31.020  0.00  0.00    -0.292 NA
ATOM      6  C   UNL     1     -16.084   6.354  31.077  0.00  0.00    +0.131 C 
ATOM      7  C   UNL     1     -15.517   6.869  32.406  0.00  0.00    +0.213 C 
ATOM      8  C   UNL     1     -17.205   4.227  31.612  0.00  0.00    +0.113 C 
ATOM      9  C   UNL     1     -16.383   6.606  33.636  0.00  0.00    +0.205 C 
ATOM     11  C   UNL     1     -17.777   4.853  32.882  0.00  0.00    +0.175 C 
ENDROOT
BRANCH   7   2
ATOM      2  O   UNL     1     -15.322   8.278  32.284  0.00  0.00    -0.485 OA
BRANCH   2  13
ATOM     13  C   UNL     1     -14.086   8.691  31.869  0.00  0.00    +0.121 A 
ATOM     17  C   UNL     1     -12.938   8.107  32.406  0.00  0.00    +0.045 A 
ATOM     18  C   UNL     1     -13.972   9.695  30.908  0.00  0.00    +0.045 A 
ATOM     20  C   UNL     1     -11.677   8.528  31.983  0.00  0.00    +0.004 A 
ATOM     21  C   UNL     1     -12.712  10.116  30.484  0.00  0.00    +0.004 A 
ATOM     22  C   UNL     1     -11.565   9.533  31.021  0.00  0.00    +0.000 A 
ENDBRANCH   2  13
ENDBRANCH   7   2
BRANCH   4  10
ATOM     10  C   UNL     1     -15.832   4.416  29.653  0.00  0.00    +0.121 C 
BRANCH  10  12
ATOM      5  N   UNL     1     -15.885   0.694  28.963  0.00  0.00    -0.221 NA
ATOM     12  C   UNL     1     -15.409   2.972  29.621  0.00  0.00    -0.015 A 
ATOM     14  C   UNL     1     -14.207   2.564  30.188  0.00  0.00    +0.011 A 
ATOM     15  C   UNL     1     -16.205   2.005  29.025  0.00  0.00    +0.119 A 
ATOM     16  C   UNL     1     -13.842   1.223  30.143  0.00  0.00    +0.067 A 
ATOM     19  C   UNL     1     -14.709   0.336  29.524  0.00  0.00    +0.214 A 
BRANCH  19   3
ATOM      3  O   UNL     1     -14.372  -0.992  29.468  0.00  0.00    -0.480 OA
ATOM     23  C   UNL     1     -12.991  -1.295  29.304  0.00  0.00    +0.279 C 
ENDBRANCH  19   3
ENDBRANCH  10  12
ENDBRANCH   4  10
TORSDOF 5
ENDMDL
MODEL 4
REMARK VINA RESULT:      -5.9     27.121     28.348
REMARK  Name = 75536918
REMARK  6 active torsions:
REMARK  status: ('A' for Active; 'I' for Inactive)
REMARK    1  A    between atoms: O_2  and  C_7
REMARK    2  A    between atoms: O_2  and  C_13
REMARK    3  A    between atoms: O_3  and  C_19
REMARK    4  A    between atoms: O_3  and  C_23
REMARK    5  A    between atoms: N_4  and  C_10
REMARK    6  A    between atoms: C_10  and  C_12
REMARK                            x       y       z     vdW  Elec       q    Type
REMARK                         _______ _______ _______ _____ _____    ______ ____
ROOT
ATOM      1  O   UNL     1      -4.875 -13.584  14.043  0.00  0.00    -0.375 OA
ATOM      4  N   UNL     1      -4.674 -11.352  15.848  0.00  0.00    -0.292 NA
ATOM      6  C   UNL     1      -3.690 -10.941  14.846  0.00  0.00    +0.131 C 
ATOM      7  C   UNL     1      -4.164 -11.303  13.433  0.00  0.00    +0.213 C 
ATOM      8  C   UNL     1      -4.531 -12.737  16.308  0.00  0.00    +0.113 C 
ATOM      9  C   UNL     1      -4.162 -12.793  13.100  0.00  0.00    +0.205 C 
ATOM     11  C   UNL     1      -4.148 -13.771  15.251  0.00  0.00    +0.175 C 
ENDROOT
BRANCH   7   2
ATOM      2  O   UNL     1      -3.316 -10.631  12.500  0.00  0.00    -0.485 OA
BRANCH   2  13
ATOM     13  C   UNL     1      -3.938  -9.912  11.517  0.00  0.00    +0.121 A 
ATOM     17  C   UNL     1      -5.241  -9.451  11.708  0.00  0.00    +0.045 A 
ATOM     18  C   UNL     1      -3.270  -9.639  10.323  0.00  0.00    +0.045 A 
ATOM     20  C   UNL     1      -5.875  -8.717  10.704  0.00  0.00    +0.004 A 
ATOM     21  C   UNL     1      -3.904  -8.907   9.320  0.00  0.00    +0.004 A 
ATOM     22  C   UNL     1      -5.207  -8.446   9.511  0.00  0.00    +0.000 A 
ENDBRANCH   2  13
ENDBRANCH   7   2
BRANCH   4  10
ATOM     10  C   UNL     1      -4.682 -10.443  16.995  0.00  0.00    +0.121 C 
BRANCH  10  12
ATOM      5  N   UNL     1      -6.955 -10.951  19.979  0.00  0.00    -0.221 NA
ATOM     12  C   UNL     1      -5.935 -10.588  17.817  0.00  0.00    -0.015 A 
ATOM     14  C   UNL     1      -7.192 -10.504  17.230  0.00  0.00    +0.011 A 
ATOM     15  C   UNL     1      -5.871 -10.811  19.184  0.00  0.00    +0.119 A 
ATOM     16  C   UNL     1      -8.331 -10.642  18.015  0.00  0.00    +0.067 A 
ATOM     19  C   UNL     1      -8.160 -10.862  19.373  0.00  0.00    +0.214 A 
BRANCH  19   3
ATOM      3  O   UNL     1      -9.268 -11.002  20.168  0.00  0.00    -0.480 OA
ATOM     23  C   UNL     1     -10.454 -10.346  19.735  0.00  0.00    +0.279 C 
ENDBRANCH  19   3
ENDBRANCH  10  12
ENDBRANCH   4  10
TORSDOF 5
ENDMDL
MODEL 5
REMARK VINA RESULT:      -5.9     29.833     31.281
REMARK  Name = 75536918
REMARK  6 active torsions:
REMARK  status: ('A' for Active; 'I' for Inactive)
REMARK    1  A    between atoms: O_2  and  C_7
REMARK    2  A    between atoms: O_2  and  C_13
REMARK    3  A    between atoms: O_3  and  C_19
REMARK    4  A    between atoms: O_3  and  C_23
REMARK    5  A    between atoms: N_4  and  C_10
REMARK    6  A    between atoms: C_10  and  C_12
REMARK                            x       y       z     vdW  Elec       q    Type
REMARK                         _______ _______ _______ _____ _____    ______ ____
ROOT
ATOM      1  O   UNL     1     -13.429   1.236  30.448  0.00  0.00    -0.375 OA
ATOM      4  N   UNL     1     -15.937   1.901  29.203  0.00  0.00    -0.292 NA
ATOM      6  C   UNL     1     -16.166   2.476  30.528  0.00  0.00    +0.131 C 
ATOM      7  C   UNL     1     -14.888   3.125  31.073  0.00  0.00    +0.213 C 
ATOM      8  C   UNL     1     -15.416   0.530  29.217  0.00  0.00    +0.113 C 
ATOM      9  C   UNL     1     -13.779   2.156  31.476  0.00  0.00    +0.205 C 
ATOM     11  C   UNL     1     -14.392   0.200  30.300  0.00  0.00    +0.175 C 
ENDROOT
BRANCH   7   2
ATOM      2  O   UNL     1     -15.243   3.905  32.215  0.00  0.00    -0.485 OA
BRANCH   2  13
ATOM     13  C   UNL     1     -14.950   5.240  32.159  0.00  0.00    +0.121 A 
ATOM     17  C   UNL     1     -15.820   6.118  31.512  0.00  0.00    +0.045 A 
ATOM     18  C   UNL     1     -13.782   5.723  32.748  0.00  0.00    +0.045 A 
ATOM     20  C   UNL     1     -15.521   7.480  31.455  0.00  0.00    +0.004 A 
ATOM     21  C   UNL     1     -13.483   7.084  32.690  0.00  0.00    +0.004 A 
ATOM     22  C   UNL     1     -14.352   7.963  32.044  0.00  0.00    +0.000 A 
ENDBRANCH   2  13
ENDBRANCH   7   2
BRANCH   4  10
ATOM     10  C   UNL     1     -17.141   1.970  28.373  0.00  0.00    +0.121 C 
BRANCH  10  12
ATOM      5  N   UNL     1     -16.666   1.639  24.632  0.00  0.00    -0.221 NA
ATOM     12  C   UNL     1     -16.818   2.325  26.946  0.00  0.00    -0.015 A 
ATOM     14  C   UNL     1     -16.390   3.602  26.603  0.00  0.00    +0.011 A 
ATOM     15  C   UNL     1     -16.939   1.387  25.932  0.00  0.00    +0.119 A 
ATOM     16  C   UNL     1     -16.101   3.900  25.277  0.00  0.00    +0.067 A 
ATOM     19  C   UNL     1     -16.254   2.893  24.337  0.00  0.00    +0.214 A 
BRANCH  19   3
ATOM      3  O   UNL     1     -15.973   3.162  23.023  0.00  0.00    -0.480 OA
ATOM     23  C   UNL     1     -15.661   4.511  22.698  0.00  0.00    +0.279 C 
ENDBRANCH  19   3
ENDBRANCH  10  12
ENDBRANCH   4  10
TORSDOF 5
ENDMDL
MODEL 6
REMARK VINA RESULT:      -5.8     26.340     27.885
REMARK  Name = 75536918
REMARK  6 active torsions:
REMARK  status: ('A' for Active; 'I' for Inactive)
REMARK    1  A    between atoms: O_2  and  C_7
REMARK    2  A    between atoms: O_2  and  C_13
REMARK    3  A    between atoms: O_3  and  C_19
REMARK    4  A    between atoms: O_3  and  C_23
REMARK    5  A    between atoms: N_4  and  C_10
REMARK    6  A    between atoms: C_10  and  C_12
REMARK                            x       y       z     vdW  Elec       q    Type
REMARK                         _______ _______ _______ _____ _____    ______ ____
ROOT
ATOM      1  O   UNL     1      -2.992 -13.244  12.500  0.00  0.00    -0.375 OA
ATOM      4  N   UNL     1      -2.868 -11.342  14.656  0.00  0.00    -0.292 NA
ATOM      6  C   UNL     1      -2.523 -10.463  13.539  0.00  0.00    +0.131 C 
ATOM      7  C   UNL     1      -3.345 -10.812  12.292  0.00  0.00    +0.213 C 
ATOM      8  C   UNL     1      -2.121 -12.604  14.690  0.00  0.00    +0.113 C 
ATOM      9  C   UNL     1      -2.983 -12.131  11.614  0.00  0.00    +0.205 C 
ATOM     11  C   UNL     1      -1.847 -13.271  13.344  0.00  0.00    +0.175 C 
ENDROOT
BRANCH   7   2
ATOM      2  O   UNL     1      -3.177  -9.756  11.345  0.00  0.00    -0.485 OA
BRANCH   2  13
ATOM     13  C   UNL     1      -4.250  -9.476  10.544  0.00  0.00    +0.121 A 
ATOM     17  C   UNL     1      -5.466  -9.100  11.115  0.00  0.00    +0.045 A 
ATOM     18  C   UNL     1      -4.129  -9.568   9.158  0.00  0.00    +0.045 A 
ATOM     20  C   UNL     1      -6.561  -8.815  10.298  0.00  0.00    +0.004 A 
ATOM     21  C   UNL     1      -5.222  -9.283   8.342  0.00  0.00    +0.004 A 
ATOM     22  C   UNL     1      -6.439  -8.907   8.911  0.00  0.00    +0.000 A 
ENDBRANCH   2  13
ENDBRANCH   7   2
BRANCH   4  10
ATOM     10  C   UNL     1      -2.743 -10.652  15.940  0.00  0.00    +0.121 C 
BRANCH  10  12
ATOM      5  N   UNL     1      -6.352  -9.819  16.724  0.00  0.00    -0.221 NA
ATOM     12  C   UNL     1      -4.057 -10.582  16.670  0.00  0.00    -0.015 A 
ATOM     14  C   UNL     1      -4.219 -11.179  17.915  0.00  0.00    +0.011 A 
ATOM     15  C   UNL     1      -5.145  -9.920  16.122  0.00  0.00    +0.119 A 
ATOM     16  C   UNL     1      -5.446 -11.098  18.565  0.00  0.00    +0.067 A 
ATOM     19  C   UNL     1      -6.471 -10.413  17.933  0.00  0.00    +0.214 A 
BRANCH  19   3
ATOM      3  O   UNL     1      -7.689 -10.319  18.553  0.00  0.00    -0.480 OA
ATOM     23  C   UNL     1      -8.104 -11.441  19.324  0.00  0.00    +0.279 C 
ENDBRANCH  19   3
ENDBRANCH  10  12
ENDBRANCH   4  10
TORSDOF 5
ENDMDL
MODEL 7
REMARK VINA RESULT:      -5.7     14.505     17.835
REMARK  Name = 75536918
REMARK  6 active torsions:
REMARK  status: ('A' for Active; 'I' for Inactive)
REMARK    1  A    between atoms: O_2  and  C_7
REMARK    2  A    between atoms: O_2  and  C_13
REMARK    3  A    between atoms: O_3  and  C_19
REMARK    4  A    between atoms: O_3  and  C_23
REMARK    5  A    between atoms: N_4  and  C_10
REMARK    6  A    between atoms: C_10  and  C_12
REMARK                            x       y       z     vdW  Elec       q    Type
REMARK                         _______ _______ _______ _____ _____    ______ ____
ROOT
ATOM      1  O   UNL     1      11.508   9.267   2.433  0.00  0.00    -0.375 OA
ATOM      4  N   UNL     1       9.344   7.945   3.793  0.00  0.00    -0.292 NA
ATOM      6  C   UNL     1       9.244   7.291   2.489  0.00  0.00    +0.131 C 
ATOM      7  C   UNL     1      10.635   7.023   1.901  0.00  0.00    +0.213 C 
ATOM      8  C   UNL     1       9.446   9.406   3.735  0.00  0.00    +0.113 C 
ATOM      9  C   UNL     1      11.402   8.258   1.436  0.00  0.00    +0.205 C 
ATOM     11  C   UNL     1      10.293   9.987   2.604  0.00  0.00    +0.175 C 
ENDROOT
BRANCH   7   2
ATOM      2  O   UNL     1      10.479   6.142   0.787  0.00  0.00    -0.485 OA
BRANCH   2  13
ATOM     13  C   UNL     1      11.380   5.117   0.688  0.00  0.00    +0.121 A 
ATOM     17  C   UNL     1      11.760   4.642  -0.567  0.00  0.00    +0.045 A 
ATOM     18  C   UNL     1      11.917   4.547   1.841  0.00  0.00    +0.045 A 
ATOM     20  C   UNL     1      12.679   3.597  -0.669  0.00  0.00    +0.004 A 
ATOM     21  C   UNL     1      12.835   3.501   1.741  0.00  0.00    +0.004 A 
ATOM     22  C   UNL     1      13.216   3.026   0.486  0.00  0.00    +0.000 A 
ENDBRANCH   2  13
ENDBRANCH   7   2
BRANCH   4  10
ATOM     10  C   UNL     1       8.242   7.555   4.674  0.00  0.00    +0.121 C 
BRANCH  10  12
ATOM      5  N   UNL     1       9.797   4.792   6.743  0.00  0.00    -0.221 NA
ATOM     12  C   UNL     1       8.726   6.776   5.867  0.00  0.00    -0.015 A 
ATOM     14  C   UNL     1       8.573   7.271   7.158  0.00  0.00    +0.011 A 
ATOM     15  C   UNL     1       9.340   5.542   5.715  0.00  0.00    +0.119 A 
ATOM     16  C   UNL     1       9.031   6.529   8.240  0.00  0.00    +0.067 A 
ATOM     19  C   UNL     1       9.631   5.306   7.982  0.00  0.00    +0.214 A 
BRANCH  19   3
ATOM      3  O   UNL     1      10.090   4.556   9.033  0.00  0.00    -0.480 OA
ATOM     23  C   UNL     1       9.318   4.588  10.227  0.00  0.00    +0.279 C 
ENDBRANCH  19   3
ENDBRANCH  10  12
ENDBRANCH   4  10
TORSDOF 5
ENDMDL
MODEL 8
REMARK VINA RESULT:      -5.6      3.280      7.048
REMARK  Name = 75536918
REMARK  6 active torsions:
REMARK  status: ('A' for Active; 'I' for Inactive)
REMARK    1  A    between atoms: O_2  and  C_7
REMARK    2  A    between atoms: O_2  and  C_13
REMARK    3  A    between atoms: O_3  and  C_19
REMARK    4  A    between atoms: O_3  and  C_23
REMARK    5  A    between atoms: N_4  and  C_10
REMARK    6  A    between atoms: C_10  and  C_12
REMARK                            x       y       z     vdW  Elec       q    Type
REMARK                         _______ _______ _______ _____ _____    ______ ____
ROOT
ATOM      1  O   UNL     1      12.921   9.723  21.515  0.00  0.00    -0.375 OA
ATOM      4  N   UNL     1      14.608   7.755  20.264  0.00  0.00    -0.292 NA
ATOM      6  C   UNL     1      13.871   8.222  19.090  0.00  0.00    +0.131 C 
ATOM      7  C   UNL     1      13.639   9.737  19.155  0.00  0.00    +0.213 C 
ATOM      8  C   UNL     1      13.766   7.433  21.421  0.00  0.00    +0.113 C 
ATOM      9  C   UNL     1      12.635  10.203  20.207  0.00  0.00    +0.205 C 
ATOM     11  C   UNL     1      12.573   8.353  21.675  0.00  0.00    +0.175 C 
ENDROOT
BRANCH   7   2
ATOM      2  O   UNL     1      13.181  10.168  17.872  0.00  0.00    -0.485 OA
BRANCH   2  13
ATOM     13  C   UNL     1      14.130  10.657  17.017  0.00  0.00    +0.121 A 
ATOM     17  C   UNL     1      14.225  10.154  15.719  0.00  0.00    +0.045 A 
ATOM     18  C   UNL     1      15.003  11.657  17.443  0.00  0.00    +0.045 A 
ATOM     20  C   UNL     1      15.193  10.653  14.847  0.00  0.00    +0.004 A 
ATOM     21  C   UNL     1      15.971  12.156  16.572  0.00  0.00    +0.004 A 
ATOM     22  C   UNL     1      16.066  11.654  15.274  0.00  0.00    +0.000 A 
ENDBRANCH   2  13
ENDBRANCH   7   2
BRANCH   4  10
ATOM     10  C   UNL     1      15.468   6.617  19.939  0.00  0.00    +0.121 C 
BRANCH  10  12
ATOM      5  N   UNL     1      19.215   6.174  20.247  0.00  0.00    -0.221 NA
ATOM     12  C   UNL     1      16.898   6.862  20.338  0.00  0.00    -0.015 A 
ATOM     14  C   UNL     1      17.245   7.949  21.133  0.00  0.00    +0.011 A 
ATOM     15  C   UNL     1      17.912   6.012  19.924  0.00  0.00    +0.119 A 
ATOM     16  C   UNL     1      18.574   8.150  21.484  0.00  0.00    +0.067 A 
ATOM     19  C   UNL     1      19.513   7.242  21.020  0.00  0.00    +0.214 A 
BRANCH  19   3
ATOM      3  O   UNL     1      20.830   7.418  21.354  0.00  0.00    -0.480 OA
ATOM     23  C   UNL     1      21.796   6.862  20.469  0.00  0.00    +0.279 C 
ENDBRANCH  19   3
ENDBRANCH  10  12
ENDBRANCH   4  10
TORSDOF 5
ENDMDL
MODEL 9
REMARK VINA RESULT:      -5.6      3.123      6.544
REMARK  Name = 75536918
REMARK  6 active torsions:
REMARK  status: ('A' for Active; 'I' for Inactive)
REMARK    1  A    between atoms: O_2  and  C_7
REMARK    2  A    between atoms: O_2  and  C_13
REMARK    3  A    between atoms: O_3  and  C_19
REMARK    4  A    between atoms: O_3  and  C_23
REMARK    5  A    between atoms: N_4  and  C_10
REMARK    6  A    between atoms: C_10  and  C_12
REMARK                            x       y       z     vdW  Elec       q    Type
REMARK                         _______ _______ _______ _____ _____    ______ ____
ROOT
ATOM      1  O   UNL     1      11.637   8.890  22.433  0.00  0.00    -0.375 OA
ATOM      4  N   UNL     1      13.250   7.590  20.436  0.00  0.00    -0.292 NA
ATOM      6  C   UNL     1      12.916   8.817  19.714  0.00  0.00    +0.131 C 
ATOM      7  C   UNL     1      12.918  10.026  20.658  0.00  0.00    +0.213 C 
ATOM      8  C   UNL     1      12.105   6.922  21.064  0.00  0.00    +0.113 C 
ATOM      9  C   UNL     1      11.769  10.078  21.663  0.00  0.00    +0.205 C 
ATOM     11  C   UNL     1      11.048   7.828  21.693  0.00  0.00    +0.175 C 
ENDROOT
BRANCH   7   2
ATOM      2  O   UNL     1      12.871  11.209  19.858  0.00  0.00    -0.485 OA
BRANCH   2  13
ATOM     13  C   UNL     1      14.064  11.656  19.359  0.00  0.00    +0.121 A 
ATOM     17  C   UNL     1      14.113  12.251  18.098  0.00  0.00    +0.045 A 
ATOM     18  C   UNL     1      15.230  11.518  20.111  0.00  0.00    +0.045 A 
ATOM     20  C   UNL     1      15.329  12.707  17.589  0.00  0.00    +0.004 A 
ATOM     21  C   UNL     1      16.446  11.973  19.602  0.00  0.00    +0.004 A 
ATOM     22  C   UNL     1      16.496  12.568  18.341  0.00  0.00    +0.000 A 
ENDBRANCH   2  13
ENDBRANCH   7   2
BRANCH   4  10
ATOM     10  C   UNL     1      13.973   6.646  19.582  0.00  0.00    +0.121 C 
BRANCH  10  12
ATOM      5  N   UNL     1      17.699   6.096  19.200  0.00  0.00    -0.221 NA
ATOM     12  C   UNL     1      15.443   6.612  19.903  0.00  0.00    -0.015 A 
ATOM     14  C   UNL     1      15.918   7.038  21.138  0.00  0.00    +0.011 A 
ATOM     15  C   UNL     1      16.367   6.154  18.976  0.00  0.00    +0.119 A 
ATOM     16  C   UNL     1      17.282   6.995  21.405  0.00  0.00    +0.067 A 
ATOM     19  C   UNL     1      18.123   6.520  20.411  0.00  0.00    +0.214 A 
BRANCH  19   3
ATOM      3  O   UNL     1      19.471   6.467  20.651  0.00  0.00    -0.480 OA
ATOM     23  C   UNL     1      19.880   6.466  22.014  0.00  0.00    +0.279 C 
ENDBRANCH  19   3
ENDBRANCH  10  12
ENDBRANCH   4  10
TORSDOF 5
ENDMDL
MODEL 10
REMARK VINA RESULT:      -5.5     28.418     31.025
REMARK  Name = 75536918
REMARK  6 active torsions:
REMARK  status: ('A' for Active; 'I' for Inactive)
REMARK    1  A    between atoms: O_2  and  C_7
REMARK    2  A    between atoms: O_2  and  C_13
REMARK    3  A    between atoms: O_3  and  C_19
REMARK    4  A    between atoms: O_3  and  C_23
REMARK    5  A    between atoms: N_4  and  C_10
REMARK    6  A    between atoms: C_10  and  C_12
REMARK                            x       y       z     vdW  Elec       q    Type
REMARK                         _______ _______ _______ _____ _____    ______ ____
ROOT
ATOM      1  O   UNL     1     -14.320   4.040  34.771  0.00  0.00    -0.375 OA
ATOM      4  N   UNL     1     -13.630   3.596  32.013  0.00  0.00    -0.292 NA
ATOM      6  C   UNL     1     -14.392   4.837  31.874  0.00  0.00    +0.131 C 
ATOM      7  C   UNL     1     -14.110   5.788  33.043  0.00  0.00    +0.213 C 
ATOM      8  C   UNL     1     -14.287   2.566  32.824  0.00  0.00    +0.113 C 
ATOM      9  C   UNL     1     -14.686   5.362  34.392  0.00  0.00    +0.205 C 
ATOM     11  C   UNL     1     -15.049   3.051  34.056  0.00  0.00    +0.175 C 
ENDROOT
BRANCH   7   2
ATOM      2  O   UNL     1     -14.646   7.069  32.708  0.00  0.00    -0.485 OA
BRANCH   2  13
ATOM     13  C   UNL     1     -13.770   7.981  32.187  0.00  0.00    +0.121 A 
ATOM     17  C   UNL     1     -14.242   9.028  31.396  0.00  0.00    +0.045 A 
ATOM     18  C   UNL     1     -12.405   7.864  32.446  0.00  0.00    +0.045 A 
ATOM     20  C   UNL     1     -13.348   9.959  30.864  0.00  0.00    +0.004 A 
ATOM     21  C   UNL     1     -11.511   8.793  31.915  0.00  0.00    +0.004 A 
ATOM     22  C   UNL     1     -11.983   9.841  31.124  0.00  0.00    +0.000 A 
ENDBRANCH   2  13
ENDBRANCH   7   2
BRANCH   4  10
ATOM     10  C   UNL     1     -13.261   3.045  30.708  0.00  0.00    +0.121 C 
BRANCH  10  12
ATOM      5  N   UNL     1     -15.588   0.300  29.532  0.00  0.00    -0.221 NA
ATOM     12  C   UNL     1     -14.422   2.357  30.041  0.00  0.00    -0.015 A 
ATOM     14  C   UNL     1     -15.378   3.081  29.339  0.00  0.00    +0.011 A 
ATOM     15  C   UNL     1     -14.571   0.980  30.108  0.00  0.00    +0.119 A 
ATOM     16  C   UNL     1     -16.439   2.418  28.734  0.00  0.00    +0.067 A 
ATOM     19  C   UNL     1     -16.498   1.039  28.859  0.00  0.00    +0.214 A 
BRANCH  19   3
ATOM      3  O   UNL     1     -17.535   0.362  28.270  0.00  0.00    -0.480 OA
ATOM     23  C   UNL     1     -17.855   0.720  26.931  0.00  0.00    +0.279 C 
ENDBRANCH  19   3
ENDBRANCH  10  12
ENDBRANCH   4  10
TORSDOF 5
ENDMDL
