MODEL 1
REMARK VINA RESULT:      -6.8      0.000      0.000
REMARK  Name = 45783361
REMARK  10 active torsions:
REMARK  status: ('A' for Active; 'I' for Inactive)
REMARK    1  A    between atoms: O_2  and  C_25
REMARK    2  A    between atoms: O_2  and  C_27
REMARK    3  A    between atoms: O_3  and  C_28
REMARK    4  A    between atoms: O_3  and  C_29
REMARK    5  A    between atoms: N_4  and  C_12
REMARK    6  A    between atoms: C_8  and  C_13
REMARK    7  A    between atoms: C_12  and  C_14
REMARK    8  A    between atoms: C_17  and  C_21
REMARK    9  A    between atoms: C_20  and  C_22
REMARK   10  A    between atoms: C_27  and  C_28
REMARK                            x       y       z     vdW  Elec       q    Type
REMARK                         _______ _______ _______ _____ _____    ______ ____
ROOT
ATOM      1  O   UNL     1      14.966   9.192  19.667  0.00  0.00    -0.336 OA
ATOM      5  N   UNL     1      15.929   7.204  19.292  0.00  0.00    -0.190 NA
ATOM      6  N   UNL     1      16.128   9.169  20.447  0.00  0.00    -0.056 NA
ATOM     13  C   UNL     1      14.925   7.998  19.018  0.00  0.00    +0.245 A 
ATOM     17  C   UNL     1      16.641   7.966  20.172  0.00  0.00    +0.202 A 
ENDROOT
BRANCH  17  21
ATOM      7  N   UNL     1      20.238   6.575  21.910  0.00  0.00    -0.221 NA
ATOM     21  C   UNL     1      17.861   7.494  20.761  0.00  0.00    +0.029 A 
ATOM     23  C   UNL     1      18.488   6.362  20.255  0.00  0.00    +0.079 A 
ATOM     24  C   UNL     1      18.420   8.167  21.842  0.00  0.00    +0.031 A 
ATOM     25  C   UNL     1      19.664   5.947  20.859  0.00  0.00    +0.215 A 
ATOM     26  C   UNL     1      19.599   7.672  22.375  0.00  0.00    +0.115 A 
BRANCH  25   2
ATOM      2  O   UNL     1      20.302   4.833  20.379  0.00  0.00    -0.474 OA
BRANCH   2  27
ATOM     27  C   UNL     1      21.717   4.796  20.517  0.00  0.00    +0.258 C 
BRANCH  27  28
ATOM     28  C   UNL     1      22.113   3.507  21.212  0.00  0.00    +0.200 C 
BRANCH  28   3
ATOM      3  O   UNL     1      23.499   3.270  20.996  0.00  0.00    -0.380 OA
ATOM     29  C   UNL     1      23.788   1.880  20.942  0.00  0.00    +0.194 C 
ENDBRANCH  28   3
ENDBRANCH  27  28
ENDBRANCH   2  27
ENDBRANCH  25   2
ENDBRANCH  17  21
BRANCH  13   8
ATOM      4  N   UNL     1      12.564   8.570  18.479  0.00  0.00    -0.287 NA
ATOM      8  C   UNL     1      13.746   7.772  18.095  0.00  0.00    +0.146 C 
ATOM      9  C   UNL     1      14.041   8.184  16.642  0.00  0.00    +0.030 C 
ATOM     10  C   UNL     1      12.939   9.169  16.276  0.00  0.00    +0.017 C 
ATOM     11  C   UNL     1      11.824   8.833  17.244  0.00  0.00    +0.085 C 
BRANCH   4  12
ATOM     12  C   UNL     1      11.735   7.923  19.487  0.00  0.00    +0.120 C 
BRANCH  12  14
ATOM     14  C   UNL     1      11.498   8.817  20.676  0.00  0.00    -0.033 A 
ATOM     15  C   UNL     1      10.908   8.301  21.829  0.00  0.00    +0.005 A 
ATOM     16  C   UNL     1      11.866  10.161  20.623  0.00  0.00    +0.005 A 
ATOM     18  C   UNL     1      10.686   9.129  22.930  0.00  0.00    +0.003 A 
ATOM     19  C   UNL     1      11.643  10.990  21.723  0.00  0.00    +0.003 A 
ATOM     20  C   UNL     1      11.054  10.474  22.876  0.00  0.00    -0.050 A 
ATOM     22  C   UNL     1      10.814  11.359  24.052  0.00  0.00    +0.044 C 
ENDBRANCH  12  14
ENDBRANCH   4  12
ENDBRANCH  13   8
TORSDOF 8
ENDMDL
MODEL 2
REMARK VINA RESULT:      -6.4     26.454     29.933
REMARK  Name = 45783361
REMARK  10 active torsions:
REMARK  status: ('A' for Active; 'I' for Inactive)
REMARK    1  A    between atoms: O_2  and  C_25
REMARK    2  A    between atoms: O_2  and  C_27
REMARK    3  A    between atoms: O_3  and  C_28
REMARK    4  A    between atoms: O_3  and  C_29
REMARK    5  A    between atoms: N_4  and  C_12
REMARK    6  A    between atoms: C_8  and  C_13
REMARK    7  A    between atoms: C_12  and  C_14
REMARK    8  A    between atoms: C_17  and  C_21
REMARK    9  A    between atoms: C_20  and  C_22
REMARK   10  A    between atoms: C_27  and  C_28
REMARK                            x       y       z     vdW  Elec       q    Type
REMARK                         _______ _______ _______ _____ _____    ______ ____
ROOT
ATOM      1  O   UNL     1      -4.211 -11.884  17.725  0.00  0.00    -0.336 OA
ATOM      5  N   UNL     1      -5.352 -10.603  16.285  0.00  0.00    -0.190 NA
ATOM      6  N   UNL     1      -5.447 -11.627  18.328  0.00  0.00    -0.056 NA
ATOM     13  C   UNL     1      -4.238 -11.246  16.525  0.00  0.00    +0.245 A 
ATOM     17  C   UNL     1      -6.064 -10.866  17.419  0.00  0.00    +0.202 A 
ENDROOT
BRANCH  17  21
ATOM      7  N   UNL     1      -9.971  -9.351  17.992  0.00  0.00    -0.221 NA
ATOM     21  C   UNL     1      -7.389 -10.353  17.613  0.00  0.00    +0.029 A 
ATOM     23  C   UNL     1      -7.830  -9.261  16.874  0.00  0.00    +0.079 A 
ATOM     24  C   UNL     1      -8.237 -10.943  18.543  0.00  0.00    +0.031 A 
ATOM     25  C   UNL     1      -9.118  -8.803  17.098  0.00  0.00    +0.215 A 
ATOM     26  C   UNL     1      -9.507 -10.410  18.693  0.00  0.00    +0.115 A 
BRANCH  25   2
ATOM      2  O   UNL     1      -9.576  -7.727  16.382  0.00  0.00    -0.474 OA
BRANCH   2  27
ATOM     27  C   UNL     1     -10.867  -7.235  16.722  0.00  0.00    +0.258 C 
BRANCH  27  28
ATOM     28  C   UNL     1     -11.097  -5.918  16.007  0.00  0.00    +0.200 C 
BRANCH  28   3
ATOM      3  O   UNL     1     -12.408  -5.914  15.453  0.00  0.00    -0.380 OA
ATOM     29  C   UNL     1     -12.378  -6.091  14.044  0.00  0.00    +0.194 C 
ENDBRANCH  28   3
ENDBRANCH  27  28
ENDBRANCH   2  27
ENDBRANCH  25   2
ENDBRANCH  17  21
BRANCH  13   8
ATOM      4  N   UNL     1      -3.125 -10.663  14.377  0.00  0.00    -0.287 NA
ATOM      8  C   UNL     1      -2.997 -11.373  15.666  0.00  0.00    +0.146 C 
ATOM      9  C   UNL     1      -1.750 -10.759  16.327  0.00  0.00    +0.030 C 
ATOM     10  C   UNL     1      -1.211  -9.762  15.312  0.00  0.00    +0.017 C 
ATOM     11  C   UNL     1      -1.774 -10.253  13.994  0.00  0.00    +0.085 C 
BRANCH   4  12
ATOM     12  C   UNL     1      -3.769 -11.463  13.342  0.00  0.00    +0.120 C 
BRANCH  12  14
ATOM     14  C   UNL     1      -4.418 -10.601  12.291  0.00  0.00    -0.033 A 
ATOM     15  C   UNL     1      -3.900 -10.570  10.997  0.00  0.00    +0.005 A 
ATOM     16  C   UNL     1      -5.538  -9.833  12.612  0.00  0.00    +0.005 A 
ATOM     18  C   UNL     1      -4.500  -9.771  10.024  0.00  0.00    +0.003 A 
ATOM     19  C   UNL     1      -6.138  -9.034  11.639  0.00  0.00    +0.003 A 
ATOM     20  C   UNL     1      -5.619  -9.003  10.345  0.00  0.00    -0.050 A 
ATOM     22  C   UNL     1      -6.259  -8.147   9.305  0.00  0.00    +0.044 C 
ENDBRANCH  12  14
ENDBRANCH   4  12
ENDBRANCH  13   8
TORSDOF 8
ENDMDL
MODEL 3
REMARK VINA RESULT:      -6.3      1.746      2.498
REMARK  Name = 45783361
REMARK  10 active torsions:
REMARK  status: ('A' for Active; 'I' for Inactive)
REMARK    1  A    between atoms: O_2  and  C_25
REMARK    2  A    between atoms: O_2  and  C_27
REMARK    3  A    between atoms: O_3  and  C_28
REMARK    4  A    between atoms: O_3  and  C_29
REMARK    5  A    between atoms: N_4  and  C_12
REMARK    6  A    between atoms: C_8  and  C_13
REMARK    7  A    between atoms: C_12  and  C_14
REMARK    8  A    between atoms: C_17  and  C_21
REMARK    9  A    between atoms: C_20  and  C_22
REMARK   10  A    between atoms: C_27  and  C_28
REMARK                            x       y       z     vdW  Elec       q    Type
REMARK                         _______ _______ _______ _____ _____    ______ ____
ROOT
ATOM      1  O   UNL     1      15.095   8.737  19.771  0.00  0.00    -0.336 OA
ATOM      5  N   UNL     1      15.851   6.731  19.122  0.00  0.00    -0.190 NA
ATOM      6  N   UNL     1      16.296   8.532  20.460  0.00  0.00    -0.056 NA
ATOM     13  C   UNL     1      14.907   7.630  19.004  0.00  0.00    +0.245 A 
ATOM     17  C   UNL     1      16.681   7.329  20.025  0.00  0.00    +0.202 A 
ENDROOT
BRANCH  17  21
ATOM      7  N   UNL     1      20.240   5.462  21.345  0.00  0.00    -0.221 NA
ATOM     21  C   UNL     1      17.888   6.696  20.473  0.00  0.00    +0.029 A 
ATOM     23  C   UNL     1      18.480   7.089  21.667  0.00  0.00    +0.079 A 
ATOM     24  C   UNL     1      18.470   5.687  19.713  0.00  0.00    +0.031 A 
ATOM     25  C   UNL     1      19.645   6.446  22.056  0.00  0.00    +0.215 A 
ATOM     26  C   UNL     1      19.635   5.107  20.188  0.00  0.00    +0.115 A 
BRANCH  25   2
ATOM      2  O   UNL     1      20.249   6.816  23.229  0.00  0.00    -0.474 OA
BRANCH   2  27
ATOM     27  C   UNL     1      20.392   8.212  23.464  0.00  0.00    +0.258 C 
BRANCH  27  28
ATOM     28  C   UNL     1      21.676   8.693  22.817  0.00  0.00    +0.200 C 
BRANCH  28   3
ATOM      3  O   UNL     1      22.710   7.753  23.084  0.00  0.00    -0.380 OA
ATOM     29  C   UNL     1      23.820   7.938  22.216  0.00  0.00    +0.194 C 
ENDBRANCH  28   3
ENDBRANCH  27  28
ENDBRANCH   2  27
ENDBRANCH  25   2
ENDBRANCH  17  21
BRANCH  13   8
ATOM      4  N   UNL     1      12.607   8.512  18.653  0.00  0.00    -0.287 NA
ATOM      8  C   UNL     1      13.658   7.606  18.148  0.00  0.00    +0.146 C 
ATOM      9  C   UNL     1      13.918   8.074  16.705  0.00  0.00    +0.030 C 
ATOM     10  C   UNL     1      12.925   9.204  16.469  0.00  0.00    +0.017 C 
ATOM     11  C   UNL     1      11.835   8.941  17.486  0.00  0.00    +0.085 C 
BRANCH   4  12
ATOM     12  C   UNL     1      11.765   7.903  19.674  0.00  0.00    +0.120 C 
BRANCH  12  14
ATOM     14  C   UNL     1      11.542   8.828  20.843  0.00  0.00    -0.033 A 
ATOM     15  C   UNL     1      12.009  10.141  20.791  0.00  0.00    +0.005 A 
ATOM     16  C   UNL     1      10.871   8.370  21.977  0.00  0.00    +0.005 A 
ATOM     18  C   UNL     1      11.805  10.997  21.874  0.00  0.00    +0.003 A 
ATOM     19  C   UNL     1      10.667   9.226  23.059  0.00  0.00    +0.003 A 
ATOM     20  C   UNL     1      11.134  10.539  23.008  0.00  0.00    -0.050 A 
ATOM     22  C   UNL     1      10.918  11.454  24.165  0.00  0.00    +0.044 C 
ENDBRANCH  12  14
ENDBRANCH   4  12
ENDBRANCH  13   8
TORSDOF 8
ENDMDL
MODEL 4
REMARK VINA RESULT:      -6.3     15.970     20.273
REMARK  Name = 45783361
REMARK  10 active torsions:
REMARK  status: ('A' for Active; 'I' for Inactive)
REMARK    1  A    between atoms: O_2  and  C_25
REMARK    2  A    between atoms: O_2  and  C_27
REMARK    3  A    between atoms: O_3  and  C_28
REMARK    4  A    between atoms: O_3  and  C_29
REMARK    5  A    between atoms: N_4  and  C_12
REMARK    6  A    between atoms: C_8  and  C_13
REMARK    7  A    between atoms: C_12  and  C_14
REMARK    8  A    between atoms: C_17  and  C_21
REMARK    9  A    between atoms: C_20  and  C_22
REMARK   10  A    between atoms: C_27  and  C_28
REMARK                            x       y       z     vdW  Elec       q    Type
REMARK                         _______ _______ _______ _____ _____    ______ ____
ROOT
ATOM      1  O   UNL     1      11.811   3.112   2.377  0.00  0.00    -0.336 OA
ATOM      5  N   UNL     1      12.400   5.262   2.163  0.00  0.00    -0.190 NA
ATOM      6  N   UNL     1      10.964   3.833   3.226  0.00  0.00    -0.056 NA
ATOM     13  C   UNL     1      12.625   4.028   1.789  0.00  0.00    +0.245 A 
ATOM     17  C   UNL     1      11.372   5.093   3.044  0.00  0.00    +0.202 A 
ENDROOT
BRANCH  17  21
ATOM      7  N   UNL     1       9.613   8.367   5.063  0.00  0.00    -0.221 NA
ATOM     21  C   UNL     1      10.776   6.204   3.729  0.00  0.00    +0.029 A 
ATOM     23  C   UNL     1      10.919   6.334   5.105  0.00  0.00    +0.079 A 
ATOM     24  C   UNL     1      10.050   7.153   3.018  0.00  0.00    +0.031 A 
ATOM     25  C   UNL     1      10.325   7.424   5.719  0.00  0.00    +0.215 A 
ATOM     26  C   UNL     1       9.494   8.207   3.725  0.00  0.00    +0.115 A 
BRANCH  25   2
ATOM      2  O   UNL     1      10.452   7.575   7.076  0.00  0.00    -0.474 OA
BRANCH   2  27
ATOM     27  C   UNL     1      10.858   6.428   7.812  0.00  0.00    +0.258 C 
BRANCH  27  28
ATOM     28  C   UNL     1       9.647   5.826   8.499  0.00  0.00    +0.200 C 
BRANCH  28   3
ATOM      3  O   UNL     1      10.083   5.040   9.602  0.00  0.00    -0.380 OA
ATOM     29  C   UNL     1       8.983   4.514  10.332  0.00  0.00    +0.194 C 
ENDBRANCH  28   3
ENDBRANCH  27  28
ENDBRANCH   2  27
ENDBRANCH  25   2
ENDBRANCH  17  21
BRANCH  13   8
ATOM      4  N   UNL     1      13.397   3.942  -0.575  0.00  0.00    -0.287 NA
ATOM      8  C   UNL     1      13.648   3.493   0.809  0.00  0.00    +0.146 C 
ATOM      9  C   UNL     1      15.077   3.970   1.123  0.00  0.00    +0.030 C 
ATOM     10  C   UNL     1      15.570   4.620  -0.163  0.00  0.00    +0.017 C 
ATOM     11  C   UNL     1      14.702   3.995  -1.235  0.00  0.00    +0.085 C 
BRANCH   4  12
ATOM     12  C   UNL     1      12.455   3.093  -1.293  0.00  0.00    +0.120 C 
BRANCH  12  14
ATOM     14  C   UNL     1      11.257   3.870  -1.776  0.00  0.00    -0.033 A 
ATOM     15  C   UNL     1      10.743   4.910  -1.003  0.00  0.00    +0.005 A 
ATOM     16  C   UNL     1      10.662   3.546  -2.995  0.00  0.00    +0.005 A 
ATOM     18  C   UNL     1       9.633   5.628  -1.450  0.00  0.00    +0.003 A 
ATOM     19  C   UNL     1       9.551   4.263  -3.441  0.00  0.00    +0.003 A 
ATOM     20  C   UNL     1       9.037   5.304  -2.669  0.00  0.00    -0.050 A 
ATOM     22  C   UNL     1       7.850   6.070  -3.144  0.00  0.00    +0.044 C 
ENDBRANCH  12  14
ENDBRANCH   4  12
ENDBRANCH  13   8
TORSDOF 8
ENDMDL
MODEL 5
REMARK VINA RESULT:      -6.3     27.736     29.907
REMARK  Name = 45783361
REMARK  10 active torsions:
REMARK  status: ('A' for Active; 'I' for Inactive)
REMARK    1  A    between atoms: O_2  and  C_25
REMARK    2  A    between atoms: O_2  and  C_27
REMARK    3  A    between atoms: O_3  and  C_28
REMARK    4  A    between atoms: O_3  and  C_29
REMARK    5  A    between atoms: N_4  and  C_12
REMARK    6  A    between atoms: C_8  and  C_13
REMARK    7  A    between atoms: C_12  and  C_14
REMARK    8  A    between atoms: C_17  and  C_21
REMARK    9  A    between atoms: C_20  and  C_22
REMARK   10  A    between atoms: C_27  and  C_28
REMARK                            x       y       z     vdW  Elec       q    Type
REMARK                         _______ _______ _______ _____ _____    ______ ____
ROOT
ATOM      1  O   UNL     1      -7.367 -10.607  11.353  0.00  0.00    -0.336 OA
ATOM      5  N   UNL     1      -6.017  -9.113  12.334  0.00  0.00    -0.190 NA
ATOM      6  N   UNL     1      -7.171 -11.060  12.663  0.00  0.00    -0.056 NA
ATOM     13  C   UNL     1      -6.654  -9.455  11.243  0.00  0.00    +0.245 A 
ATOM     17  C   UNL     1      -6.365 -10.127  13.178  0.00  0.00    +0.202 A 
ENDROOT
BRANCH  17  21
ATOM      7  N   UNL     1      -4.957 -10.279  17.163  0.00  0.00    -0.221 NA
ATOM     21  C   UNL     1      -5.887 -10.179  14.530  0.00  0.00    +0.029 A 
ATOM     23  C   UNL     1      -6.737  -9.861  15.582  0.00  0.00    +0.079 A 
ATOM     24  C   UNL     1      -4.572 -10.545  14.791  0.00  0.00    +0.031 A 
ATOM     25  C   UNL     1      -6.228  -9.926  16.869  0.00  0.00    +0.215 A 
ATOM     26  C   UNL     1      -4.159 -10.581  16.113  0.00  0.00    +0.115 A 
BRANCH  25   2
ATOM      2  O   UNL     1      -7.046  -9.618  17.925  0.00  0.00    -0.474 OA
BRANCH   2  27
ATOM     27  C   UNL     1      -7.239 -10.633  18.903  0.00  0.00    +0.258 C 
BRANCH  27  28
ATOM     28  C   UNL     1      -8.671 -11.127  18.827  0.00  0.00    +0.200 C 
BRANCH  28   3
ATOM      3  O   UNL     1      -9.261 -11.039  20.118  0.00  0.00    -0.380 OA
ATOM     29  C   UNL     1     -10.547 -10.437  20.063  0.00  0.00    +0.194 C 
ENDBRANCH  28   3
ENDBRANCH  27  28
ENDBRANCH   2  27
ENDBRANCH  25   2
ENDBRANCH  17  21
BRANCH  13   8
ATOM      4  N   UNL     1      -6.110  -9.567   8.817  0.00  0.00    -0.287 NA
ATOM      8  C   UNL     1      -6.704  -8.757   9.900  0.00  0.00    +0.146 C 
ATOM      9  C   UNL     1      -8.143  -8.473   9.431  0.00  0.00    +0.030 C 
ATOM     10  C   UNL     1      -8.244  -9.108   8.051  0.00  0.00    +0.017 C 
ATOM     11  C   UNL     1      -6.805  -9.186   7.587  0.00  0.00    +0.085 C 
BRANCH   4  12
ATOM     12  C   UNL     1      -4.667  -9.405   8.704  0.00  0.00    +0.120 C 
BRANCH  12  14
ATOM     14  C   UNL     1      -3.932 -10.150   9.788  0.00  0.00    -0.033 A 
ATOM     15  C   UNL     1      -2.971  -9.493  10.557  0.00  0.00    +0.005 A 
ATOM     16  C   UNL     1      -4.212 -11.496  10.022  0.00  0.00    +0.005 A 
ATOM     18  C   UNL     1      -2.290 -10.183  11.559  0.00  0.00    +0.003 A 
ATOM     19  C   UNL     1      -3.530 -12.186  11.025  0.00  0.00    +0.003 A 
ATOM     20  C   UNL     1      -2.569 -11.530  11.793  0.00  0.00    -0.050 A 
ATOM     22  C   UNL     1      -1.838 -12.267  12.864  0.00  0.00    +0.044 C 
ENDBRANCH  12  14
ENDBRANCH   4  12
ENDBRANCH  13   8
TORSDOF 8
ENDMDL
MODEL 6
REMARK VINA RESULT:      -6.2     26.464     29.749
REMARK  Name = 45783361
REMARK  10 active torsions:
REMARK  status: ('A' for Active; 'I' for Inactive)
REMARK    1  A    between atoms: O_2  and  C_25
REMARK    2  A    between atoms: O_2  and  C_27
REMARK    3  A    between atoms: O_3  and  C_28
REMARK    4  A    between atoms: O_3  and  C_29
REMARK    5  A    between atoms: N_4  and  C_12
REMARK    6  A    between atoms: C_8  and  C_13
REMARK    7  A    between atoms: C_12  and  C_14
REMARK    8  A    between atoms: C_17  and  C_21
REMARK    9  A    between atoms: C_20  and  C_22
REMARK   10  A    between atoms: C_27  and  C_28
REMARK                            x       y       z     vdW  Elec       q    Type
REMARK                         _______ _______ _______ _____ _____    ______ ____
ROOT
ATOM      1  O   UNL     1      -4.496 -12.892  15.055  0.00  0.00    -0.336 OA
ATOM      5  N   UNL     1      -4.388 -11.315  16.642  0.00  0.00    -0.190 NA
ATOM      6  N   UNL     1      -5.685 -12.994  15.786  0.00  0.00    -0.056 NA
ATOM     13  C   UNL     1      -3.790 -11.879  15.623  0.00  0.00    +0.245 A 
ATOM     17  C   UNL     1      -5.548 -12.032  16.704  0.00  0.00    +0.202 A 
ENDROOT
BRANCH  17  21
ATOM      7  N   UNL     1      -8.496 -11.239  19.630  0.00  0.00    -0.221 NA
ATOM     21  C   UNL     1      -6.548 -11.763  17.696  0.00  0.00    +0.029 A 
ATOM     23  C   UNL     1      -7.548 -10.832  17.444  0.00  0.00    +0.079 A 
ATOM     24  C   UNL     1      -6.518 -12.432  18.915  0.00  0.00    +0.031 A 
ATOM     25  C   UNL     1      -8.491 -10.609  18.434  0.00  0.00    +0.215 A 
ATOM     26  C   UNL     1      -7.507 -12.137  19.840  0.00  0.00    +0.115 A 
BRANCH  25   2
ATOM      2  O   UNL     1      -9.488  -9.695  18.210  0.00  0.00    -0.474 OA
BRANCH   2  27
ATOM     27  C   UNL     1      -9.303  -8.801  17.120  0.00  0.00    +0.258 C 
BRANCH  27  28
ATOM     28  C   UNL     1     -10.659  -8.312  16.646  0.00  0.00    +0.200 C 
BRANCH  28   3
ATOM      3  O   UNL     1     -10.819  -6.950  17.025  0.00  0.00    -0.380 OA
ATOM     29  C   UNL     1     -11.043  -6.118  15.896  0.00  0.00    +0.194 C 
ENDBRANCH  28   3
ENDBRANCH  27  28
ENDBRANCH   2  27
ENDBRANCH  25   2
ENDBRANCH  17  21
BRANCH  13   8
ATOM      4  N   UNL     1      -2.546 -10.606  13.885  0.00  0.00    -0.287 NA
ATOM      8  C   UNL     1      -2.445 -11.563  15.004  0.00  0.00    +0.146 C 
ATOM      9  C   UNL     1      -1.474 -10.901  15.998  0.00  0.00    +0.030 C 
ATOM     10  C   UNL     1      -1.036  -9.608  15.324  0.00  0.00    +0.017 C 
ATOM     11  C   UNL     1      -1.282  -9.871  13.853  0.00  0.00    +0.085 C 
BRANCH   4  12
ATOM     12  C   UNL     1      -2.841 -11.243  12.608  0.00  0.00    +0.120 C 
BRANCH  12  14
ATOM     14  C   UNL     1      -3.726 -10.384  11.743  0.00  0.00    -0.033 A 
ATOM     15  C   UNL     1      -4.995 -10.019  12.189  0.00  0.00    +0.005 A 
ATOM     16  C   UNL     1      -3.275  -9.954  10.494  0.00  0.00    +0.005 A 
ATOM     18  C   UNL     1      -5.815  -9.225  11.387  0.00  0.00    +0.003 A 
ATOM     19  C   UNL     1      -4.095  -9.160   9.692  0.00  0.00    +0.003 A 
ATOM     20  C   UNL     1      -5.364  -8.796  10.139  0.00  0.00    -0.050 A 
ATOM     22  C   UNL     1      -6.242  -7.948   9.281  0.00  0.00    +0.044 C 
ENDBRANCH  12  14
ENDBRANCH   4  12
ENDBRANCH  13   8
TORSDOF 8
ENDMDL
MODEL 7
REMARK VINA RESULT:      -6.1      2.374     10.522
REMARK  Name = 45783361
REMARK  10 active torsions:
REMARK  status: ('A' for Active; 'I' for Inactive)
REMARK    1  A    between atoms: O_2  and  C_25
REMARK    2  A    between atoms: O_2  and  C_27
REMARK    3  A    between atoms: O_3  and  C_28
REMARK    4  A    between atoms: O_3  and  C_29
REMARK    5  A    between atoms: N_4  and  C_12
REMARK    6  A    between atoms: C_8  and  C_13
REMARK    7  A    between atoms: C_12  and  C_14
REMARK    8  A    between atoms: C_17  and  C_21
REMARK    9  A    between atoms: C_20  and  C_22
REMARK   10  A    between atoms: C_27  and  C_28
REMARK                            x       y       z     vdW  Elec       q    Type
REMARK                         _______ _______ _______ _____ _____    ______ ____
ROOT
ATOM      1  O   UNL     1      20.091   7.943  22.105  0.00  0.00    -0.336 OA
ATOM      5  N   UNL     1      19.193   6.164  21.084  0.00  0.00    -0.190 NA
ATOM      6  N   UNL     1      18.760   8.280  21.835  0.00  0.00    -0.056 NA
ATOM     13  C   UNL     1      20.263   6.681  21.632  0.00  0.00    +0.245 A 
ATOM     17  C   UNL     1      18.296   7.181  21.232  0.00  0.00    +0.202 A 
ENDROOT
BRANCH  17  21
ATOM      7  N   UNL     1      14.310   6.848  19.856  0.00  0.00    -0.221 NA
ATOM     21  C   UNL     1      16.944   7.069  20.766  0.00  0.00    +0.029 A 
ATOM     23  C   UNL     1      15.885   7.311  21.631  0.00  0.00    +0.079 A 
ATOM     24  C   UNL     1      16.690   6.714  19.445  0.00  0.00    +0.031 A 
ATOM     25  C   UNL     1      14.598   7.189  21.132  0.00  0.00    +0.215 A 
ATOM     26  C   UNL     1      15.367   6.619  19.043  0.00  0.00    +0.115 A 
BRANCH  25   2
ATOM      2  O   UNL     1      13.536   7.424  21.966  0.00  0.00    -0.474 OA
BRANCH   2  27
ATOM     27  C   UNL     1      12.787   8.610  21.731  0.00  0.00    +0.258 C 
BRANCH  27  28
ATOM     28  C   UNL     1      11.307   8.287  21.815  0.00  0.00    +0.200 C 
BRANCH  28   3
ATOM      3  O   UNL     1      10.884   7.726  20.578  0.00  0.00    -0.380 OA
ATOM     29  C   UNL     1      11.118   8.616  19.495  0.00  0.00    +0.194 C 
ENDBRANCH  28   3
ENDBRANCH  27  28
ENDBRANCH   2  27
ENDBRANCH  25   2
ENDBRANCH  17  21
BRANCH  13   8
ATOM      4  N   UNL     1      21.988   5.134  20.724  0.00  0.00    -0.287 NA
ATOM      8  C   UNL     1      21.641   6.076  21.806  0.00  0.00    +0.146 C 
ATOM      9  C   UNL     1      22.760   7.132  21.779  0.00  0.00    +0.030 C 
ATOM     10  C   UNL     1      23.721   6.666  20.694  0.00  0.00    +0.017 C 
ATOM     11  C   UNL     1      23.444   5.181  20.586  0.00  0.00    +0.085 C 
BRANCH   4  12
ATOM     12  C   UNL     1      21.504   3.780  20.962  0.00  0.00    +0.120 C 
BRANCH  12  14
ATOM     14  C   UNL     1      22.559   2.910  21.592  0.00  0.00    -0.033 A 
ATOM     15  C   UNL     1      23.413   2.157  20.787  0.00  0.00    +0.005 A 
ATOM     16  C   UNL     1      22.682   2.856  22.981  0.00  0.00    +0.005 A 
ATOM     18  C   UNL     1      24.389   1.349  21.370  0.00  0.00    +0.003 A 
ATOM     19  C   UNL     1      23.658   2.048  23.564  0.00  0.00    +0.003 A 
ATOM     20  C   UNL     1      24.512   1.295  22.759  0.00  0.00    -0.050 A 
ATOM     22  C   UNL     1      25.555   0.429  23.382  0.00  0.00    +0.044 C 
ENDBRANCH  12  14
ENDBRANCH   4  12
ENDBRANCH  13   8
TORSDOF 8
ENDMDL
MODEL 8
REMARK VINA RESULT:      -6.0     27.042     30.400
REMARK  Name = 45783361
REMARK  10 active torsions:
REMARK  status: ('A' for Active; 'I' for Inactive)
REMARK    1  A    between atoms: O_2  and  C_25
REMARK    2  A    between atoms: O_2  and  C_27
REMARK    3  A    between atoms: O_3  and  C_28
REMARK    4  A    between atoms: O_3  and  C_29
REMARK    5  A    between atoms: N_4  and  C_12
REMARK    6  A    between atoms: C_8  and  C_13
REMARK    7  A    between atoms: C_12  and  C_14
REMARK    8  A    between atoms: C_17  and  C_21
REMARK    9  A    between atoms: C_20  and  C_22
REMARK   10  A    between atoms: C_27  and  C_28
REMARK                            x       y       z     vdW  Elec       q    Type
REMARK                         _______ _______ _______ _____ _____    ______ ____
ROOT
ATOM      1  O   UNL     1      -5.122  -9.800  15.904  0.00  0.00    -0.336 OA
ATOM      5  N   UNL     1      -5.185 -11.647  17.170  0.00  0.00    -0.190 NA
ATOM      6  N   UNL     1      -6.307  -9.724  16.646  0.00  0.00    -0.056 NA
ATOM     13  C   UNL     1      -4.522 -10.963  16.274  0.00  0.00    +0.245 A 
ATOM     17  C   UNL     1      -6.273 -10.847  17.368  0.00  0.00    +0.202 A 
ENDROOT
BRANCH  17  21
ATOM      7  N   UNL     1      -9.330 -11.890  20.100  0.00  0.00    -0.221 NA
ATOM     21  C   UNL     1      -7.310 -11.201  18.294  0.00  0.00    +0.029 A 
ATOM     23  C   UNL     1      -8.422 -10.381  18.443  0.00  0.00    +0.079 A 
ATOM     24  C   UNL     1      -7.204 -12.364  19.049  0.00  0.00    +0.031 A 
ATOM     25  C   UNL     1      -9.396 -10.767  19.350  0.00  0.00    +0.215 A 
ATOM     26  C   UNL     1      -8.232 -12.662  19.929  0.00  0.00    +0.115 A 
BRANCH  25   2
ATOM      2  O   UNL     1     -10.503  -9.976  19.515  0.00  0.00    -0.474 OA
BRANCH   2  27
ATOM     27  C   UNL     1     -11.752 -10.643  19.653  0.00  0.00    +0.258 C 
BRANCH  27  28
ATOM     28  C   UNL     1     -12.596  -9.907  20.676  0.00  0.00    +0.200 C 
BRANCH  28   3
ATOM      3  O   UNL     1     -13.967 -10.022  20.316  0.00  0.00    -0.380 OA
ATOM     29  C   UNL     1     -14.150  -9.885  18.913  0.00  0.00    +0.194 C 
ENDBRANCH  28   3
ENDBRANCH  27  28
ENDBRANCH   2  27
ENDBRANCH  25   2
ENDBRANCH  17  21
BRANCH  13   8
ATOM      4  N   UNL     1      -3.048 -10.607  14.300  0.00  0.00    -0.287 NA
ATOM      8  C   UNL     1      -3.201 -11.283  15.604  0.00  0.00    +0.146 C 
ATOM      9  C   UNL     1      -1.988 -10.818  16.430  0.00  0.00    +0.030 C 
ATOM     10  C   UNL     1      -1.180  -9.936  15.489  0.00  0.00    +0.017 C 
ATOM     11  C   UNL     1      -1.613 -10.393  14.111  0.00  0.00    +0.085 C 
BRANCH   4  12
ATOM     12  C   UNL     1      -3.642 -11.348  13.195  0.00  0.00    +0.120 C 
BRANCH  12  14
ATOM     14  C   UNL     1      -4.243 -10.430  12.163  0.00  0.00    -0.033 A 
ATOM     15  C   UNL     1      -3.555 -10.167  10.980  0.00  0.00    +0.005 A 
ATOM     16  C   UNL     1      -5.488  -9.843  12.392  0.00  0.00    +0.005 A 
ATOM     18  C   UNL     1      -4.110  -9.315  10.025  0.00  0.00    +0.003 A 
ATOM     19  C   UNL     1      -6.043  -8.991  11.437  0.00  0.00    +0.003 A 
ATOM     20  C   UNL     1      -5.355  -8.728  10.254  0.00  0.00    -0.050 A 
ATOM     22  C   UNL     1      -5.947  -7.816   9.233  0.00  0.00    +0.044 C 
ENDBRANCH  12  14
ENDBRANCH   4  12
ENDBRANCH  13   8
TORSDOF 8
ENDMDL
MODEL 9
REMARK VINA RESULT:      -6.0     15.407     19.517
REMARK  Name = 45783361
REMARK  10 active torsions:
REMARK  status: ('A' for Active; 'I' for Inactive)
REMARK    1  A    between atoms: O_2  and  C_25
REMARK    2  A    between atoms: O_2  and  C_27
REMARK    3  A    between atoms: O_3  and  C_28
REMARK    4  A    between atoms: O_3  and  C_29
REMARK    5  A    between atoms: N_4  and  C_12
REMARK    6  A    between atoms: C_8  and  C_13
REMARK    7  A    between atoms: C_12  and  C_14
REMARK    8  A    between atoms: C_17  and  C_21
REMARK    9  A    between atoms: C_20  and  C_22
REMARK   10  A    between atoms: C_27  and  C_28
REMARK                            x       y       z     vdW  Elec       q    Type
REMARK                         _______ _______ _______ _____ _____    ______ ____
ROOT
ATOM      1  O   UNL     1      12.553   7.519   4.825  0.00  0.00    -0.336 OA
ATOM      5  N   UNL     1      11.044   5.936   4.343  0.00  0.00    -0.190 NA
ATOM      6  N   UNL     1      12.926   6.991   3.583  0.00  0.00    -0.056 NA
ATOM     13  C   UNL     1      11.436   6.843   5.201  0.00  0.00    +0.245 A 
ATOM     17  C   UNL     1      11.989   6.064   3.366  0.00  0.00    +0.202 A 
ENDROOT
BRANCH  17  21
ATOM      7  N   UNL     1      11.928   3.659  -0.112  0.00  0.00    -0.221 NA
ATOM     21  C   UNL     1      11.968   5.249   2.186  0.00  0.00    +0.029 A 
ATOM     23  C   UNL     1      10.845   5.233   1.368  0.00  0.00    +0.079 A 
ATOM     24  C   UNL     1      13.072   4.469   1.858  0.00  0.00    +0.031 A 
ATOM     25  C   UNL     1      10.875   4.429   0.240  0.00  0.00    +0.215 A 
ATOM     26  C   UNL     1      13.003   3.699   0.708  0.00  0.00    +0.115 A 
BRANCH  25   2
ATOM      2  O   UNL     1       9.779   4.396  -0.583  0.00  0.00    -0.474 OA
BRANCH   2  27
ATOM     27  C   UNL     1       9.682   5.425  -1.560  0.00  0.00    +0.258 C 
BRANCH  27  28
ATOM     28  C   UNL     1       9.729   4.801  -2.942  0.00  0.00    +0.200 C 
BRANCH  28   3
ATOM      3  O   UNL     1       9.721   3.385  -2.811  0.00  0.00    -0.380 OA
ATOM     29  C   UNL     1       9.390   2.750  -4.039  0.00  0.00    +0.194 C 
ENDBRANCH  28   3
ENDBRANCH  27  28
ENDBRANCH   2  27
ENDBRANCH  25   2
ENDBRANCH  17  21
BRANCH  13   8
ATOM      4  N   UNL     1       9.408   7.625   6.411  0.00  0.00    -0.287 NA
ATOM      8  C   UNL     1      10.826   7.234   6.531  0.00  0.00    +0.146 C 
ATOM      9  C   UNL     1      10.828   6.079   7.549  0.00  0.00    +0.030 C 
ATOM     10  C   UNL     1       9.378   5.935   7.990  0.00  0.00    +0.017 C 
ATOM     11  C   UNL     1       8.777   7.292   7.689  0.00  0.00    +0.085 C 
BRANCH   4  12
ATOM     12  C   UNL     1       9.226   9.028   6.061  0.00  0.00    +0.120 C 
BRANCH  12  14
ATOM     14  C   UNL     1       8.425   9.190   4.795  0.00  0.00    -0.033 A 
ATOM     15  C   UNL     1       7.211   9.875   4.822  0.00  0.00    +0.005 A 
ATOM     16  C   UNL     1       8.898   8.655   3.597  0.00  0.00    +0.005 A 
ATOM     18  C   UNL     1       6.468  10.023   3.650  0.00  0.00    +0.003 A 
ATOM     19  C   UNL     1       8.155   8.804   2.425  0.00  0.00    +0.003 A 
ATOM     20  C   UNL     1       6.941   9.488   2.452  0.00  0.00    -0.050 A 
ATOM     22  C   UNL     1       6.145   9.646   1.201  0.00  0.00    +0.044 C 
ENDBRANCH  12  14
ENDBRANCH   4  12
ENDBRANCH  13   8
TORSDOF 8
ENDMDL
MODEL 10
REMARK VINA RESULT:      -5.8     27.228     30.268
REMARK  Name = 45783361
REMARK  10 active torsions:
REMARK  status: ('A' for Active; 'I' for Inactive)
REMARK    1  A    between atoms: O_2  and  C_25
REMARK    2  A    between atoms: O_2  and  C_27
REMARK    3  A    between atoms: O_3  and  C_28
REMARK    4  A    between atoms: O_3  and  C_29
REMARK    5  A    between atoms: N_4  and  C_12
REMARK    6  A    between atoms: C_8  and  C_13
REMARK    7  A    between atoms: C_12  and  C_14
REMARK    8  A    between atoms: C_17  and  C_21
REMARK    9  A    between atoms: C_20  and  C_22
REMARK   10  A    between atoms: C_27  and  C_28
REMARK                            x       y       z     vdW  Elec       q    Type
REMARK                         _______ _______ _______ _____ _____    ______ ____
ROOT
ATOM      1  O   UNL     1      -5.094  -9.720  15.863  0.00  0.00    -0.336 OA
ATOM      5  N   UNL     1      -5.274 -11.595  17.076  0.00  0.00    -0.190 NA
ATOM      6  N   UNL     1      -6.302  -9.617  16.563  0.00  0.00    -0.056 NA
ATOM     13  C   UNL     1      -4.552 -10.914  16.222  0.00  0.00    +0.245 A 
ATOM     17  C   UNL     1      -6.338 -10.759  17.256  0.00  0.00    +0.202 A 
ENDROOT
BRANCH  17  21
ATOM      7  N   UNL     1      -9.531 -11.754  19.844  0.00  0.00    -0.221 NA
ATOM     21  C   UNL     1      -7.420 -11.097  18.134  0.00  0.00    +0.029 A 
ATOM     23  C   UNL     1      -7.342 -12.229  18.936  0.00  0.00    +0.079 A 
ATOM     24  C   UNL     1      -8.554 -10.293  18.184  0.00  0.00    +0.031 A 
ATOM     25  C   UNL     1      -8.414 -12.511  19.767  0.00  0.00    +0.215 A 
ATOM     26  C   UNL     1      -9.572 -10.661  19.048  0.00  0.00    +0.115 A 
BRANCH  25   2
ATOM      2  O   UNL     1      -8.361 -13.622  20.567  0.00  0.00    -0.474 OA
BRANCH   2  27
ATOM     27  C   UNL     1      -9.591 -14.295  20.811  0.00  0.00    +0.258 C 
BRANCH  27  28
ATOM     28  C   UNL     1      -9.731 -15.441  19.827  0.00  0.00    +0.200 C 
BRANCH  28   3
ATOM      3  O   UNL     1     -10.644 -15.065  18.803  0.00  0.00    -0.380 OA
ATOM     29  C   UNL     1     -10.206 -15.506  17.526  0.00  0.00    +0.194 C 
ENDBRANCH  28   3
ENDBRANCH  27  28
ENDBRANCH   2  27
ENDBRANCH  25   2
ENDBRANCH  17  21
BRANCH  13   8
ATOM      4  N   UNL     1      -3.010 -10.592  14.296  0.00  0.00    -0.287 NA
ATOM      8  C   UNL     1      -3.221 -11.267  15.593  0.00  0.00    +0.146 C 
ATOM      9  C   UNL     1      -2.022 -10.836  16.457  0.00  0.00    +0.030 C 
ATOM     10  C   UNL     1      -1.162  -9.974  15.544  0.00  0.00    +0.017 C 
ATOM     11  C   UNL     1      -1.565 -10.416  14.152  0.00  0.00    +0.085 C 
BRANCH   4  12
ATOM     12  C   UNL     1      -3.589 -11.314  13.171  0.00  0.00    +0.120 C 
BRANCH  12  14
ATOM     14  C   UNL     1      -4.204 -10.380  12.161  0.00  0.00    -0.033 A 
ATOM     15  C   UNL     1      -3.498 -10.037  11.009  0.00  0.00    +0.005 A 
ATOM     16  C   UNL     1      -5.478  -9.858  12.380  0.00  0.00    +0.005 A 
ATOM     18  C   UNL     1      -4.066  -9.171  10.075  0.00  0.00    +0.003 A 
ATOM     19  C   UNL     1      -6.047  -8.991  11.446  0.00  0.00    +0.003 A 
ATOM     20  C   UNL     1      -5.341  -8.648  10.294  0.00  0.00    -0.050 A 
ATOM     22  C   UNL     1      -5.947  -7.720   9.296  0.00  0.00    +0.044 C 
ENDBRANCH  12  14
ENDBRANCH   4  12
ENDBRANCH  13   8
TORSDOF 8
ENDMDL
