REMARK  Name = 7662925
REMARK  6 active torsions:
REMARK  status: ('A' for Active; 'I' for Inactive)
REMARK    1  A    between atoms: O_3  and  C_27
REMARK    2  A    between atoms: C_15  and  C_20
REMARK    3  A    between atoms: C_17  and  C_21
REMARK    4  A    between atoms: C_21  and  C_22
REMARK    5  A    between atoms: C_22  and  C_27
REMARK    6  A    between atoms: C_25  and  C_29
REMARK                            x       y       z     vdW  Elec       q    Type
REMARK                         _______ _______ _______ _____ _____    ______ ____
ROOT
ATOM      1  O   UNL     1       3.309  -1.833   2.525  0.00  0.00    -0.268 OA
ATOM      2  O   UNL     1       3.112   2.357  -0.660  0.00  0.00    -0.276 OA
ATOM      5  N   UNL     1       1.825   0.638  -1.546  0.00  0.00    -0.301 N 
ATOM      6  N   UNL     1       1.952  -1.688   0.622  0.00  0.00    -0.311 N 
ATOM      8  C   UNL     1       2.954  -1.574  -1.734  0.00  0.00    +0.027 C 
ATOM      9  C   UNL     1       0.517  -1.477  -1.432  0.00  0.00    +0.054 C 
ATOM     10  C   UNL     1       1.640  -2.206  -2.167  0.00  0.00    +0.018 C 
ATOM     11  C   UNL     1       2.982  -0.077  -2.084  0.00  0.00    +0.113 C 
ATOM     12  C   UNL     1       3.138  -1.815  -0.235  0.00  0.00    +0.130 C 
ATOM     13  C   UNL     1       0.526   0.014  -1.829  0.00  0.00    +0.117 C 
ATOM     14  C   UNL     1       0.650  -1.621   0.087  0.00  0.00    +0.034 A 
ATOM     15  C   UNL     1      -0.425  -1.658   0.917  0.00  0.00    +0.002 A 
ATOM     16  C   UNL     1       2.196  -1.760   2.005  0.00  0.00    +0.252 A 
ATOM     17  C   UNL     1       2.009   1.852  -0.886  0.00  0.00    +0.216 C 
ATOM     18  C   UNL     1      -0.212  -1.728   2.350  0.00  0.00    +0.015 A 
ATOM     19  C   UNL     1       1.007  -1.762   2.888  0.00  0.00    +0.071 A 
ENDROOT
BRANCH  15  20
ATOM     20  C   UNL     1      -1.811  -1.610   0.400  0.00  0.00    -0.015 A 
ATOM     23  C   UNL     1      -2.438  -0.381   0.216  0.00  0.00    +0.027 A 
ATOM     24  C   UNL     1      -2.478  -2.794   0.104  0.00  0.00    +0.008 A 
ATOM     25  C   UNL     1      -3.745  -0.338  -0.270  0.00  0.00    +0.052 A 
ATOM     26  C   UNL     1      -3.785  -2.751  -0.382  0.00  0.00    +0.002 A 
ATOM     28  C   UNL     1      -4.418  -1.522  -0.569  0.00  0.00    +0.019 A 
BRANCH  25  29
ATOM      7  N   UNL     1      -4.923   1.944  -0.617  0.00  0.00    -0.191 NA
ATOM     29  C   UNL     1      -4.395   0.921  -0.462  0.00  0.00    +0.099 C 
ENDBRANCH  25  29
ENDBRANCH  15  20
BRANCH  17  21
ATOM     21  C   UNL     1       0.763   2.566  -0.424  0.00  0.00    +0.107 C 
BRANCH  21  22
ATOM     22  C   UNL     1       1.139   3.860   0.270  0.00  0.00    +0.129 C 
BRANCH  22  27
ATOM      4  O   UNL     1      -1.226   4.150   0.672  0.00  0.00    -0.251 OA
ATOM     27  C   UNL     1      -0.082   4.565   0.806  0.00  0.00    +0.305 C 
BRANCH  27   3
ATOM      3  O   UNL     1       0.221   5.727   1.436  0.00  0.00    -0.481 OA
ATOM     30  H   UNL     1      -0.581   6.182   1.771  0.00  0.00    +0.295 HD
ENDBRANCH  27   3
ENDBRANCH  22  27
ENDBRANCH  21  22
ENDBRANCH  17  21
TORSDOF 6
