MODEL 1
REMARK VINA RESULT:      -6.7      0.000      0.000
REMARK  Name = 28959840
REMARK  8 active torsions:
REMARK  status: ('A' for Active; 'I' for Inactive)
REMARK    1  A    between atoms: O_2  and  C_24
REMARK    2  A    between atoms: N_6  and  C_17
REMARK    3  A    between atoms: C_8  and  C_12
REMARK    4  A    between atoms: C_9  and  C_15
REMARK    5  A    between atoms: C_12  and  C_17
REMARK    6  A    between atoms: C_14  and  C_16
REMARK    7  A    between atoms: C_15  and  C_24
REMARK    8  A    between atoms: C_28  and  C_29
REMARK                            x       y       z     vdW  Elec       q    Type
REMARK                         _______ _______ _______ _____ _____    ______ ____
ROOT
ATOM      1  O   UNL     1       8.130   9.846   5.356  0.00  0.00    -0.275 OA
ATOM      5  N   UNL     1       9.704   8.349   6.181  0.00  0.00    -0.301 N 
ATOM      8  C   UNL     1      10.583   6.043   6.470  0.00  0.00    +0.011 C 
ATOM      9  C   UNL     1      10.044   6.060   7.924  0.00  0.00    +0.006 C 
ATOM     10  C   UNL     1      10.876   7.481   6.004  0.00  0.00    +0.111 C 
ATOM     11  C   UNL     1       8.851   7.019   8.074  0.00  0.00    +0.023 C 
ATOM     13  C   UNL     1       9.191   8.413   7.549  0.00  0.00    +0.108 C 
ATOM     16  C   UNL     1       9.098   9.104   5.176  0.00  0.00    +0.219 C 
ENDROOT
BRANCH  16  14
ATOM     14  C   UNL     1       9.681   8.982   3.801  0.00  0.00    +0.075 C 
ATOM     18  C   UNL     1       9.714  10.351   3.114  0.00  0.00    +0.013 C 
ATOM     19  C   UNL     1       8.809   8.083   2.923  0.00  0.00    +0.013 C 
ATOM     20  C   UNL     1       8.945  10.181   1.809  0.00  0.00    +0.001 C 
ATOM     21  C   UNL     1       7.974   9.050   2.095  0.00  0.00    +0.001 C 
ENDBRANCH  16  14
BRANCH   8  12
ATOM     12  C   UNL     1       9.657   5.338   5.471  0.00  0.00    +0.020 C 
BRANCH  12  17
ATOM     17  C   UNL     1      10.460   4.495   4.489  0.00  0.00    +0.085 C 
BRANCH  17   6
ATOM      4  O   UNL     1      10.819   3.378  -1.377  0.00  0.00    -0.276 OA
ATOM      6  N   UNL     1      10.595   5.208   3.216  0.00  0.00    -0.301 NA
ATOM      7  N   UNL     1      11.388   5.091   0.099  0.00  0.00    -0.300 N 
ATOM     22  C   UNL     1      11.970   5.709   3.069  0.00  0.00    +0.086 C 
ATOM     23  C   UNL     1      10.160   4.338   2.115  0.00  0.00    +0.103 C 
ATOM     25  C   UNL     1      12.132   6.709   1.922  0.00  0.00    +0.034 C 
ATOM     26  C   UNL     1      10.087   5.053   0.765  0.00  0.00    +0.123 C 
ATOM     27  C   UNL     1      12.383   6.061   0.562  0.00  0.00    +0.109 C 
ATOM     28  C   UNL     1      11.633   4.206  -0.961  0.00  0.00    +0.212 C 
ATOM     29  C   UNL     1      12.995   4.293  -1.607  0.00  0.00    +0.109 C 
ENDBRANCH  17   6
ENDBRANCH  12  17
ENDBRANCH   8  12
BRANCH   9  15
ATOM     15  C   UNL     1       9.687   4.670   8.449  0.00  0.00    +0.124 C 
BRANCH  15  24
ATOM      3  O   UNL     1       8.347   4.470  10.474  0.00  0.00    -0.251 OA
ATOM     24  C   UNL     1       9.418   4.687   9.927  0.00  0.00    +0.305 C 
BRANCH  24   2
ATOM      2  O   UNL     1      10.560   4.987  10.597  0.00  0.00    -0.481 OA
ATOM     30  H   UNL     1      11.184   5.503  10.043  0.00  0.00    +0.295 HD
ENDBRANCH  24   2
ENDBRANCH  15  24
ENDBRANCH   9  15
TORSDOF 7
ENDMDL
MODEL 2
REMARK VINA RESULT:      -6.6     22.601     26.150
REMARK  Name = 28959840
REMARK  8 active torsions:
REMARK  status: ('A' for Active; 'I' for Inactive)
REMARK    1  A    between atoms: O_2  and  C_24
REMARK    2  A    between atoms: N_6  and  C_17
REMARK    3  A    between atoms: C_8  and  C_12
REMARK    4  A    between atoms: C_9  and  C_15
REMARK    5  A    between atoms: C_12  and  C_17
REMARK    6  A    between atoms: C_14  and  C_16
REMARK    7  A    between atoms: C_15  and  C_24
REMARK    8  A    between atoms: C_28  and  C_29
REMARK                            x       y       z     vdW  Elec       q    Type
REMARK                         _______ _______ _______ _____ _____    ______ ____
ROOT
ATOM      1  O   UNL     1      -1.966 -10.013  12.167  0.00  0.00    -0.275 OA
ATOM      5  N   UNL     1      -3.108 -11.315  13.716  0.00  0.00    -0.301 N 
ATOM      8  C   UNL     1      -4.841 -11.603  15.473  0.00  0.00    +0.011 C 
ATOM      9  C   UNL     1      -3.713 -11.576  16.538  0.00  0.00    +0.006 C 
ATOM     10  C   UNL     1      -4.279 -12.100  14.129  0.00  0.00    +0.111 C 
ATOM     11  C   UNL     1      -2.488 -10.787  16.044  0.00  0.00    +0.023 C 
ATOM     13  C   UNL     1      -2.012 -11.297  14.685  0.00  0.00    +0.108 C 
ATOM     16  C   UNL     1      -2.972 -10.643  12.501  0.00  0.00    +0.219 C 
ENDROOT
BRANCH  16  14
ATOM     14  C   UNL     1      -4.140 -10.708  11.565  0.00  0.00    +0.075 C 
ATOM     18  C   UNL     1      -3.668 -11.061  10.150  0.00  0.00    +0.013 C 
ATOM     19  C   UNL     1      -4.824  -9.344  11.459  0.00  0.00    +0.013 C 
ATOM     20  C   UNL     1      -4.178  -9.942   9.249  0.00  0.00    +0.001 C 
ATOM     21  C   UNL     1      -4.282  -8.741  10.171  0.00  0.00    +0.001 C 
ENDBRANCH  16  14
BRANCH   8  12
ATOM     12  C   UNL     1      -5.554 -10.258  15.288  0.00  0.00    +0.020 C 
BRANCH  12  17
ATOM     17  C   UNL     1      -6.789 -10.415  14.411  0.00  0.00    +0.085 C 
BRANCH  17   6
ATOM      4  O   UNL     1     -11.855  -7.240  14.211  0.00  0.00    -0.276 OA
ATOM      6  N   UNL     1      -7.997 -10.176  15.206  0.00  0.00    -0.301 NA
ATOM      7  N   UNL     1     -10.524  -8.278  15.819  0.00  0.00    -0.300 N 
ATOM     22  C   UNL     1      -7.672  -9.334  16.366  0.00  0.00    +0.086 C 
ATOM     23  C   UNL     1      -9.051  -9.620  14.346  0.00  0.00    +0.103 C 
ATOM     25  C   UNL     1      -8.795  -9.273  17.405  0.00  0.00    +0.034 C 
ATOM     26  C   UNL     1     -10.409  -9.510  15.039  0.00  0.00    +0.123 C 
ATOM     27  C   UNL     1      -9.851  -8.209  17.118  0.00  0.00    +0.109 C 
ATOM     28  C   UNL     1     -11.276  -7.215  15.300  0.00  0.00    +0.212 C 
ATOM     29  C   UNL     1     -11.355  -5.971  16.152  0.00  0.00    +0.109 C 
ENDBRANCH  17   6
ENDBRANCH  12  17
ENDBRANCH   8  12
BRANCH   9  15
ATOM     15  C   UNL     1      -4.180 -11.051  17.895  0.00  0.00    +0.124 C 
BRANCH  15  24
ATOM      3  O   UNL     1      -3.331 -12.166  19.888  0.00  0.00    -0.251 OA
ATOM     24  C   UNL     1      -4.116 -12.116  18.953  0.00  0.00    +0.305 C 
BRANCH  24   2
ATOM      2  O   UNL     1      -5.076 -13.048  18.724  0.00  0.00    -0.481 OA
ATOM     30  H   UNL     1      -5.827 -12.962  19.351  0.00  0.00    +0.295 HD
ENDBRANCH  24   2
ENDBRANCH  15  24
ENDBRANCH   9  15
TORSDOF 7
ENDMDL
MODEL 3
REMARK VINA RESULT:      -6.4     23.183     26.926
REMARK  Name = 28959840
REMARK  8 active torsions:
REMARK  status: ('A' for Active; 'I' for Inactive)
REMARK    1  A    between atoms: O_2  and  C_24
REMARK    2  A    between atoms: N_6  and  C_17
REMARK    3  A    between atoms: C_8  and  C_12
REMARK    4  A    between atoms: C_9  and  C_15
REMARK    5  A    between atoms: C_12  and  C_17
REMARK    6  A    between atoms: C_14  and  C_16
REMARK    7  A    between atoms: C_15  and  C_24
REMARK    8  A    between atoms: C_28  and  C_29
REMARK                            x       y       z     vdW  Elec       q    Type
REMARK                         _______ _______ _______ _____ _____    ______ ____
ROOT
ATOM      1  O   UNL     1      -1.984  -9.970  12.079  0.00  0.00    -0.275 OA
ATOM      5  N   UNL     1      -3.126 -11.278  13.623  0.00  0.00    -0.301 N 
ATOM      8  C   UNL     1      -4.857 -11.573  15.379  0.00  0.00    +0.011 C 
ATOM      9  C   UNL     1      -3.729 -11.551  16.443  0.00  0.00    +0.006 C 
ATOM     10  C   UNL     1      -4.296 -12.064  14.032  0.00  0.00    +0.111 C 
ATOM     11  C   UNL     1      -2.504 -10.761  15.952  0.00  0.00    +0.023 C 
ATOM     13  C   UNL     1      -2.029 -11.264  14.590  0.00  0.00    +0.108 C 
ATOM     16  C   UNL     1      -2.990 -10.602  12.410  0.00  0.00    +0.219 C 
ENDROOT
BRANCH  16  14
ATOM     14  C   UNL     1      -4.158 -10.662  11.474  0.00  0.00    +0.075 C 
ATOM     18  C   UNL     1      -3.673 -10.735  10.022  0.00  0.00    +0.013 C 
ATOM     19  C   UNL     1      -5.001  -9.391  11.580  0.00  0.00    +0.013 C 
ATOM     20  C   UNL     1      -4.329  -9.560   9.304  0.00  0.00    +0.001 C 
ATOM     21  C   UNL     1      -4.558  -8.536  10.401  0.00  0.00    +0.001 C 
ENDBRANCH  16  14
BRANCH   8  12
ATOM     12  C   UNL     1      -5.571 -10.227  15.200  0.00  0.00    +0.020 C 
BRANCH  12  17
ATOM     17  C   UNL     1      -7.080 -10.417  15.138  0.00  0.00    +0.085 C 
BRANCH  17   6
ATOM      4  O   UNL     1     -10.092 -12.439  19.895  0.00  0.00    -0.276 OA
ATOM      6  N   UNL     1      -7.695  -9.920  16.373  0.00  0.00    -0.301 NA
ATOM      7  N   UNL     1      -9.787 -10.421  18.767  0.00  0.00    -0.300 N 
ATOM     22  C   UNL     1      -8.939  -9.203  16.057  0.00  0.00    +0.086 C 
ATOM     23  C   UNL     1      -7.874 -11.032  17.316  0.00  0.00    +0.103 C 
ATOM     25  C   UNL     1      -9.495  -8.403  17.238  0.00  0.00    +0.034 C 
ATOM     26  C   UNL     1      -8.336 -10.587  18.704  0.00  0.00    +0.123 C 
ATOM     27  C   UNL     1     -10.379  -9.217  18.180  0.00  0.00    +0.109 C 
ATOM     28  C   UNL     1     -10.557 -11.414  19.391  0.00  0.00    +0.212 C 
ATOM     29  C   UNL     1     -12.049 -11.185  19.422  0.00  0.00    +0.109 C 
ENDBRANCH  17   6
ENDBRANCH  12  17
ENDBRANCH   8  12
BRANCH   9  15
ATOM     15  C   UNL     1      -4.195 -11.032  17.803  0.00  0.00    +0.124 C 
BRANCH  15  24
ATOM      3  O   UNL     1      -3.337 -12.146  19.792  0.00  0.00    -0.251 OA
ATOM     24  C   UNL     1      -4.123 -12.099  18.859  0.00  0.00    +0.305 C 
BRANCH  24   2
ATOM      2  O   UNL     1      -5.078 -13.036  18.628  0.00  0.00    -0.481 OA
ATOM     30  H   UNL     1      -5.347 -13.060  17.685  0.00  0.00    +0.295 HD
ENDBRANCH  24   2
ENDBRANCH  15  24
ENDBRANCH   9  15
TORSDOF 7
ENDMDL
MODEL 4
REMARK VINA RESULT:      -6.1     22.850     25.534
REMARK  Name = 28959840
REMARK  8 active torsions:
REMARK  status: ('A' for Active; 'I' for Inactive)
REMARK    1  A    between atoms: O_2  and  C_24
REMARK    2  A    between atoms: N_6  and  C_17
REMARK    3  A    between atoms: C_8  and  C_12
REMARK    4  A    between atoms: C_9  and  C_15
REMARK    5  A    between atoms: C_12  and  C_17
REMARK    6  A    between atoms: C_14  and  C_16
REMARK    7  A    between atoms: C_15  and  C_24
REMARK    8  A    between atoms: C_28  and  C_29
REMARK                            x       y       z     vdW  Elec       q    Type
REMARK                         _______ _______ _______ _____ _____    ______ ____
ROOT
ATOM      1  O   UNL     1      -8.039 -11.352  18.867  0.00  0.00    -0.275 OA
ATOM      5  N   UNL     1      -6.377 -10.294  17.633  0.00  0.00    -0.301 N 
ATOM      8  C   UNL     1      -4.899 -10.140  15.643  0.00  0.00    +0.011 C 
ATOM      9  C   UNL     1      -3.726 -10.651  16.520  0.00  0.00    +0.006 C 
ATOM     10  C   UNL     1      -5.943  -9.433  16.526  0.00  0.00    +0.111 C 
ATOM     11  C   UNL     1      -4.230 -11.505  17.696  0.00  0.00    +0.023 C 
ATOM     13  C   UNL     1      -5.298 -10.766  18.500  0.00  0.00    +0.108 C 
ATOM     16  C   UNL     1      -7.697 -10.648  17.913  0.00  0.00    +0.219 C 
ENDROOT
BRANCH  16  14
ATOM     14  C   UNL     1      -8.745 -10.126  16.977  0.00  0.00    +0.075 C 
ATOM     18  C   UNL     1      -9.218  -8.740  17.427  0.00  0.00    +0.013 C 
ATOM     19  C   UNL     1      -9.981 -11.027  16.994  0.00  0.00    +0.013 C 
ATOM     20  C   UNL     1     -10.729  -8.850  17.596  0.00  0.00    +0.001 C 
ATOM     21  C   UNL     1     -10.961 -10.315  17.916  0.00  0.00    +0.001 C 
ENDBRANCH  16  14
BRANCH   8  12
ATOM     12  C   UNL     1      -5.567 -11.233  14.799  0.00  0.00    +0.020 C 
BRANCH  12  17
ATOM     17  C   UNL     1      -6.422 -10.621  13.698  0.00  0.00    +0.085 C 
BRANCH  17   6
ATOM      4  O   UNL     1      -6.702  -8.870   7.984  0.00  0.00    -0.276 OA
ATOM      6  N   UNL     1      -5.561 -10.066  12.649  0.00  0.00    -0.301 NA
ATOM      7  N   UNL     1      -5.077  -9.556   9.508  0.00  0.00    -0.300 N 
ATOM     22  C   UNL     1      -4.654 -11.108  12.146  0.00  0.00    +0.086 C 
ATOM     23  C   UNL     1      -6.391  -9.448  11.606  0.00  0.00    +0.103 C 
ATOM     25  C   UNL     1      -3.528 -10.559  11.266  0.00  0.00    +0.034 C 
ATOM     26  C   UNL     1      -5.583  -8.677  10.561  0.00  0.00    +0.123 C 
ATOM     27  C   UNL     1      -3.910 -10.393   9.798  0.00  0.00    +0.109 C 
ATOM     28  C   UNL     1      -5.720  -9.562   8.262  0.00  0.00    +0.212 C 
ATOM     29  C   UNL     1      -5.150 -10.492   7.218  0.00  0.00    +0.109 C 
ENDBRANCH  17   6
ENDBRANCH  12  17
ENDBRANCH   8  12
BRANCH   9  15
ATOM     15  C   UNL     1      -2.663 -11.404  15.722  0.00  0.00    +0.124 C 
BRANCH  15  24
ATOM      3  O   UNL     1      -1.546  -9.935  14.131  0.00  0.00    -0.251 OA
ATOM     24  C   UNL     1      -1.586 -10.482  15.223  0.00  0.00    +0.305 C 
BRANCH  24   2
ATOM      2  O   UNL     1      -0.632 -10.334  16.178  0.00  0.00    -0.481 OA
ATOM     30  H   UNL     1      -0.124  -9.503  16.060  0.00  0.00    +0.295 HD
ENDBRANCH  24   2
ENDBRANCH  15  24
ENDBRANCH   9  15
TORSDOF 7
ENDMDL
MODEL 5
REMARK VINA RESULT:      -6.0     13.341     16.897
REMARK  Name = 28959840
REMARK  8 active torsions:
REMARK  status: ('A' for Active; 'I' for Inactive)
REMARK    1  A    between atoms: O_2  and  C_24
REMARK    2  A    between atoms: N_6  and  C_17
REMARK    3  A    between atoms: C_8  and  C_12
REMARK    4  A    between atoms: C_9  and  C_15
REMARK    5  A    between atoms: C_12  and  C_17
REMARK    6  A    between atoms: C_14  and  C_16
REMARK    7  A    between atoms: C_15  and  C_24
REMARK    8  A    between atoms: C_28  and  C_29
REMARK                            x       y       z     vdW  Elec       q    Type
REMARK                         _______ _______ _______ _____ _____    ______ ____
ROOT
ATOM      1  O   UNL     1      11.108   9.306  21.873  0.00  0.00    -0.275 OA
ATOM      5  N   UNL     1      13.318   8.591  21.848  0.00  0.00    -0.301 N 
ATOM      8  C   UNL     1      15.554   8.447  20.775  0.00  0.00    +0.011 C 
ATOM      9  C   UNL     1      15.225   6.986  20.370  0.00  0.00    +0.006 C 
ATOM     10  C   UNL     1      14.755   8.833  22.033  0.00  0.00    +0.111 C 
ATOM     11  C   UNL     1      13.709   6.764  20.238  0.00  0.00    +0.023 C 
ATOM     13  C   UNL     1      12.971   7.214  21.497  0.00  0.00    +0.108 C 
ATOM     16  C   UNL     1      12.310   9.541  22.008  0.00  0.00    +0.219 C 
ENDROOT
BRANCH  16  14
ATOM     14  C   UNL     1      12.748  10.929  22.365  0.00  0.00    +0.075 C 
ATOM     18  C   UNL     1      12.058  11.390  23.653  0.00  0.00    +0.013 C 
ATOM     19  C   UNL     1      12.333  11.923  21.279  0.00  0.00    +0.013 C 
ATOM     20  C   UNL     1      11.344  12.691  23.301  0.00  0.00    +0.001 C 
ATOM     21  C   UNL     1      11.065  12.570  21.814  0.00  0.00    +0.001 C 
ENDBRANCH  16  14
BRANCH   8  12
ATOM     12  C   UNL     1      15.319   9.471  19.658  0.00  0.00    +0.020 C 
BRANCH  12  17
ATOM     17  C   UNL     1      15.745  10.864  20.101  0.00  0.00    +0.085 C 
BRANCH  17   6
ATOM      4  O   UNL     1      14.611  10.939  14.228  0.00  0.00    -0.276 OA
ATOM      6  N   UNL     1      15.529  11.820  19.010  0.00  0.00    -0.301 NA
ATOM      7  N   UNL     1      15.496  12.372  15.839  0.00  0.00    -0.300 N 
ATOM     22  C   UNL     1      16.807  12.445  18.636  0.00  0.00    +0.086 C 
ATOM     23  C   UNL     1      14.848  11.149  17.895  0.00  0.00    +0.103 C 
ATOM     25  C   UNL     1      16.643  13.659  17.718  0.00  0.00    +0.034 C 
ATOM     26  C   UNL     1      14.412  12.105  16.783  0.00  0.00    +0.123 C 
ATOM     27  C   UNL     1      16.551  13.308  16.234  0.00  0.00    +0.109 C 
ATOM     28  C   UNL     1      15.483  11.732  14.592  0.00  0.00    +0.212 C 
ATOM     29  C   UNL     1      16.630  12.049  13.663  0.00  0.00    +0.109 C 
ENDBRANCH  17   6
ENDBRANCH  12  17
ENDBRANCH   8  12
BRANCH   9  15
ATOM     15  C   UNL     1      15.948   6.537  19.101  0.00  0.00    +0.124 C 
BRANCH  15  24
ATOM      3  O   UNL     1      17.926   6.111  20.460  0.00  0.00    -0.251 OA
ATOM     24  C   UNL     1      17.320   6.003  19.404  0.00  0.00    +0.305 C 
BRANCH  24   2
ATOM      2  O   UNL     1      17.815   5.365  18.312  0.00  0.00    -0.481 OA
ATOM     30  H   UNL     1      17.121   4.855  17.842  0.00  0.00    +0.295 HD
ENDBRANCH  24   2
ENDBRANCH  15  24
ENDBRANCH   9  15
TORSDOF 7
ENDMDL
MODEL 6
REMARK VINA RESULT:      -5.9     23.541     27.111
REMARK  Name = 28959840
REMARK  8 active torsions:
REMARK  status: ('A' for Active; 'I' for Inactive)
REMARK    1  A    between atoms: O_2  and  C_24
REMARK    2  A    between atoms: N_6  and  C_17
REMARK    3  A    between atoms: C_8  and  C_12
REMARK    4  A    between atoms: C_9  and  C_15
REMARK    5  A    between atoms: C_12  and  C_17
REMARK    6  A    between atoms: C_14  and  C_16
REMARK    7  A    between atoms: C_15  and  C_24
REMARK    8  A    between atoms: C_28  and  C_29
REMARK                            x       y       z     vdW  Elec       q    Type
REMARK                         _______ _______ _______ _____ _____    ______ ____
ROOT
ATOM      1  O   UNL     1      -2.350 -10.269  13.744  0.00  0.00    -0.275 OA
ATOM      5  N   UNL     1      -3.876 -11.337  15.134  0.00  0.00    -0.301 N 
ATOM      8  C   UNL     1      -6.071 -11.447  16.291  0.00  0.00    +0.011 C 
ATOM      9  C   UNL     1      -5.353 -11.061  17.611  0.00  0.00    +0.006 C 
ATOM     10  C   UNL     1      -5.082 -12.149  15.343  0.00  0.00    +0.111 C 
ATOM     11  C   UNL     1      -4.070 -10.258  17.342  0.00  0.00    +0.023 C 
ATOM     13  C   UNL     1      -3.156 -10.985  16.357  0.00  0.00    +0.108 C 
ATOM     16  C   UNL     1      -3.382 -10.929  13.895  0.00  0.00    +0.219 C 
ENDROOT
BRANCH  16  14
ATOM     14  C   UNL     1      -4.177 -11.328  12.690  0.00  0.00    +0.075 C 
ATOM     18  C   UNL     1      -3.243 -11.693  11.532  0.00  0.00    +0.013 C 
ATOM     19  C   UNL     1      -5.033 -10.160  12.197  0.00  0.00    +0.013 C 
ATOM     20  C   UNL     1      -3.650 -10.796  10.369  0.00  0.00    +0.001 C 
ATOM     21  C   UNL     1      -4.245  -9.570  11.037  0.00  0.00    +0.001 C 
ENDBRANCH  16  14
BRANCH   8  12
ATOM     12  C   UNL     1      -6.744 -10.265  15.580  0.00  0.00    +0.020 C 
BRANCH  12  17
ATOM     17  C   UNL     1      -8.080 -10.682  14.981  0.00  0.00    +0.085 C 
BRANCH  17   6
ATOM      4  O   UNL     1     -13.398  -8.046  14.239  0.00  0.00    -0.276 OA
ATOM      6  N   UNL     1      -9.178 -10.123  15.776  0.00  0.00    -0.301 NA
ATOM      7  N   UNL     1     -11.756  -8.200  15.886  0.00  0.00    -0.300 N 
ATOM     22  C   UNL     1      -8.768  -8.834  16.353  0.00  0.00    +0.086 C 
ATOM     23  C   UNL     1     -10.392 -10.046  14.953  0.00  0.00    +0.103 C 
ATOM     25  C   UNL     1      -9.729  -8.317  17.427  0.00  0.00    +0.034 C 
ATOM     26  C   UNL     1     -11.640  -9.650  15.744  0.00  0.00    +0.123 C 
ATOM     27  C   UNL     1     -10.912  -7.525  16.875  0.00  0.00    +0.109 C 
ATOM     28  C   UNL     1     -12.673  -7.510  15.080  0.00  0.00    +0.212 C 
ATOM     29  C   UNL     1     -12.744  -6.015  15.274  0.00  0.00    +0.109 C 
ENDBRANCH  17   6
ENDBRANCH  12  17
ENDBRANCH   8  12
BRANCH   9  15
ATOM     15  C   UNL     1      -6.258 -10.319  18.593  0.00  0.00    +0.124 C 
BRANCH  15  24
ATOM      3  O   UNL     1      -7.031 -12.463  19.454  0.00  0.00    -0.251 OA
ATOM     24  C   UNL     1      -7.182 -11.259  19.315  0.00  0.00    +0.305 C 
BRANCH  24   2
ATOM      2  O   UNL     1      -8.243 -10.570  19.808  0.00  0.00    -0.481 OA
ATOM     30  H   UNL     1      -8.170  -9.608  19.627  0.00  0.00    +0.295 HD
ENDBRANCH  24   2
ENDBRANCH  15  24
ENDBRANCH   9  15
TORSDOF 7
ENDMDL
MODEL 7
REMARK VINA RESULT:      -5.8      1.937      2.350
REMARK  Name = 28959840
REMARK  8 active torsions:
REMARK  status: ('A' for Active; 'I' for Inactive)
REMARK    1  A    between atoms: O_2  and  C_24
REMARK    2  A    between atoms: N_6  and  C_17
REMARK    3  A    between atoms: C_8  and  C_12
REMARK    4  A    between atoms: C_9  and  C_15
REMARK    5  A    between atoms: C_12  and  C_17
REMARK    6  A    between atoms: C_14  and  C_16
REMARK    7  A    between atoms: C_15  and  C_24
REMARK    8  A    between atoms: C_28  and  C_29
REMARK                            x       y       z     vdW  Elec       q    Type
REMARK                         _______ _______ _______ _____ _____    ______ ____
ROOT
ATOM      1  O   UNL     1       6.738  10.006   4.567  0.00  0.00    -0.275 OA
ATOM      5  N   UNL     1       8.702   8.889   5.110  0.00  0.00    -0.301 N 
ATOM      8  C   UNL     1      10.204   6.917   4.963  0.00  0.00    +0.011 C 
ATOM      9  C   UNL     1       9.744   6.506   6.386  0.00  0.00    +0.006 C 
ATOM     10  C   UNL     1      10.062   8.439   4.786  0.00  0.00    +0.111 C 
ATOM     11  C   UNL     1       8.337   7.042   6.701  0.00  0.00    +0.023 C 
ATOM     13  C   UNL     1       8.249   8.547   6.458  0.00  0.00    +0.108 C 
ATOM     16  C   UNL     1       7.867   9.616   4.261  0.00  0.00    +0.219 C 
ENDROOT
BRANCH  16  14
ATOM     14  C   UNL     1       8.403   9.925   2.896  0.00  0.00    +0.075 C 
ATOM     18  C   UNL     1       8.261  11.421   2.595  0.00  0.00    +0.013 C 
ATOM     19  C   UNL     1       7.597   9.194   1.822  0.00  0.00    +0.013 C 
ATOM     20  C   UNL     1       7.462  11.511   1.300  0.00  0.00    +0.001 C 
ATOM     21  C   UNL     1       6.631  10.242   1.287  0.00  0.00    +0.001 C 
ENDBRANCH  16  14
BRANCH   8  12
ATOM     12  C   UNL     1       9.473   6.178   3.835  0.00  0.00    +0.020 C 
BRANCH  12  17
ATOM     17  C   UNL     1       9.984   6.627   2.473  0.00  0.00    +0.085 C 
BRANCH  17   6
ATOM      4  O   UNL     1      14.957   3.331   2.040  0.00  0.00    -0.276 OA
ATOM      6  N   UNL     1      10.507   5.475   1.733  0.00  0.00    -0.301 NA
ATOM      7  N   UNL     1      13.080   3.813   0.744  0.00  0.00    -0.300 N 
ATOM     22  C   UNL     1      10.806   5.866   0.347  0.00  0.00    +0.086 C 
ATOM     23  C   UNL     1      11.657   4.910   2.451  0.00  0.00    +0.103 C 
ATOM     25  C   UNL     1      11.077   4.674  -0.575  0.00  0.00    +0.034 C 
ATOM     26  C   UNL     1      12.159   3.592   1.858  0.00  0.00    +0.123 C 
ATOM     27  C   UNL     1      12.524   4.190  -0.557  0.00  0.00    +0.109 C 
ATOM     28  C   UNL     1      14.456   3.648   0.959  0.00  0.00    +0.212 C 
ATOM     29  C   UNL     1      15.354   3.892  -0.230  0.00  0.00    +0.109 C 
ENDBRANCH  17   6
ENDBRANCH  12  17
ENDBRANCH   8  12
BRANCH   9  15
ATOM     15  C   UNL     1       9.814   4.999   6.629  0.00  0.00    +0.124 C 
BRANCH  15  24
ATOM      3  O   UNL     1       9.540   3.920   8.797  0.00  0.00    -0.251 OA
ATOM     24  C   UNL     1      10.147   4.683   8.060  0.00  0.00    +0.305 C 
BRANCH  24   2
ATOM      2  O   UNL     1      11.247   5.382   8.439  0.00  0.00    -0.481 OA
ATOM     30  H   UNL     1      11.387   5.346   9.410  0.00  0.00    +0.295 HD
ENDBRANCH  24   2
ENDBRANCH  15  24
ENDBRANCH   9  15
TORSDOF 7
ENDMDL
MODEL 8
REMARK VINA RESULT:      -5.7     23.372     26.502
REMARK  Name = 28959840
REMARK  8 active torsions:
REMARK  status: ('A' for Active; 'I' for Inactive)
REMARK    1  A    between atoms: O_2  and  C_24
REMARK    2  A    between atoms: N_6  and  C_17
REMARK    3  A    between atoms: C_8  and  C_12
REMARK    4  A    between atoms: C_9  and  C_15
REMARK    5  A    between atoms: C_12  and  C_17
REMARK    6  A    between atoms: C_14  and  C_16
REMARK    7  A    between atoms: C_15  and  C_24
REMARK    8  A    between atoms: C_28  and  C_29
REMARK                            x       y       z     vdW  Elec       q    Type
REMARK                         _______ _______ _______ _____ _____    ______ ____
ROOT
ATOM      1  O   UNL     1     -10.997 -10.406  17.562  0.00  0.00    -0.275 OA
ATOM      5  N   UNL     1      -8.764 -10.154  18.154  0.00  0.00    -0.301 N 
ATOM      8  C   UNL     1      -6.341 -10.502  17.733  0.00  0.00    +0.011 C 
ATOM      9  C   UNL     1      -6.353 -11.621  18.807  0.00  0.00    +0.006 C 
ATOM     10  C   UNL     1      -7.462  -9.488  18.023  0.00  0.00    +0.111 C 
ATOM     11  C   UNL     1      -7.747 -12.255  18.947  0.00  0.00    +0.023 C 
ATOM     13  C   UNL     1      -8.818 -11.193  19.182  0.00  0.00    +0.108 C 
ATOM     16  C   UNL     1      -9.906  -9.849  17.414  0.00  0.00    +0.219 C 
ENDROOT
BRANCH  16  14
ATOM     14  C   UNL     1      -9.768  -8.775  16.378  0.00  0.00    +0.075 C 
ATOM     18  C   UNL     1     -10.269  -7.437  16.931  0.00  0.00    +0.013 C 
ATOM     19  C   UNL     1     -10.637  -9.086  15.159  0.00  0.00    +0.013 C 
ATOM     20  C   UNL     1     -11.344  -6.961  15.960  0.00  0.00    +0.001 C 
ATOM     21  C   UNL     1     -11.888  -8.241  15.352  0.00  0.00    +0.001 C 
ENDBRANCH  16  14
BRANCH   8  12
ATOM     12  C   UNL     1      -6.448 -11.020  16.294  0.00  0.00    +0.020 C 
BRANCH  12  17
ATOM     17  C   UNL     1      -6.000  -9.957  15.300  0.00  0.00    +0.085 C 
BRANCH  17   6
ATOM      4  O   UNL     1      -2.370  -9.488  10.568  0.00  0.00    -0.276 OA
ATOM      6  N   UNL     1      -5.785 -10.566  13.983  0.00  0.00    -0.301 NA
ATOM      7  N   UNL     1      -4.496 -10.318  11.045  0.00  0.00    -0.300 N 
ATOM     22  C   UNL     1      -6.836 -10.126  13.054  0.00  0.00    +0.086 C 
ATOM     23  C   UNL     1      -4.422 -10.272  13.521  0.00  0.00    +0.103 C 
ATOM     25  C   UNL     1      -6.868 -10.929  11.750  0.00  0.00    +0.034 C 
ATOM     26  C   UNL     1      -4.037 -11.019  12.243  0.00  0.00    +0.123 C 
ATOM     27  C   UNL     1      -5.911 -10.413  10.678  0.00  0.00    +0.109 C 
ATOM     28  C   UNL     1      -3.567  -9.589  10.289  0.00  0.00    +0.212 C 
ATOM     29  C   UNL     1      -4.103  -8.887   9.064  0.00  0.00    +0.109 C 
ENDBRANCH  17   6
ENDBRANCH  12  17
ENDBRANCH   8  12
BRANCH   9  15
ATOM     15  C   UNL     1      -5.293 -12.696  18.567  0.00  0.00    +0.124 C 
BRANCH  15  24
ATOM      3  O   UNL     1      -3.425 -12.195  20.050  0.00  0.00    -0.251 OA
ATOM     24  C   UNL     1      -3.918 -12.210  18.932  0.00  0.00    +0.305 C 
BRANCH  24   2
ATOM      2  O   UNL     1      -3.276 -11.775  17.818  0.00  0.00    -0.481 OA
ATOM     30  H   UNL     1      -3.084 -10.813  17.859  0.00  0.00    +0.295 HD
ENDBRANCH  24   2
ENDBRANCH  15  24
ENDBRANCH   9  15
TORSDOF 7
ENDMDL
MODEL 9
REMARK VINA RESULT:      -5.7     22.162     25.742
REMARK  Name = 28959840
REMARK  8 active torsions:
REMARK  status: ('A' for Active; 'I' for Inactive)
REMARK    1  A    between atoms: O_2  and  C_24
REMARK    2  A    between atoms: N_6  and  C_17
REMARK    3  A    between atoms: C_8  and  C_12
REMARK    4  A    between atoms: C_9  and  C_15
REMARK    5  A    between atoms: C_12  and  C_17
REMARK    6  A    between atoms: C_14  and  C_16
REMARK    7  A    between atoms: C_15  and  C_24
REMARK    8  A    between atoms: C_28  and  C_29
REMARK                            x       y       z     vdW  Elec       q    Type
REMARK                         _______ _______ _______ _____ _____    ______ ____
ROOT
ATOM      1  O   UNL     1      -3.595  -8.679   9.812  0.00  0.00    -0.275 OA
ATOM      5  N   UNL     1      -3.107 -10.656  10.930  0.00  0.00    -0.301 N 
ATOM      8  C   UNL     1      -3.444 -12.239  12.814  0.00  0.00    +0.011 C 
ATOM      9  C   UNL     1      -2.117 -11.727  13.433  0.00  0.00    +0.006 C 
ATOM     10  C   UNL     1      -3.417 -12.046  11.287  0.00  0.00    +0.111 C 
ATOM     11  C   UNL     1      -1.807 -10.286  12.992  0.00  0.00    +0.023 C 
ATOM     13  C   UNL     1      -1.845 -10.152  11.471  0.00  0.00    +0.108 C 
ATOM     16  C   UNL     1      -3.891  -9.836  10.119  0.00  0.00    +0.219 C 
ENDROOT
BRANCH  16  14
ATOM     14  C   UNL     1      -5.170 -10.425   9.606  0.00  0.00    +0.075 C 
ATOM     18  C   UNL     1      -5.264 -10.249   8.087  0.00  0.00    +0.013 C 
ATOM     19  C   UNL     1      -6.376  -9.694  10.197  0.00  0.00    +0.013 C 
ATOM     20  C   UNL     1      -6.573  -9.509   7.833  0.00  0.00    +0.001 C 
ATOM     21  C   UNL     1      -6.806  -8.720   9.109  0.00  0.00    +0.001 C 
ENDBRANCH  16  14
BRANCH   8  12
ATOM     12  C   UNL     1      -4.700 -11.593  13.411  0.00  0.00    +0.020 C 
BRANCH  12  17
ATOM     17  C   UNL     1      -5.281 -12.459  14.521  0.00  0.00    +0.085 C 
BRANCH  17   6
ATOM      4  O   UNL     1      -7.832 -12.839  19.918  0.00  0.00    -0.276 OA
ATOM      6  N   UNL     1      -5.480 -11.652  15.729  0.00  0.00    -0.301 NA
ATOM      7  N   UNL     1      -7.149 -11.172  18.438  0.00  0.00    -0.300 N 
ATOM     22  C   UNL     1      -6.488 -10.613  15.472  0.00  0.00    +0.086 C 
ATOM     23  C   UNL     1      -5.808 -12.531  16.859  0.00  0.00    +0.103 C 
ATOM     25  C   UNL     1      -6.551  -9.546  16.568  0.00  0.00    +0.034 C 
ATOM     26  C   UNL     1      -5.852 -11.804  18.204  0.00  0.00    +0.123 C 
ATOM     27  C   UNL     1      -7.450  -9.916  17.746  0.00  0.00    +0.109 C 
ATOM     28  C   UNL     1      -8.053 -11.783  19.319  0.00  0.00    +0.212 C 
ATOM     29  C   UNL     1      -9.375 -11.082  19.517  0.00  0.00    +0.109 C 
ENDBRANCH  17   6
ENDBRANCH  12  17
ENDBRANCH   8  12
BRANCH   9  15
ATOM     15  C   UNL     1      -2.081 -11.844  14.957  0.00  0.00    +0.124 C 
BRANCH  15  24
ATOM      3  O   UNL     1      -0.692 -10.025  15.795  0.00  0.00    -0.251 OA
ATOM     24  C   UNL     1      -1.793 -10.520  15.608  0.00  0.00    +0.305 C 
BRANCH  24   2
ATOM      2  O   UNL     1      -2.959  -9.928  15.975  0.00  0.00    -0.481 OA
ATOM     30  H   UNL     1      -3.708 -10.562  15.971  0.00  0.00    +0.295 HD
ENDBRANCH  24   2
ENDBRANCH  15  24
ENDBRANCH   9  15
TORSDOF 7
ENDMDL
MODEL 10
REMARK VINA RESULT:      -5.6     15.650     18.305
REMARK  Name = 28959840
REMARK  8 active torsions:
REMARK  status: ('A' for Active; 'I' for Inactive)
REMARK    1  A    between atoms: O_2  and  C_24
REMARK    2  A    between atoms: N_6  and  C_17
REMARK    3  A    between atoms: C_8  and  C_12
REMARK    4  A    between atoms: C_9  and  C_15
REMARK    5  A    between atoms: C_12  and  C_17
REMARK    6  A    between atoms: C_14  and  C_16
REMARK    7  A    between atoms: C_15  and  C_24
REMARK    8  A    between atoms: C_28  and  C_29
REMARK                            x       y       z     vdW  Elec       q    Type
REMARK                         _______ _______ _______ _____ _____    ______ ____
ROOT
ATOM      1  O   UNL     1      14.316  13.903  20.121  0.00  0.00    -0.275 OA
ATOM      5  N   UNL     1      13.980  12.585  22.004  0.00  0.00    -0.301 N 
ATOM      8  C   UNL     1      12.555  11.124  23.420  0.00  0.00    +0.011 C 
ATOM      9  C   UNL     1      12.365  12.316  24.395  0.00  0.00    +0.006 C 
ATOM     10  C   UNL     1      13.886  11.275  22.662  0.00  0.00    +0.111 C 
ATOM     11  C   UNL     1      12.523  13.666  23.674  0.00  0.00    +0.023 C 
ATOM     13  C   UNL     1      13.839  13.731  22.901  0.00  0.00    +0.108 C 
ATOM     16  C   UNL     1      14.215  12.792  20.645  0.00  0.00    +0.219 C 
ENDROOT
BRANCH  16  14
ATOM     14  C   UNL     1      14.346  11.566  19.792  0.00  0.00    +0.075 C 
ATOM     18  C   UNL     1      15.740  11.505  19.159  0.00  0.00    +0.013 C 
ATOM     19  C   UNL     1      13.350  11.607  18.632  0.00  0.00    +0.013 C 
ATOM     20  C   UNL     1      15.510  11.411  17.654  0.00  0.00    +0.001 C 
ATOM     21  C   UNL     1      14.168  12.087  17.441  0.00  0.00    +0.001 C 
ENDBRANCH  16  14
BRANCH   8  12
ATOM     12  C   UNL     1      11.396  10.937  22.433  0.00  0.00    +0.020 C 
BRANCH  12  17
ATOM     17  C   UNL     1      10.680   9.616  22.681  0.00  0.00    +0.085 C 
BRANCH  17   6
ATOM      4  O   UNL     1      15.174   6.122  20.843  0.00  0.00    -0.276 OA
ATOM      6  N   UNL     1      11.000   8.668  21.609  0.00  0.00    -0.301 NA
ATOM      7  N   UNL     1      13.268   7.112  19.937  0.00  0.00    -0.300 N 
ATOM     22  C   UNL     1      11.229   9.395  20.352  0.00  0.00    +0.086 C 
ATOM     23  C   UNL     1      12.130   7.824  22.020  0.00  0.00    +0.103 C 
ATOM     25  C   UNL     1      11.280   8.483  19.124  0.00  0.00    +0.034 C 
ATOM     26  C   UNL     1      12.422   6.680  21.049  0.00  0.00    +0.123 C 
ATOM     27  C   UNL     1      12.656   7.882  18.852  0.00  0.00    +0.109 C 
ATOM     28  C   UNL     1      14.627   6.769  19.947  0.00  0.00    +0.212 C 
ATOM     29  C   UNL     1      15.447   7.245  18.772  0.00  0.00    +0.109 C 
ENDBRANCH  17   6
ENDBRANCH  12  17
ENDBRANCH   8  12
BRANCH   9  15
ATOM     15  C   UNL     1      11.043  12.263  25.158  0.00  0.00    +0.124 C 
BRANCH  15  24
ATOM      3  O   UNL     1       9.861  14.346  24.704  0.00  0.00    -0.251 OA
ATOM     24  C   UNL     1      10.518  13.641  25.455  0.00  0.00    +0.305 C 
BRANCH  24   2
ATOM      2  O   UNL     1      10.885  14.010  26.709  0.00  0.00    -0.481 OA
ATOM     30  H   UNL     1      10.113  14.084  27.309  0.00  0.00    +0.295 HD
ENDBRANCH  24   2
ENDBRANCH  15  24
ENDBRANCH   9  15
TORSDOF 7
ENDMDL
