MODEL 1
REMARK VINA RESULT:      -7.0      0.000      0.000
REMARK  Name = 51137597
REMARK  7 active torsions:
REMARK  status: ('A' for Active; 'I' for Inactive)
REMARK    1  A    between atoms: O_4  and  C_19
REMARK    2  A    between atoms: O_4  and  C_21
REMARK    3  A    between atoms: N_5  and  C_12
REMARK    4  A    between atoms: C_8  and  C_13
REMARK    5  A    between atoms: C_12  and  C_14
REMARK    6  A    between atoms: C_16  and  C_19
REMARK    7  A    between atoms: C_17  and  C_20
REMARK                            x       y       z     vdW  Elec       q    Type
REMARK                         _______ _______ _______ _____ _____    ______ ____
ROOT
ATOM      2  O   UNL     1     -15.827   4.939  24.205  0.00  0.00    -0.421 OA
ATOM      6  N   UNL     1     -16.316   2.761  24.061  0.00  0.00    -0.112 NA
ATOM      7  N   UNL     1     -15.935   3.197  22.806  0.00  0.00    -0.109 NA
ATOM     13  C   UNL     1     -16.237   3.811  24.846  0.00  0.00    +0.222 A 
ATOM     16  C   UNL     1     -15.659   4.474  22.938  0.00  0.00    +0.254 A 
ENDROOT
BRANCH  13   8
ATOM      5  N   UNL     1     -17.079   2.680  28.228  0.00  0.00    -0.294 NA
ATOM      8  C   UNL     1     -16.533   3.934  26.323  0.00  0.00    +0.092 C 
ATOM      9  C   UNL     1     -18.017   4.145  26.669  0.00  0.00    +0.029 C 
ATOM     10  C   UNL     1     -16.121   2.691  27.121  0.00  0.00    +0.097 C 
ATOM     11  C   UNL     1     -18.368   3.003  27.614  0.00  0.00    +0.085 C 
BRANCH   5  12
ATOM     12  C   UNL     1     -17.103   1.406  28.931  0.00  0.00    +0.158 C 
BRANCH  12  14
ATOM      3  O   UNL     1     -15.133  -0.021  29.016  0.00  0.00    -0.464 OA
ATOM     14  C   UNL     1     -15.762   1.070  29.526  0.00  0.00    +0.119 A 
ATOM     15  C   UNL     1     -14.999   1.648  30.516  0.00  0.00    +0.046 A 
ATOM     17  C   UNL     1     -13.957  -0.141  29.686  0.00  0.00    +0.102 A 
ATOM     18  C   UNL     1     -13.828   0.861  30.620  0.00  0.00    +0.044 A 
ATOM     20  C   UNL     1     -13.098  -1.269  29.296  0.00  0.00    +0.086 C 
ENDBRANCH  12  14
ENDBRANCH   5  12
ENDBRANCH  13   8
BRANCH  16  19
ATOM     19  C   UNL     1     -15.204   5.440  21.931  0.00  0.00    +0.326 C 
BRANCH  19   4
ATOM      4  O   UNL     1     -13.777   5.417  21.829  0.00  0.00    -0.483 OA
BRANCH   4  21
ATOM      1  F   UNL     1     -11.368  10.028  20.058  0.00  0.00    -0.205 F 
ATOM     21  C   UNL     1     -13.178   6.564  21.389  0.00  0.00    +0.121 A 
ATOM     22  C   UNL     1     -13.828   7.790  21.534  0.00  0.00    +0.048 A 
ATOM     23  C   UNL     1     -11.917   6.508  20.796  0.00  0.00    +0.048 A 
ATOM     24  C   UNL     1     -13.216   8.960  21.084  0.00  0.00    +0.042 A 
ATOM     25  C   UNL     1     -11.306   7.679  20.346  0.00  0.00    +0.042 A 
ATOM     26  C   UNL     1     -11.956   8.905  20.490  0.00  0.00    +0.124 A 
ENDBRANCH   4  21
ENDBRANCH  19   4
ENDBRANCH  16  19
TORSDOF 6
ENDMDL
MODEL 2
REMARK VINA RESULT:      -6.9      2.097      2.999
REMARK  Name = 51137597
REMARK  7 active torsions:
REMARK  status: ('A' for Active; 'I' for Inactive)
REMARK    1  A    between atoms: O_4  and  C_19
REMARK    2  A    between atoms: O_4  and  C_21
REMARK    3  A    between atoms: N_5  and  C_12
REMARK    4  A    between atoms: C_8  and  C_13
REMARK    5  A    between atoms: C_12  and  C_14
REMARK    6  A    between atoms: C_16  and  C_19
REMARK    7  A    between atoms: C_17  and  C_20
REMARK                            x       y       z     vdW  Elec       q    Type
REMARK                         _______ _______ _______ _____ _____    ______ ____
ROOT
ATOM      2  O   UNL     1     -16.423   4.219  25.676  0.00  0.00    -0.421 OA
ATOM      6  N   UNL     1     -16.282   2.070  25.071  0.00  0.00    -0.112 NA
ATOM      7  N   UNL     1     -16.170   2.843  23.931  0.00  0.00    -0.109 NA
ATOM     13  C   UNL     1     -16.428   2.915  26.065  0.00  0.00    +0.222 A 
ATOM     16  C   UNL     1     -16.258   4.090  24.332  0.00  0.00    +0.254 A 
ENDROOT
BRANCH  13   8
ATOM      5  N   UNL     1     -15.405   2.097  29.487  0.00  0.00    -0.294 NA
ATOM      8  C   UNL     1     -16.596   2.646  27.543  0.00  0.00    +0.092 C 
ATOM      9  C   UNL     1     -16.853   1.173  27.905  0.00  0.00    +0.029 C 
ATOM     10  C   UNL     1     -15.363   3.039  28.366  0.00  0.00    +0.097 C 
ATOM     11  C   UNL     1     -15.744   0.808  28.885  0.00  0.00    +0.085 C 
BRANCH   5  12
ATOM     12  C   UNL     1     -14.150   2.052  30.223  0.00  0.00    +0.158 C 
BRANCH  12  14
ATOM      3  O   UNL     1     -14.203   3.438  32.223  0.00  0.00    -0.464 OA
ATOM     14  C   UNL     1     -14.365   2.192  31.707  0.00  0.00    +0.119 A 
ATOM     15  C   UNL     1     -14.704   1.299  32.697  0.00  0.00    +0.046 A 
ATOM     17  C   UNL     1     -14.441   3.340  33.558  0.00  0.00    +0.102 A 
ATOM     18  C   UNL     1     -14.753   2.045  33.899  0.00  0.00    +0.044 A 
ATOM     20  C   UNL     1     -14.321   4.584  34.333  0.00  0.00    +0.086 C 
ENDBRANCH  12  14
ENDBRANCH   5  12
ENDBRANCH  13   8
BRANCH  16  19
ATOM     19  C   UNL     1     -16.200   5.330  23.547  0.00  0.00    +0.326 C 
BRANCH  19   4
ATOM      4  O   UNL     1     -15.805   5.049  22.202  0.00  0.00    -0.483 OA
BRANCH   4  21
ATOM      1  F   UNL     1     -11.200   7.475  20.440  0.00  0.00    -0.205 F 
ATOM     21  C   UNL     1     -14.660   5.652  21.764  0.00  0.00    +0.121 A 
ATOM     22  C   UNL     1     -14.735   6.780  20.945  0.00  0.00    +0.048 A 
ATOM     23  C   UNL     1     -13.417   5.141  22.135  0.00  0.00    +0.048 A 
ATOM     24  C   UNL     1     -13.566   7.395  20.498  0.00  0.00    +0.042 A 
ATOM     25  C   UNL     1     -12.248   5.757  21.689  0.00  0.00    +0.042 A 
ATOM     26  C   UNL     1     -12.323   6.884  20.869  0.00  0.00    +0.124 A 
ENDBRANCH   4  21
ENDBRANCH  19   4
ENDBRANCH  16  19
TORSDOF 6
ENDMDL
MODEL 3
REMARK VINA RESULT:      -6.8     19.290     20.981
REMARK  Name = 51137597
REMARK  7 active torsions:
REMARK  status: ('A' for Active; 'I' for Inactive)
REMARK    1  A    between atoms: O_4  and  C_19
REMARK    2  A    between atoms: O_4  and  C_21
REMARK    3  A    between atoms: N_5  and  C_12
REMARK    4  A    between atoms: C_8  and  C_13
REMARK    5  A    between atoms: C_12  and  C_14
REMARK    6  A    between atoms: C_16  and  C_19
REMARK    7  A    between atoms: C_17  and  C_20
REMARK                            x       y       z     vdW  Elec       q    Type
REMARK                         _______ _______ _______ _____ _____    ______ ____
ROOT
ATOM      2  O   UNL     1      -3.416 -10.901  14.660  0.00  0.00    -0.421 OA
ATOM      6  N   UNL     1      -2.058 -10.778  16.434  0.00  0.00    -0.112 NA
ATOM      7  N   UNL     1      -1.293 -11.112  15.333  0.00  0.00    -0.109 NA
ATOM     13  C   UNL     1      -3.290 -10.664  15.994  0.00  0.00    +0.222 A 
ATOM     16  C   UNL     1      -2.126 -11.173  14.320  0.00  0.00    +0.254 A 
ENDROOT
BRANCH  13   8
ATOM      5  N   UNL     1      -6.062 -11.140  18.342  0.00  0.00    -0.294 NA
ATOM      8  C   UNL     1      -4.553 -10.316  16.747  0.00  0.00    +0.092 C 
ATOM      9  C   UNL     1      -5.858 -10.740  16.050  0.00  0.00    +0.029 C 
ATOM     10  C   UNL     1      -4.623 -10.970  18.133  0.00  0.00    +0.097 C 
ATOM     11  C   UNL     1      -6.575 -11.626  17.061  0.00  0.00    +0.085 C 
BRANCH   5  12
ATOM     12  C   UNL     1      -6.362 -12.047  19.439  0.00  0.00    +0.158 C 
BRANCH  12  14
ATOM      3  O   UNL     1      -8.527 -10.980  19.748  0.00  0.00    -0.464 OA
ATOM     14  C   UNL     1      -7.842 -12.152  19.693  0.00  0.00    +0.119 A 
ATOM     15  C   UNL     1      -8.691 -13.217  19.890  0.00  0.00    +0.046 A 
ATOM     17  C   UNL     1      -9.827 -11.300  19.982  0.00  0.00    +0.102 A 
ATOM     18  C   UNL     1      -9.979 -12.663  20.078  0.00  0.00    +0.044 A 
ATOM     20  C   UNL     1     -10.767 -10.173  20.082  0.00  0.00    +0.086 C 
ENDBRANCH  12  14
ENDBRANCH   5  12
ENDBRANCH  13   8
BRANCH  16  19
ATOM     19  C   UNL     1      -1.863 -11.484  12.910  0.00  0.00    +0.326 C 
BRANCH  19   4
ATOM      4  O   UNL     1      -1.943 -10.296  12.116  0.00  0.00    -0.483 OA
BRANCH   4  21
ATOM      1  F   UNL     1      -5.356 -10.448   7.812  0.00  0.00    -0.205 F 
ATOM     21  C   UNL     1      -2.792 -10.334  11.046  0.00  0.00    +0.121 A 
ATOM     22  C   UNL     1      -3.073  -9.165  10.337  0.00  0.00    +0.048 A 
ATOM     23  C   UNL     1      -3.377 -11.540  10.662  0.00  0.00    +0.048 A 
ATOM     24  C   UNL     1      -3.939  -9.204   9.245  0.00  0.00    +0.042 A 
ATOM     25  C   UNL     1      -4.242 -11.579   9.569  0.00  0.00    +0.042 A 
ATOM     26  C   UNL     1      -4.524 -10.410   8.861  0.00  0.00    +0.124 A 
ENDBRANCH   4  21
ENDBRANCH  19   4
ENDBRANCH  16  19
TORSDOF 6
ENDMDL
MODEL 4
REMARK VINA RESULT:      -6.7      3.423      9.839
REMARK  Name = 51137597
REMARK  7 active torsions:
REMARK  status: ('A' for Active; 'I' for Inactive)
REMARK    1  A    between atoms: O_4  and  C_19
REMARK    2  A    between atoms: O_4  and  C_21
REMARK    3  A    between atoms: N_5  and  C_12
REMARK    4  A    between atoms: C_8  and  C_13
REMARK    5  A    between atoms: C_12  and  C_14
REMARK    6  A    between atoms: C_16  and  C_19
REMARK    7  A    between atoms: C_17  and  C_20
REMARK                            x       y       z     vdW  Elec       q    Type
REMARK                         _______ _______ _______ _____ _____    ______ ____
ROOT
ATOM      2  O   UNL     1     -15.921   4.590  24.647  0.00  0.00    -0.421 OA
ATOM      6  N   UNL     1     -16.204   2.866  23.251  0.00  0.00    -0.112 NA
ATOM      7  N   UNL     1     -16.478   2.427  24.532  0.00  0.00    -0.109 NA
ATOM     13  C   UNL     1     -15.884   4.134  23.366  0.00  0.00    +0.222 A 
ATOM     16  C   UNL     1     -16.300   3.466  25.314  0.00  0.00    +0.254 A 
ENDROOT
BRANCH  13   8
ATOM      5  N   UNL     1     -13.659   6.309  21.431  0.00  0.00    -0.294 NA
ATOM      8  C   UNL     1     -15.491   5.129  22.299  0.00  0.00    +0.092 C 
ATOM      9  C   UNL     1     -15.580   6.604  22.727  0.00  0.00    +0.029 C 
ATOM     10  C   UNL     1     -14.045   4.950  21.818  0.00  0.00    +0.097 C 
ATOM     11  C   UNL     1     -14.184   7.168  22.494  0.00  0.00    +0.085 C 
BRANCH   5  12
ATOM     12  C   UNL     1     -12.221   6.452  21.262  0.00  0.00    +0.158 C 
BRANCH  12  14
ATOM      3  O   UNL     1     -11.356   7.169  19.103  0.00  0.00    -0.464 OA
ATOM     14  C   UNL     1     -11.877   7.555  20.297  0.00  0.00    +0.119 A 
ATOM     15  C   UNL     1     -11.978   8.926  20.359  0.00  0.00    +0.046 A 
ATOM     17  C   UNL     1     -11.122   8.305  18.395  0.00  0.00    +0.102 A 
ATOM     18  C   UNL     1     -11.487   9.413  19.124  0.00  0.00    +0.044 A 
ATOM     20  C   UNL     1     -10.550   8.129  17.052  0.00  0.00    +0.086 C 
ENDBRANCH  12  14
ENDBRANCH   5  12
ENDBRANCH  13   8
BRANCH  16  19
ATOM     19  C   UNL     1     -16.453   3.578  26.770  0.00  0.00    +0.326 C 
BRANCH  19   4
ATOM      4  O   UNL     1     -16.539   2.278  27.362  0.00  0.00    -0.483 OA
BRANCH   4  21
ATOM      1  F   UNL     1     -14.008   1.611  32.194  0.00  0.00    -0.205 F 
ATOM     21  C   UNL     1     -15.910   2.112  28.563  0.00  0.00    +0.121 A 
ATOM     22  C   UNL     1     -16.003   0.894  29.237  0.00  0.00    +0.048 A 
ATOM     23  C   UNL     1     -15.174   3.161  29.116  0.00  0.00    +0.048 A 
ATOM     24  C   UNL     1     -15.360   0.725  30.463  0.00  0.00    +0.042 A 
ATOM     25  C   UNL     1     -14.532   2.991  30.342  0.00  0.00    +0.042 A 
ATOM     26  C   UNL     1     -14.625   1.773  31.016  0.00  0.00    +0.124 A 
ENDBRANCH   4  21
ENDBRANCH  19   4
ENDBRANCH  16  19
TORSDOF 6
ENDMDL
MODEL 5
REMARK VINA RESULT:      -6.7      3.724      9.601
REMARK  Name = 51137597
REMARK  7 active torsions:
REMARK  status: ('A' for Active; 'I' for Inactive)
REMARK    1  A    between atoms: O_4  and  C_19
REMARK    2  A    between atoms: O_4  and  C_21
REMARK    3  A    between atoms: N_5  and  C_12
REMARK    4  A    between atoms: C_8  and  C_13
REMARK    5  A    between atoms: C_12  and  C_14
REMARK    6  A    between atoms: C_16  and  C_19
REMARK    7  A    between atoms: C_17  and  C_20
REMARK                            x       y       z     vdW  Elec       q    Type
REMARK                         _______ _______ _______ _____ _____    ______ ____
ROOT
ATOM      2  O   UNL     1     -15.969   3.703  25.921  0.00  0.00    -0.421 OA
ATOM      6  N   UNL     1     -16.479   1.705  25.055  0.00  0.00    -0.112 NA
ATOM      7  N   UNL     1     -16.638   1.630  26.425  0.00  0.00    -0.109 NA
ATOM     13  C   UNL     1     -16.088   2.933  24.805  0.00  0.00    +0.222 A 
ATOM     16  C   UNL     1     -16.329   2.819  26.889  0.00  0.00    +0.254 A 
ENDROOT
BRANCH  13   8
ATOM      5  N   UNL     1     -15.207   5.651  22.511  0.00  0.00    -0.294 NA
ATOM      8  C   UNL     1     -15.761   3.590  23.484  0.00  0.00    +0.092 C 
ATOM      9  C   UNL     1     -16.976   4.140  22.718  0.00  0.00    +0.029 C 
ATOM     10  C   UNL     1     -14.818   4.792  23.631  0.00  0.00    +0.097 C 
ATOM     11  C   UNL     1     -16.670   5.617  22.499  0.00  0.00    +0.085 C 
BRANCH   5  12
ATOM     12  C   UNL     1     -14.686   7.004  22.641  0.00  0.00    +0.158 C 
BRANCH  12  14
ATOM      3  O   UNL     1     -13.225   8.517  21.416  0.00  0.00    -0.464 OA
ATOM     14  C   UNL     1     -13.487   7.229  21.758  0.00  0.00    +0.119 A 
ATOM     15  C   UNL     1     -12.559   6.382  21.197  0.00  0.00    +0.046 A 
ATOM     17  C   UNL     1     -12.118   8.493  20.628  0.00  0.00    +0.102 A 
ATOM     18  C   UNL     1     -11.671   7.204  20.463  0.00  0.00    +0.044 A 
ATOM     20  C   UNL     1     -11.644   9.794  20.133  0.00  0.00    +0.086 C 
ENDBRANCH  12  14
ENDBRANCH   5  12
ENDBRANCH  13   8
BRANCH  16  19
ATOM     19  C   UNL     1     -16.323   3.310  28.273  0.00  0.00    +0.326 C 
BRANCH  19   4
ATOM      4  O   UNL     1     -15.004   3.239  28.819  0.00  0.00    -0.483 OA
BRANCH   4  21
ATOM      1  F   UNL     1     -14.548   1.108  33.864  0.00  0.00    -0.205 F 
ATOM     21  C   UNL     1     -14.890   2.709  30.074  0.00  0.00    +0.121 A 
ATOM     22  C   UNL     1     -14.976   1.329  30.258  0.00  0.00    +0.048 A 
ATOM     23  C   UNL     1     -14.688   3.548  31.169  0.00  0.00    +0.048 A 
ATOM     24  C   UNL     1     -14.860   0.789  31.539  0.00  0.00    +0.042 A 
ATOM     25  C   UNL     1     -14.572   3.007  32.450  0.00  0.00    +0.042 A 
ATOM     26  C   UNL     1     -14.659   1.627  32.634  0.00  0.00    +0.124 A 
ENDBRANCH   4  21
ENDBRANCH  19   4
ENDBRANCH  16  19
TORSDOF 6
ENDMDL
MODEL 6
REMARK VINA RESULT:      -6.5     28.579     31.995
REMARK  Name = 51137597
REMARK  7 active torsions:
REMARK  status: ('A' for Active; 'I' for Inactive)
REMARK    1  A    between atoms: O_4  and  C_19
REMARK    2  A    between atoms: O_4  and  C_21
REMARK    3  A    between atoms: N_5  and  C_12
REMARK    4  A    between atoms: C_8  and  C_13
REMARK    5  A    between atoms: C_12  and  C_14
REMARK    6  A    between atoms: C_16  and  C_19
REMARK    7  A    between atoms: C_17  and  C_20
REMARK                            x       y       z     vdW  Elec       q    Type
REMARK                         _______ _______ _______ _____ _____    ______ ____
ROOT
ATOM      2  O   UNL     1      16.198   7.849  20.452  0.00  0.00    -0.421 OA
ATOM      6  N   UNL     1      15.607   6.533  18.743  0.00  0.00    -0.112 NA
ATOM      7  N   UNL     1      16.776   6.031  19.284  0.00  0.00    -0.109 NA
ATOM     13  C   UNL     1      15.307   7.593  19.457  0.00  0.00    +0.222 A 
ATOM     16  C   UNL     1      17.084   6.831  20.279  0.00  0.00    +0.254 A 
ENDROOT
BRANCH  13   8
ATOM      5  N   UNL     1      12.116   9.162  20.340  0.00  0.00    -0.294 NA
ATOM      8  C   UNL     1      14.138   8.542  19.327  0.00  0.00    +0.092 C 
ATOM      9  C   UNL     1      12.960   8.006  18.495  0.00  0.00    +0.029 C 
ATOM     10  C   UNL     1      13.519   8.917  20.679  0.00  0.00    +0.097 C 
ATOM     11  C   UNL     1      11.754   8.080  19.423  0.00  0.00    +0.085 C 
BRANCH   5  12
ATOM     12  C   UNL     1      11.258   9.203  21.515  0.00  0.00    +0.158 C 
BRANCH  12  14
ATOM      3  O   UNL     1      11.047  10.602  23.495  0.00  0.00    -0.464 OA
ATOM     14  C   UNL     1      11.245  10.567  22.152  0.00  0.00    +0.119 A 
ATOM     15  C   UNL     1      11.394  11.840  21.652  0.00  0.00    +0.046 A 
ATOM     17  C   UNL     1      11.072  11.911  23.858  0.00  0.00    +0.102 A 
ATOM     18  C   UNL     1      11.281  12.713  22.761  0.00  0.00    +0.044 A 
ATOM     20  C   UNL     1      10.876  12.194  25.288  0.00  0.00    +0.086 C 
ENDBRANCH  12  14
ENDBRANCH   5  12
ENDBRANCH  13   8
BRANCH  16  19
ATOM     19  C   UNL     1      18.222   6.776  21.205  0.00  0.00    +0.326 C 
BRANCH  19   4
ATOM      4  O   UNL     1      19.438   6.554  20.485  0.00  0.00    -0.483 OA
BRANCH   4  21
ATOM      1  F   UNL     1      23.081   3.160  22.811  0.00  0.00    -0.205 F 
ATOM     21  C   UNL     1      20.344   5.711  21.063  0.00  0.00    +0.121 A 
ATOM     22  C   UNL     1      20.971   6.072  22.256  0.00  0.00    +0.048 A 
ATOM     23  C   UNL     1      20.641   4.488  20.462  0.00  0.00    +0.048 A 
ATOM     24  C   UNL     1      21.896   5.210  22.846  0.00  0.00    +0.042 A 
ATOM     25  C   UNL     1      21.565   3.626  21.053  0.00  0.00    +0.042 A 
ATOM     26  C   UNL     1      22.193   3.988  22.245  0.00  0.00    +0.124 A 
ENDBRANCH   4  21
ENDBRANCH  19   4
ENDBRANCH  16  19
TORSDOF 6
ENDMDL
MODEL 7
REMARK VINA RESULT:      -6.4     15.762     18.569
REMARK  Name = 51137597
REMARK  7 active torsions:
REMARK  status: ('A' for Active; 'I' for Inactive)
REMARK    1  A    between atoms: O_4  and  C_19
REMARK    2  A    between atoms: O_4  and  C_21
REMARK    3  A    between atoms: N_5  and  C_12
REMARK    4  A    between atoms: C_8  and  C_13
REMARK    5  A    between atoms: C_12  and  C_14
REMARK    6  A    between atoms: C_16  and  C_19
REMARK    7  A    between atoms: C_17  and  C_20
REMARK                            x       y       z     vdW  Elec       q    Type
REMARK                         _______ _______ _______ _____ _____    ______ ____
ROOT
ATOM      2  O   UNL     1      -9.944  -8.873  15.993  0.00  0.00    -0.421 OA
ATOM      6  N   UNL     1     -10.901  -8.919  18.014  0.00  0.00    -0.112 NA
ATOM      7  N   UNL     1      -9.760  -9.696  18.065  0.00  0.00    -0.109 NA
ATOM     13  C   UNL     1     -10.969  -8.458  16.787  0.00  0.00    +0.222 A 
ATOM     16  C   UNL     1      -9.234  -9.641  16.863  0.00  0.00    +0.254 A 
ENDROOT
BRANCH  13   8
ATOM      5  N   UNL     1     -12.710  -6.692  14.090  0.00  0.00    -0.294 NA
ATOM      8  C   UNL     1     -12.001  -7.555  16.152  0.00  0.00    +0.092 C 
ATOM      9  C   UNL     1     -11.586  -6.078  16.042  0.00  0.00    +0.029 C 
ATOM     10  C   UNL     1     -12.354  -7.967  14.717  0.00  0.00    +0.097 C 
ATOM     11  C   UNL     1     -11.699  -5.744  14.560  0.00  0.00    +0.085 C 
BRANCH   5  12
ATOM     12  C   UNL     1     -12.755  -6.780  12.638  0.00  0.00    +0.158 C 
BRANCH  12  14
ATOM      3  O   UNL     1     -11.870  -5.148  11.064  0.00  0.00    -0.464 OA
ATOM     14  C   UNL     1     -12.820  -5.420  11.995  0.00  0.00    +0.119 A 
ATOM     15  C   UNL     1     -13.666  -4.346  12.150  0.00  0.00    +0.046 A 
ATOM     17  C   UNL     1     -12.112  -3.887  10.618  0.00  0.00    +0.102 A 
ATOM     18  C   UNL     1     -13.205  -3.350  11.257  0.00  0.00    +0.044 A 
ATOM     20  C   UNL     1     -11.194  -3.373   9.590  0.00  0.00    +0.086 C 
ENDBRANCH  12  14
ENDBRANCH   5  12
ENDBRANCH  13   8
BRANCH  16  19
ATOM     19  C   UNL     1      -8.015 -10.276  16.346  0.00  0.00    +0.326 C 
BRANCH  19   4
ATOM      4  O   UNL     1      -6.856  -9.588  16.824  0.00  0.00    -0.483 OA
BRANCH   4  21
ATOM      1  F   UNL     1      -3.354 -12.518  19.882  0.00  0.00    -0.205 F 
ATOM     21  C   UNL     1      -5.985 -10.316  17.584  0.00  0.00    +0.121 A 
ATOM     22  C   UNL     1      -6.291 -10.601  18.915  0.00  0.00    +0.048 A 
ATOM     23  C   UNL     1      -4.791 -10.775  17.030  0.00  0.00    +0.048 A 
ATOM     24  C   UNL     1      -5.402 -11.345  19.691  0.00  0.00    +0.042 A 
ATOM     25  C   UNL     1      -3.902 -11.520  17.806  0.00  0.00    +0.042 A 
ATOM     26  C   UNL     1      -4.208 -11.804  19.137  0.00  0.00    +0.124 A 
ENDBRANCH   4  21
ENDBRANCH  19   4
ENDBRANCH  16  19
TORSDOF 6
ENDMDL
MODEL 8
REMARK VINA RESULT:      -6.4     17.746     19.984
REMARK  Name = 51137597
REMARK  7 active torsions:
REMARK  status: ('A' for Active; 'I' for Inactive)
REMARK    1  A    between atoms: O_4  and  C_19
REMARK    2  A    between atoms: O_4  and  C_21
REMARK    3  A    between atoms: N_5  and  C_12
REMARK    4  A    between atoms: C_8  and  C_13
REMARK    5  A    between atoms: C_12  and  C_14
REMARK    6  A    between atoms: C_16  and  C_19
REMARK    7  A    between atoms: C_17  and  C_20
REMARK                            x       y       z     vdW  Elec       q    Type
REMARK                         _______ _______ _______ _____ _____    ______ ____
ROOT
ATOM      2  O   UNL     1      -7.607  -9.206  17.016  0.00  0.00    -0.421 OA
ATOM      6  N   UNL     1      -6.983 -11.085  18.056  0.00  0.00    -0.112 NA
ATOM      7  N   UNL     1      -8.295 -10.820  18.403  0.00  0.00    -0.109 NA
ATOM     13  C   UNL     1      -6.624 -10.118  17.245  0.00  0.00    +0.222 A 
ATOM     16  C   UNL     1      -8.617  -9.714  17.773  0.00  0.00    +0.254 A 
ENDROOT
BRANCH  13   8
ATOM      5  N   UNL     1      -3.913 -10.716  14.854  0.00  0.00    -0.294 NA
ATOM      8  C   UNL     1      -5.302  -9.884  16.550  0.00  0.00    +0.092 C 
ATOM      9  C   UNL     1      -4.104 -10.616  17.179  0.00  0.00    +0.029 C 
ATOM     10  C   UNL     1      -5.309 -10.338  15.085  0.00  0.00    +0.097 C 
ATOM     11  C   UNL     1      -3.519 -11.458  16.052  0.00  0.00    +0.085 C 
BRANCH   5  12
ATOM     12  C   UNL     1      -3.742 -11.497  13.638  0.00  0.00    +0.158 C 
BRANCH  12  14
ATOM      3  O   UNL     1      -3.947 -10.223  11.574  0.00  0.00    -0.464 OA
ATOM     14  C   UNL     1      -3.109 -10.688  12.537  0.00  0.00    +0.119 A 
ATOM     15  C   UNL     1      -1.815 -10.298  12.280  0.00  0.00    +0.046 A 
ATOM     17  C   UNL     1      -3.179  -9.529  10.692  0.00  0.00    +0.102 A 
ATOM     18  C   UNL     1      -1.860  -9.547  11.081  0.00  0.00    +0.044 A 
ATOM     20  C   UNL     1      -3.883  -8.928   9.550  0.00  0.00    +0.086 C 
ENDBRANCH  12  14
ENDBRANCH   5  12
ENDBRANCH  13   8
BRANCH  16  19
ATOM     19  C   UNL     1      -9.885  -8.974  17.773  0.00  0.00    +0.326 C 
BRANCH  19   4
ATOM      4  O   UNL     1      -9.707  -7.685  17.178  0.00  0.00    -0.483 OA
BRANCH   4  21
ATOM      1  F   UNL     1     -13.139  -6.375  13.091  0.00  0.00    -0.205 F 
ATOM     21  C   UNL     1     -10.560  -7.359  16.162  0.00  0.00    +0.121 A 
ATOM     22  C   UNL     1     -10.777  -8.259  15.118  0.00  0.00    +0.048 A 
ATOM     23  C   UNL     1     -11.216  -6.128  16.169  0.00  0.00    +0.048 A 
ATOM     24  C   UNL     1     -11.648  -7.926  14.080  0.00  0.00    +0.042 A 
ATOM     25  C   UNL     1     -12.087  -5.796  15.132  0.00  0.00    +0.042 A 
ATOM     26  C   UNL     1     -12.303  -6.695  14.087  0.00  0.00    +0.124 A 
ENDBRANCH   4  21
ENDBRANCH  19   4
ENDBRANCH  16  19
TORSDOF 6
ENDMDL
MODEL 9
REMARK VINA RESULT:      -6.3     19.411     22.512
REMARK  Name = 51137597
REMARK  7 active torsions:
REMARK  status: ('A' for Active; 'I' for Inactive)
REMARK    1  A    between atoms: O_4  and  C_19
REMARK    2  A    between atoms: O_4  and  C_21
REMARK    3  A    between atoms: N_5  and  C_12
REMARK    4  A    between atoms: C_8  and  C_13
REMARK    5  A    between atoms: C_12  and  C_14
REMARK    6  A    between atoms: C_16  and  C_19
REMARK    7  A    between atoms: C_17  and  C_20
REMARK                            x       y       z     vdW  Elec       q    Type
REMARK                         _______ _______ _______ _____ _____    ______ ____
ROOT
ATOM      2  O   UNL     1      -3.888 -10.401  13.122  0.00  0.00    -0.421 OA
ATOM      6  N   UNL     1      -2.587 -11.146  11.462  0.00  0.00    -0.112 NA
ATOM      7  N   UNL     1      -2.339 -11.921  12.579  0.00  0.00    -0.109 NA
ATOM     13  C   UNL     1      -3.497 -10.273  11.825  0.00  0.00    +0.222 A 
ATOM     16  C   UNL     1      -3.120 -11.451  13.524  0.00  0.00    +0.254 A 
ENDROOT
BRANCH  13   8
ATOM      5  N   UNL     1      -6.011  -8.704   9.670  0.00  0.00    -0.294 NA
ATOM      8  C   UNL     1      -4.153  -9.173  11.021  0.00  0.00    +0.092 C 
ATOM      9  C   UNL     1      -3.713  -9.099   9.549  0.00  0.00    +0.029 C 
ATOM     10  C   UNL     1      -5.680  -9.304  10.964  0.00  0.00    +0.097 C 
ATOM     11  C   UNL     1      -5.001  -9.219   8.745  0.00  0.00    +0.085 C 
BRANCH   5  12
ATOM     12  C   UNL     1      -7.366  -9.017   9.242  0.00  0.00    +0.158 C 
BRANCH  12  14
ATOM      3  O   UNL     1      -9.405  -7.689   9.304  0.00  0.00    -0.464 OA
ATOM     14  C   UNL     1      -8.129  -7.780   8.848  0.00  0.00    +0.119 A 
ATOM     15  C   UNL     1      -7.806  -6.674   8.095  0.00  0.00    +0.046 A 
ATOM     17  C   UNL     1      -9.902  -6.513   8.839  0.00  0.00    +0.102 A 
ATOM     18  C   UNL     1      -8.957  -5.852   8.089  0.00  0.00    +0.044 A 
ATOM     20  C   UNL     1     -11.289  -6.198   9.213  0.00  0.00    +0.086 C 
ENDBRANCH  12  14
ENDBRANCH   5  12
ENDBRANCH  13   8
BRANCH  16  19
ATOM     19  C   UNL     1      -3.276 -11.893  14.915  0.00  0.00    +0.326 C 
BRANCH  19   4
ATOM      4  O   UNL     1      -3.270 -10.768  15.798  0.00  0.00    -0.483 OA
BRANCH   4  21
ATOM      1  F   UNL     1      -7.211 -10.632  19.625  0.00  0.00    -0.205 F 
ATOM     21  C   UNL     1      -4.250 -10.734  16.749  0.00  0.00    +0.121 A 
ATOM     22  C   UNL     1      -4.077 -11.418  17.953  0.00  0.00    +0.048 A 
ATOM     23  C   UNL     1      -5.423 -10.016  16.517  0.00  0.00    +0.048 A 
ATOM     24  C   UNL     1      -5.078 -11.383  18.924  0.00  0.00    +0.042 A 
ATOM     25  C   UNL     1      -6.423  -9.981  17.489  0.00  0.00    +0.042 A 
ATOM     26  C   UNL     1      -6.250 -10.666  18.693  0.00  0.00    +0.124 A 
ENDBRANCH   4  21
ENDBRANCH  19   4
ENDBRANCH  16  19
TORSDOF 6
ENDMDL
MODEL 10
REMARK VINA RESULT:      -6.3     30.089     33.358
REMARK  Name = 51137597
REMARK  7 active torsions:
REMARK  status: ('A' for Active; 'I' for Inactive)
REMARK    1  A    between atoms: O_4  and  C_19
REMARK    2  A    between atoms: O_4  and  C_21
REMARK    3  A    between atoms: N_5  and  C_12
REMARK    4  A    between atoms: C_8  and  C_13
REMARK    5  A    between atoms: C_12  and  C_14
REMARK    6  A    between atoms: C_16  and  C_19
REMARK    7  A    between atoms: C_17  and  C_20
REMARK                            x       y       z     vdW  Elec       q    Type
REMARK                         _______ _______ _______ _____ _____    ______ ____
ROOT
ATOM      2  O   UNL     1      16.736   7.260  19.454  0.00  0.00    -0.421 OA
ATOM      6  N   UNL     1      16.462   6.325  21.468  0.00  0.00    -0.112 NA
ATOM      7  N   UNL     1      15.234   6.342  20.835  0.00  0.00    -0.109 NA
ATOM     13  C   UNL     1      17.309   6.870  20.626  0.00  0.00    +0.222 A 
ATOM     16  C   UNL     1      15.442   6.896  19.663  0.00  0.00    +0.254 A 
ENDROOT
BRANCH  13   8
ATOM      5  N   UNL     1      20.727   6.292  21.812  0.00  0.00    -0.294 NA
ATOM      8  C   UNL     1      18.793   7.117  20.775  0.00  0.00    +0.092 C 
ATOM      9  C   UNL     1      19.180   8.036  21.946  0.00  0.00    +0.029 C 
ATOM     10  C   UNL     1      19.592   5.829  21.010  0.00  0.00    +0.097 C 
ATOM     11  C   UNL     1      20.148   7.215  22.789  0.00  0.00    +0.085 C 
BRANCH   5  12
ATOM     12  C   UNL     1      21.445   5.195  22.444  0.00  0.00    +0.158 C 
BRANCH  12  14
ATOM      3  O   UNL     1      22.885   3.359  21.753  0.00  0.00    -0.464 OA
ATOM     14  C   UNL     1      22.538   4.657  21.559  0.00  0.00    +0.119 A 
ATOM     15  C   UNL     1      23.295   5.215  20.554  0.00  0.00    +0.046 A 
ATOM     17  C   UNL     1      23.874   3.083  20.863  0.00  0.00    +0.102 A 
ATOM     18  C   UNL     1      24.163   4.192  20.103  0.00  0.00    +0.044 A 
ATOM     20  C   UNL     1      24.413   1.715  20.892  0.00  0.00    +0.086 C 
ENDBRANCH  12  14
ENDBRANCH   5  12
ENDBRANCH  13   8
BRANCH  16  19
ATOM     19  C   UNL     1      14.493   7.166  18.575  0.00  0.00    +0.326 C 
BRANCH  19   4
ATOM      4  O   UNL     1      14.038   8.521  18.639  0.00  0.00    -0.483 OA
BRANCH   4  21
ATOM      1  F   UNL     1      10.150   9.632  22.360  0.00  0.00    -0.205 F 
ATOM     21  C   UNL     1      13.071   8.797  19.564  0.00  0.00    +0.121 A 
ATOM     22  C   UNL     1      13.264   9.824  20.489  0.00  0.00    +0.048 A 
ATOM     23  C   UNL     1      11.892   8.053  19.583  0.00  0.00    +0.048 A 
ATOM     24  C   UNL     1      12.277  10.105  21.433  0.00  0.00    +0.042 A 
ATOM     25  C   UNL     1      10.905   8.336  20.528  0.00  0.00    +0.042 A 
ATOM     26  C   UNL     1      11.098   9.362  21.453  0.00  0.00    +0.124 A 
ENDBRANCH   4  21
ENDBRANCH  19   4
ENDBRANCH  16  19
TORSDOF 6
ENDMDL
