MODEL 1
REMARK VINA RESULT:      -7.0      0.000      0.000
REMARK  Name = 11912185
REMARK  6 active torsions:
REMARK  status: ('A' for Active; 'I' for Inactive)
REMARK    1  A    between atoms: O_4  and  C_19
REMARK    2  A    between atoms: O_4  and  C_26
REMARK    3  A    between atoms: N_7  and  C_13
REMARK    4  A    between atoms: N_8  and  C_14
REMARK    5  A    between atoms: C_18  and  C_19
REMARK    6  A    between atoms: C_20  and  C_23
REMARK                            x       y       z     vdW  Elec       q    Type
REMARK                         _______ _______ _______ _____ _____    ______ ____
ROOT
ATOM      7  N   UNL     1      11.607  10.559  23.049  0.00  0.00    -0.306 N 
ATOM      9  N   UNL     1      12.863   8.920  21.935  0.00  0.00    -0.214 NA
ATOM     10  N   UNL     1      10.571   8.513  22.557  0.00  0.00    -0.223 NA
ATOM     17  C   UNL     1      11.682   9.292  22.497  0.00  0.00    +0.216 A 
ATOM     20  C   UNL     1      12.901   7.679  21.407  0.00  0.00    +0.076 A 
ATOM     21  C   UNL     1      10.679   7.284  22.010  0.00  0.00    +0.116 A 
ATOM     22  C   UNL     1      11.830   6.808  21.415  0.00  0.00    +0.048 A 
ATOM     31  H   UNL     1      10.740  10.807  23.511  0.00  0.00    +0.149 HD
ENDROOT
BRANCH  20  23
ATOM      5  O   UNL     1      17.670   6.590  21.635  0.00  0.00    -0.453 OA
ATOM      6  O   UNL     1      17.812   6.237  19.256  0.00  0.00    -0.453 OA
ATOM     23  C   UNL     1      14.163   7.302  20.815  0.00  0.00    +0.004 A 
ATOM     24  C   UNL     1      15.293   7.145  21.623  0.00  0.00    +0.059 A 
ATOM     25  C   UNL     1      14.248   7.095  19.424  0.00  0.00    +0.014 A 
ATOM     27  C   UNL     1      16.476   6.786  21.012  0.00  0.00    +0.167 A 
ATOM     28  C   UNL     1      16.557   6.583  19.653  0.00  0.00    +0.166 A 
ATOM     29  C   UNL     1      15.460   6.730  18.831  0.00  0.00    +0.050 A 
ATOM     30  C   UNL     1      18.511   6.243  20.517  0.00  0.00    +0.466 C 
ENDBRANCH  20  23
BRANCH   7  13
ATOM      1  O   UNL     1      11.930  13.390  24.259  0.00  0.00    -0.370 OA
ATOM      2  O   UNL     1      14.719  11.990  24.314  0.00  0.00    -0.370 OA
ATOM     11  C   UNL     1      13.370  11.502  24.417  0.00  0.00    +0.171 C 
ATOM     12  C   UNL     1      12.580  12.527  25.207  0.00  0.00    +0.171 C 
ATOM     13  C   UNL     1      12.711  11.494  23.058  0.00  0.00    +0.130 C 
ATOM     14  C   UNL     1      13.633  13.291  25.976  0.00  0.00    +0.130 C 
ATOM     15  C   UNL     1      12.196  12.916  22.930  0.00  0.00    +0.185 C 
ATOM     16  C   UNL     1      14.831  13.221  25.046  0.00  0.00    +0.185 C 
BRANCH  14   8
ATOM      3  O   UNL     1      14.859  14.499  28.308  0.00  0.00    -0.273 OA
ATOM      8  N   UNL     1      13.917  12.658  27.242  0.00  0.00    -0.306 N 
ATOM     18  C   UNL     1      14.510  13.322  28.308  0.00  0.00    +0.239 C 
ATOM     32  H   UNL     1      13.620  11.694  27.370  0.00  0.00    +0.149 HD
BRANCH  18  19
ATOM     19  C   UNL     1      14.686  12.414  29.506  0.00  0.00    +0.255 C 
BRANCH  19   4
ATOM      4  O   UNL     1      15.081  11.121  29.097  0.00  0.00    -0.374 OA
ATOM     26  C   UNL     1      15.145  10.213  30.193  0.00  0.00    +0.194 C 
ENDBRANCH  19   4
ENDBRANCH  18  19
ENDBRANCH  14   8
ENDBRANCH   7  13
TORSDOF 5
ENDMDL
MODEL 2
REMARK VINA RESULT:      -7.0     27.928     31.317
REMARK  Name = 11912185
REMARK  6 active torsions:
REMARK  status: ('A' for Active; 'I' for Inactive)
REMARK    1  A    between atoms: O_4  and  C_19
REMARK    2  A    between atoms: O_4  and  C_26
REMARK    3  A    between atoms: N_7  and  C_13
REMARK    4  A    between atoms: N_8  and  C_14
REMARK    5  A    between atoms: C_18  and  C_19
REMARK    6  A    between atoms: C_20  and  C_23
REMARK                            x       y       z     vdW  Elec       q    Type
REMARK                         _______ _______ _______ _____ _____    ______ ____
ROOT
ATOM      7  N   UNL     1      -3.657 -10.395  12.486  0.00  0.00    -0.306 N 
ATOM      9  N   UNL     1      -4.076 -10.673  14.778  0.00  0.00    -0.214 NA
ATOM     10  N   UNL     1      -1.829 -10.382  13.957  0.00  0.00    -0.223 NA
ATOM     17  C   UNL     1      -3.172 -10.486  13.779  0.00  0.00    +0.216 A 
ATOM     20  C   UNL     1      -3.569 -10.759  16.026  0.00  0.00    +0.076 A 
ATOM     21  C   UNL     1      -1.391 -10.477  15.230  0.00  0.00    +0.116 A 
ATOM     22  C   UNL     1      -2.222 -10.666  16.315  0.00  0.00    +0.048 A 
ATOM     31  H   UNL     1      -2.972 -10.308  11.745  0.00  0.00    +0.149 HD
ENDROOT
BRANCH  20  23
ATOM      5  O   UNL     1      -8.094 -10.481  17.878  0.00  0.00    -0.453 OA
ATOM      6  O   UNL     1      -7.413 -11.468  19.969  0.00  0.00    -0.453 OA
ATOM     23  C   UNL     1      -4.544 -10.958  17.072  0.00  0.00    +0.004 A 
ATOM     24  C   UNL     1      -5.873 -10.578  16.868  0.00  0.00    +0.059 A 
ATOM     25  C   UNL     1      -4.148 -11.534  18.295  0.00  0.00    +0.014 A 
ATOM     27  C   UNL     1      -6.768 -10.787  17.898  0.00  0.00    +0.167 A 
ATOM     28  C   UNL     1      -6.379 -11.352  19.091  0.00  0.00    +0.166 A 
ATOM     29  C   UNL     1      -5.075 -11.736  19.321  0.00  0.00    +0.050 A 
ATOM     30  C   UNL     1      -8.496 -10.915  19.193  0.00  0.00    +0.466 C 
ENDBRANCH  20  23
BRANCH   7  13
ATOM      1  O   UNL     1      -5.495  -8.650  10.709  0.00  0.00    -0.370 OA
ATOM      2  O   UNL     1      -6.526 -11.593  10.572  0.00  0.00    -0.370 OA
ATOM     11  C   UNL     1      -5.221 -11.014  10.743  0.00  0.00    +0.171 C 
ATOM     12  C   UNL     1      -5.163  -9.773   9.874  0.00  0.00    +0.171 C 
ATOM     13  C   UNL     1      -5.061 -10.489  12.150  0.00  0.00    +0.130 C 
ATOM     14  C   UNL     1      -6.242  -9.996   8.840  0.00  0.00    +0.130 C 
ATOM     15  C   UNL     1      -5.673  -9.103  12.060  0.00  0.00    +0.185 C 
ATOM     16  C   UNL     1      -7.258 -10.826   9.603  0.00  0.00    +0.185 C 
BRANCH  14   8
ATOM      3  O   UNL     1      -6.505  -9.274   6.045  0.00  0.00    -0.273 OA
ATOM      8  N   UNL     1      -5.730 -10.716   7.699  0.00  0.00    -0.306 N 
ATOM     18  C   UNL     1      -5.906 -10.290   6.389  0.00  0.00    +0.239 C 
ATOM     32  H   UNL     1      -5.171 -11.548   7.871  0.00  0.00    +0.149 HD
BRANCH  18  19
ATOM     19  C   UNL     1      -5.264 -11.238   5.400  0.00  0.00    +0.255 C 
BRANCH  19   4
ATOM      4  O   UNL     1      -4.261 -12.009   6.027  0.00  0.00    -0.374 OA
ATOM     26  C   UNL     1      -3.302 -12.495   5.093  0.00  0.00    +0.194 C 
ENDBRANCH  19   4
ENDBRANCH  18  19
ENDBRANCH  14   8
ENDBRANCH   7  13
TORSDOF 5
ENDMDL
MODEL 3
REMARK VINA RESULT:      -7.0      2.866      3.437
REMARK  Name = 11912185
REMARK  6 active torsions:
REMARK  status: ('A' for Active; 'I' for Inactive)
REMARK    1  A    between atoms: O_4  and  C_19
REMARK    2  A    between atoms: O_4  and  C_26
REMARK    3  A    between atoms: N_7  and  C_13
REMARK    4  A    between atoms: N_8  and  C_14
REMARK    5  A    between atoms: C_18  and  C_19
REMARK    6  A    between atoms: C_20  and  C_23
REMARK                            x       y       z     vdW  Elec       q    Type
REMARK                         _______ _______ _______ _____ _____    ______ ____
ROOT
ATOM      7  N   UNL     1      11.628   9.544  23.013  0.00  0.00    -0.306 N 
ATOM      9  N   UNL     1      12.048   9.173  20.735  0.00  0.00    -0.214 NA
ATOM     10  N   UNL     1      11.532   7.341  22.212  0.00  0.00    -0.223 NA
ATOM     17  C   UNL     1      11.739   8.659  21.955  0.00  0.00    +0.216 A 
ATOM     20  C   UNL     1      12.149   8.282  19.726  0.00  0.00    +0.076 A 
ATOM     21  C   UNL     1      11.649   6.506  21.159  0.00  0.00    +0.116 A 
ATOM     22  C   UNL     1      11.958   6.924  19.880  0.00  0.00    +0.048 A 
ATOM     31  H   UNL     1      11.449   9.145  23.927  0.00  0.00    +0.149 HD
ENDROOT
BRANCH  20  23
ATOM      5  O   UNL     1      15.032  10.821  16.688  0.00  0.00    -0.453 OA
ATOM      6  O   UNL     1      13.529  10.509  14.831  0.00  0.00    -0.453 OA
ATOM     23  C   UNL     1      12.478   8.847  18.439  0.00  0.00    +0.004 A 
ATOM     24  C   UNL     1      13.663   9.571  18.278  0.00  0.00    +0.059 A 
ATOM     25  C   UNL     1      11.601   8.667  17.352  0.00  0.00    +0.014 A 
ATOM     27  C   UNL     1      13.934  10.093  17.029  0.00  0.00    +0.167 A 
ATOM     28  C   UNL     1      13.076   9.914  15.968  0.00  0.00    +0.166 A 
ATOM     29  C   UNL     1      11.900   9.205  16.097  0.00  0.00    +0.050 A 
ATOM     30  C   UNL     1      14.768  11.081  15.295  0.00  0.00    +0.466 C 
ENDBRANCH  20  23
BRANCH   7  13
ATOM      1  O   UNL     1      10.559  11.947  24.645  0.00  0.00    -0.370 OA
ATOM      2  O   UNL     1      13.380  12.703  23.545  0.00  0.00    -0.370 OA
ATOM     11  C   UNL     1      12.781  11.459  23.947  0.00  0.00    +0.171 C 
ATOM     12  C   UNL     1      11.894  11.752  25.141  0.00  0.00    +0.171 C 
ATOM     13  C   UNL     1      11.823  10.971  22.885  0.00  0.00    +0.130 C 
ATOM     14  C   UNL     1      12.441  13.047  25.697  0.00  0.00    +0.130 C 
ATOM     15  C   UNL     1      10.543  11.710  23.229  0.00  0.00    +0.185 C 
ATOM     16  C   UNL     1      12.972  13.737  24.454  0.00  0.00    +0.185 C 
BRANCH  14   8
ATOM      3  O   UNL     1      13.276  14.763  27.879  0.00  0.00    -0.273 OA
ATOM      8  N   UNL     1      13.497  12.800  26.649  0.00  0.00    -0.306 N 
ATOM     18  C   UNL     1      13.827  13.686  27.666  0.00  0.00    +0.239 C 
ATOM     32  H   UNL     1      13.987  11.910  26.599  0.00  0.00    +0.149 HD
BRANCH  18  19
ATOM     19  C   UNL     1      14.970  13.170  28.512  0.00  0.00    +0.255 C 
BRANCH  19   4
ATOM      4  O   UNL     1      14.668  11.892  29.032  0.00  0.00    -0.374 OA
ATOM     26  C   UNL     1      15.814  11.047  29.066  0.00  0.00    +0.194 C 
ENDBRANCH  19   4
ENDBRANCH  18  19
ENDBRANCH  14   8
ENDBRANCH   7  13
TORSDOF 5
ENDMDL
MODEL 4
REMARK VINA RESULT:      -6.5     27.935     30.945
REMARK  Name = 11912185
REMARK  6 active torsions:
REMARK  status: ('A' for Active; 'I' for Inactive)
REMARK    1  A    between atoms: O_4  and  C_19
REMARK    2  A    between atoms: O_4  and  C_26
REMARK    3  A    between atoms: N_7  and  C_13
REMARK    4  A    between atoms: N_8  and  C_14
REMARK    5  A    between atoms: C_18  and  C_19
REMARK    6  A    between atoms: C_20  and  C_23
REMARK                            x       y       z     vdW  Elec       q    Type
REMARK                         _______ _______ _______ _____ _____    ______ ____
ROOT
ATOM      7  N   UNL     1      -8.282  -9.482  18.217  0.00  0.00    -0.306 N 
ATOM      9  N   UNL     1      -6.203 -10.109  17.328  0.00  0.00    -0.214 NA
ATOM     10  N   UNL     1      -6.845 -10.766  19.556  0.00  0.00    -0.223 NA
ATOM     17  C   UNL     1      -7.074 -10.139  18.372  0.00  0.00    +0.216 A 
ATOM     20  C   UNL     1      -5.035 -10.759  17.513  0.00  0.00    +0.076 A 
ATOM     21  C   UNL     1      -5.658 -11.396  19.673  0.00  0.00    +0.116 A 
ATOM     22  C   UNL     1      -4.704 -11.426  18.675  0.00  0.00    +0.048 A 
ATOM     31  H   UNL     1      -8.901  -9.467  19.019  0.00  0.00    +0.149 HD
ENDROOT
BRANCH  20  23
ATOM      5  O   UNL     1      -4.013 -10.447  12.734  0.00  0.00    -0.453 OA
ATOM      6  O   UNL     1      -1.640 -10.582  13.124  0.00  0.00    -0.453 OA
ATOM     23  C   UNL     1      -4.124 -10.715  16.394  0.00  0.00    +0.004 A 
ATOM     24  C   UNL     1      -4.623 -10.595  15.094  0.00  0.00    +0.059 A 
ATOM     25  C   UNL     1      -2.736 -10.794  16.619  0.00  0.00    +0.014 A 
ATOM     27  C   UNL     1      -3.713 -10.559  14.056  0.00  0.00    +0.167 A 
ATOM     28  C   UNL     1      -2.357 -10.634  14.279  0.00  0.00    +0.166 A 
ATOM     29  C   UNL     1      -1.836 -10.753  15.551  0.00  0.00    +0.050 A 
ATOM     30  C   UNL     1      -2.696 -10.462  12.150  0.00  0.00    +0.466 C 
ENDBRANCH  20  23
BRANCH   7  13
ATOM      1  O   UNL     1     -10.097 -10.247  15.830  0.00  0.00    -0.370 OA
ATOM      2  O   UNL     1     -10.285  -7.158  16.237  0.00  0.00    -0.370 OA
ATOM     11  C   UNL     1     -10.073  -8.260  17.138  0.00  0.00    +0.171 C 
ATOM     12  C   UNL     1     -10.930  -9.411  16.649  0.00  0.00    +0.171 C 
ATOM     13  C   UNL     1      -8.658  -8.773  17.014  0.00  0.00    +0.130 C 
ATOM     14  C   UNL     1     -11.996  -8.746  15.809  0.00  0.00    +0.130 C 
ATOM     15  C   UNL     1      -8.755  -9.736  15.845  0.00  0.00    +0.185 C 
ATOM     16  C   UNL     1     -11.268  -7.532  15.260  0.00  0.00    +0.185 C 
BRANCH  14   8
ATOM      3  O   UNL     1     -14.719  -8.306  14.918  0.00  0.00    -0.273 OA
ATOM      8  N   UNL     1     -13.128  -8.356  16.615  0.00  0.00    -0.306 N 
ATOM     18  C   UNL     1     -14.402  -8.168  16.096  0.00  0.00    +0.239 C 
ATOM     32  H   UNL     1     -12.990  -8.264  17.618  0.00  0.00    +0.149 HD
BRANCH  18  19
ATOM     19  C   UNL     1     -15.390  -7.763  17.168  0.00  0.00    +0.255 C 
BRANCH  19   4
ATOM      4  O   UNL     1     -16.089  -6.595  16.787  0.00  0.00    -0.374 OA
ATOM     26  C   UNL     1     -17.493  -6.817  16.710  0.00  0.00    +0.194 C 
ENDBRANCH  19   4
ENDBRANCH  18  19
ENDBRANCH  14   8
ENDBRANCH   7  13
TORSDOF 5
ENDMDL
MODEL 5
REMARK VINA RESULT:      -6.3     18.769     22.544
REMARK  Name = 11912185
REMARK  6 active torsions:
REMARK  status: ('A' for Active; 'I' for Inactive)
REMARK    1  A    between atoms: O_4  and  C_19
REMARK    2  A    between atoms: O_4  and  C_26
REMARK    3  A    between atoms: N_7  and  C_13
REMARK    4  A    between atoms: N_8  and  C_14
REMARK    5  A    between atoms: C_18  and  C_19
REMARK    6  A    between atoms: C_20  and  C_23
REMARK                            x       y       z     vdW  Elec       q    Type
REMARK                         _______ _______ _______ _____ _____    ______ ____
ROOT
ATOM      7  N   UNL     1      12.585   5.450   2.836  0.00  0.00    -0.306 N 
ATOM      9  N   UNL     1      12.593   4.669   0.624  0.00  0.00    -0.214 NA
ATOM     10  N   UNL     1      14.648   4.909   1.858  0.00  0.00    -0.223 NA
ATOM     17  C   UNL     1      13.297   4.996   1.740  0.00  0.00    +0.216 A 
ATOM     20  C   UNL     1      13.319   4.230  -0.426  0.00  0.00    +0.076 A 
ATOM     21  C   UNL     1      15.311   4.464   0.770  0.00  0.00    +0.116 A 
ATOM     22  C   UNL     1      14.693   4.105  -0.411  0.00  0.00    +0.048 A 
ATOM     31  H   UNL     1      13.124   5.740   3.644  0.00  0.00    +0.149 HD
ENDROOT
BRANCH  20  23
ATOM      5  O   UNL     1       9.165   4.017  -3.014  0.00  0.00    -0.453 OA
ATOM      6  O   UNL     1      10.261   2.965  -4.884  0.00  0.00    -0.453 OA
ATOM     23  C   UNL     1      12.553   3.889  -1.602  0.00  0.00    +0.004 A 
ATOM     24  C   UNL     1      11.184   4.169  -1.648  0.00  0.00    +0.059 A 
ATOM     25  C   UNL     1      13.190   3.273  -2.697  0.00  0.00    +0.014 A 
ATOM     27  C   UNL     1      10.494   3.823  -2.792  0.00  0.00    +0.167 A 
ATOM     28  C   UNL     1      11.120   3.223  -3.861  0.00  0.00    +0.166 A 
ATOM     29  C   UNL     1      12.468   2.934  -3.844  0.00  0.00    +0.050 A 
ATOM     30  C   UNL     1       9.025   3.472  -4.340  0.00  0.00    +0.466 C 
ENDBRANCH  20  23
BRANCH   7  13
ATOM      1  O   UNL     1      10.442   4.726   4.948  0.00  0.00    -0.370 OA
ATOM      2  O   UNL     1       9.445   7.232   3.378  0.00  0.00    -0.370 OA
ATOM     11  C   UNL     1      10.752   6.751   3.738  0.00  0.00    +0.171 C 
ATOM     12  C   UNL     1      10.641   6.139   5.120  0.00  0.00    +0.171 C 
ATOM     13  C   UNL     1      11.146   5.594   2.851  0.00  0.00    +0.130 C 
ATOM     14  C   UNL     1       9.402   6.776   5.706  0.00  0.00    +0.130 C 
ATOM     15  C   UNL     1      10.508   4.408   3.549  0.00  0.00    +0.185 C 
ATOM     16  C   UNL     1       8.545   7.016   4.476  0.00  0.00    +0.185 C 
BRANCH  14   8
ATOM      3  O   UNL     1       8.537   7.625   8.339  0.00  0.00    -0.273 OA
ATOM      8  N   UNL     1       9.718   8.016   6.373  0.00  0.00    -0.306 N 
ATOM     18  C   UNL     1       9.255   8.337   7.642  0.00  0.00    +0.239 C 
ATOM     32  H   UNL     1      10.352   8.660   5.907  0.00  0.00    +0.149 HD
BRANCH  18  19
ATOM     19  C   UNL     1       9.743   9.697   8.090  0.00  0.00    +0.255 C 
BRANCH  19   4
ATOM      4  O   UNL     1      11.155   9.735   8.120  0.00  0.00    -0.374 OA
ATOM     26  C   UNL     1      11.644  11.010   8.524  0.00  0.00    +0.194 C 
ENDBRANCH  19   4
ENDBRANCH  18  19
ENDBRANCH  14   8
ENDBRANCH   7  13
TORSDOF 5
ENDMDL
MODEL 6
REMARK VINA RESULT:      -6.0     28.725     32.071
REMARK  Name = 11912185
REMARK  6 active torsions:
REMARK  status: ('A' for Active; 'I' for Inactive)
REMARK    1  A    between atoms: O_4  and  C_19
REMARK    2  A    between atoms: O_4  and  C_26
REMARK    3  A    between atoms: N_7  and  C_13
REMARK    4  A    between atoms: N_8  and  C_14
REMARK    5  A    between atoms: C_18  and  C_19
REMARK    6  A    between atoms: C_20  and  C_23
REMARK                            x       y       z     vdW  Elec       q    Type
REMARK                         _______ _______ _______ _____ _____    ______ ____
ROOT
ATOM      7  N   UNL     1      -7.795  -9.287  17.083  0.00  0.00    -0.306 N 
ATOM      9  N   UNL     1      -9.858  -9.658  18.137  0.00  0.00    -0.214 NA
ATOM     10  N   UNL     1      -9.677  -8.145  16.271  0.00  0.00    -0.223 NA
ATOM     17  C   UNL     1      -9.151  -9.021  17.166  0.00  0.00    +0.216 A 
ATOM     20  C   UNL     1     -11.176  -9.376  18.190  0.00  0.00    +0.076 A 
ATOM     21  C   UNL     1     -11.001  -7.909  16.381  0.00  0.00    +0.116 A 
ATOM     22  C   UNL     1     -11.809  -8.502  17.330  0.00  0.00    +0.048 A 
ATOM     31  H   UNL     1      -7.269  -8.768  16.389  0.00  0.00    +0.149 HD
ENDROOT
BRANCH  20  23
ATOM      5  O   UNL     1     -11.831 -13.042  21.370  0.00  0.00    -0.453 OA
ATOM      6  O   UNL     1     -13.900 -12.110  22.181  0.00  0.00    -0.453 OA
ATOM     23  C   UNL     1     -11.909 -10.061  19.228  0.00  0.00    +0.004 A 
ATOM     24  C   UNL     1     -11.417 -11.259  19.755  0.00  0.00    +0.059 A 
ATOM     25  C   UNL     1     -13.119  -9.519  19.704  0.00  0.00    +0.014 A 
ATOM     27  C   UNL     1     -12.154 -11.877  20.745  0.00  0.00    +0.167 A 
ATOM     28  C   UNL     1     -13.334 -11.344  21.209  0.00  0.00    +0.166 A 
ATOM     29  C   UNL     1     -13.845 -10.165  20.708  0.00  0.00    +0.050 A 
ATOM     30  C   UNL     1     -12.942 -13.183  22.279  0.00  0.00    +0.466 C 
ENDBRANCH  20  23
BRANCH   7  13
ATOM      1  O   UNL     1      -6.972 -12.256  16.792  0.00  0.00    -0.370 OA
ATOM      2  O   UNL     1      -4.853 -10.836  18.591  0.00  0.00    -0.370 OA
ATOM     11  C   UNL     1      -5.679 -10.389  17.502  0.00  0.00    +0.171 C 
ATOM     12  C   UNL     1      -5.766 -11.529  16.506  0.00  0.00    +0.171 C 
ATOM     13  C   UNL     1      -7.102 -10.196  17.969  0.00  0.00    +0.130 C 
ATOM     14  C   UNL     1      -4.554 -12.378  16.812  0.00  0.00    +0.130 C 
ATOM     15  C   UNL     1      -7.684 -11.592  17.848  0.00  0.00    +0.185 C 
ATOM     16  C   UNL     1      -4.369 -12.157  18.303  0.00  0.00    +0.185 C 
BRANCH  14   8
ATOM      3  O   UNL     1      -3.723 -13.235  14.171  0.00  0.00    -0.273 OA
ATOM      8  N   UNL     1      -3.401 -11.930  16.070  0.00  0.00    -0.306 N 
ATOM     18  C   UNL     1      -3.082 -12.400  14.803  0.00  0.00    +0.239 C 
ATOM     32  H   UNL     1      -2.826 -11.197  16.478  0.00  0.00    +0.149 HD
BRANCH  18  19
ATOM     19  C   UNL     1      -1.822 -11.756  14.266  0.00  0.00    +0.255 C 
BRANCH  19   4
ATOM      4  O   UNL     1      -1.722 -11.945  12.870  0.00  0.00    -0.374 OA
ATOM     26  C   UNL     1      -1.965 -10.740  12.151  0.00  0.00    +0.194 C 
ENDBRANCH  19   4
ENDBRANCH  18  19
ENDBRANCH  14   8
ENDBRANCH   7  13
TORSDOF 5
ENDMDL
MODEL 7
REMARK VINA RESULT:      -5.9     29.105     33.578
REMARK  Name = 11912185
REMARK  6 active torsions:
REMARK  status: ('A' for Active; 'I' for Inactive)
REMARK    1  A    between atoms: O_4  and  C_19
REMARK    2  A    between atoms: O_4  and  C_26
REMARK    3  A    between atoms: N_7  and  C_13
REMARK    4  A    between atoms: N_8  and  C_14
REMARK    5  A    between atoms: C_18  and  C_19
REMARK    6  A    between atoms: C_20  and  C_23
REMARK                            x       y       z     vdW  Elec       q    Type
REMARK                         _______ _______ _______ _____ _____    ______ ____
ROOT
ATOM      7  N   UNL     1      -5.435 -10.779   6.693  0.00  0.00    -0.306 N 
ATOM      9  N   UNL     1      -4.761 -10.323   8.894  0.00  0.00    -0.214 NA
ATOM     10  N   UNL     1      -6.525  -9.055   7.852  0.00  0.00    -0.223 NA
ATOM     17  C   UNL     1      -5.578 -10.029   7.848  0.00  0.00    +0.216 A 
ATOM     20  C   UNL     1      -4.927  -9.572  10.003  0.00  0.00    +0.076 A 
ATOM     21  C   UNL     1      -6.637  -8.342   8.993  0.00  0.00    +0.116 A 
ATOM     22  C   UNL     1      -5.858  -8.559  10.112  0.00  0.00    +0.048 A 
ATOM     31  H   UNL     1      -6.013 -10.517   5.903  0.00  0.00    +0.149 HD
ENDROOT
BRANCH  20  23
ATOM      5  O   UNL     1      -4.048 -10.829  14.654  0.00  0.00    -0.453 OA
ATOM      6  O   UNL     1      -1.663 -10.842  14.311  0.00  0.00    -0.453 OA
ATOM     23  C   UNL     1      -4.050  -9.899  11.102  0.00  0.00    +0.004 A 
ATOM     24  C   UNL     1      -4.587 -10.205  12.356  0.00  0.00    +0.059 A 
ATOM     25  C   UNL     1      -2.655  -9.907  10.904  0.00  0.00    +0.014 A 
ATOM     27  C   UNL     1      -3.708 -10.509  13.376  0.00  0.00    +0.167 A 
ATOM     28  C   UNL     1      -2.346 -10.518  13.179  0.00  0.00    +0.166 A 
ATOM     29  C   UNL     1      -1.787 -10.221  11.954  0.00  0.00    +0.050 A 
ATOM     30  C   UNL     1      -2.747 -11.038  15.240  0.00  0.00    +0.466 C 
ENDBRANCH  20  23
BRANCH   7  13
ATOM      1  O   UNL     1      -5.632 -13.612   5.463  0.00  0.00    -0.370 OA
ATOM      2  O   UNL     1      -2.717 -12.576   5.046  0.00  0.00    -0.370 OA
ATOM     11  C   UNL     1      -3.995 -11.921   5.115  0.00  0.00    +0.171 C 
ATOM     12  C   UNL     1      -5.003 -12.827   4.437  0.00  0.00    +0.171 C 
ATOM     13  C   UNL     1      -4.469 -11.846   6.547  0.00  0.00    +0.130 C 
ATOM     14  C   UNL     1      -4.162 -13.709   3.542  0.00  0.00    +0.130 C 
ATOM     15  C   UNL     1      -5.140 -13.192   6.746  0.00  0.00    +0.185 C 
ATOM     16  C   UNL     1      -2.856 -13.802   4.311  0.00  0.00    +0.185 C 
BRANCH  14   8
ATOM      3  O   UNL     1      -2.977 -14.926   1.193  0.00  0.00    -0.273 OA
ATOM      8  N   UNL     1      -3.964 -13.101   2.248  0.00  0.00    -0.306 N 
ATOM     18  C   UNL     1      -3.384 -13.767   1.176  0.00  0.00    +0.239 C 
ATOM     32  H   UNL     1      -4.313 -12.157   2.106  0.00  0.00    +0.149 HD
BRANCH  18  19
ATOM     19  C   UNL     1      -3.304 -12.889  -0.053  0.00  0.00    +0.255 C 
BRANCH  19   4
ATOM      4  O   UNL     1      -4.588 -12.428  -0.421  0.00  0.00    -0.374 OA
ATOM     26  C   UNL     1      -5.107 -13.138  -1.541  0.00  0.00    +0.194 C 
ENDBRANCH  19   4
ENDBRANCH  18  19
ENDBRANCH  14   8
ENDBRANCH   7  13
TORSDOF 5
ENDMDL
MODEL 8
REMARK VINA RESULT:      -5.8     28.053     31.483
REMARK  Name = 11912185
REMARK  6 active torsions:
REMARK  status: ('A' for Active; 'I' for Inactive)
REMARK    1  A    between atoms: O_4  and  C_19
REMARK    2  A    between atoms: O_4  and  C_26
REMARK    3  A    between atoms: N_7  and  C_13
REMARK    4  A    between atoms: N_8  and  C_14
REMARK    5  A    between atoms: C_18  and  C_19
REMARK    6  A    between atoms: C_20  and  C_23
REMARK                            x       y       z     vdW  Elec       q    Type
REMARK                         _______ _______ _______ _____ _____    ______ ____
ROOT
ATOM      7  N   UNL     1      -9.678  -9.894  18.370  0.00  0.00    -0.306 N 
ATOM      9  N   UNL     1      -7.505 -10.447  17.681  0.00  0.00    -0.214 NA
ATOM     10  N   UNL     1      -8.445 -11.394  19.687  0.00  0.00    -0.223 NA
ATOM     17  C   UNL     1      -8.508 -10.600  18.586  0.00  0.00    +0.216 A 
ATOM     20  C   UNL     1      -6.378 -11.149  17.923  0.00  0.00    +0.076 A 
ATOM     21  C   UNL     1      -7.290 -12.067  19.868  0.00  0.00    +0.116 A 
ATOM     22  C   UNL     1      -6.212 -11.983  19.010  0.00  0.00    +0.048 A 
ATOM     31  H   UNL     1     -10.399  -9.975  19.078  0.00  0.00    +0.149 HD
ENDROOT
BRANCH  20  23
ATOM      5  O   UNL     1      -1.672 -10.834  16.601  0.00  0.00    -0.453 OA
ATOM      6  O   UNL     1      -2.237 -10.482  14.285  0.00  0.00    -0.453 OA
ATOM     23  C   UNL     1      -5.325 -10.973  16.951  0.00  0.00    +0.004 A 
ATOM     24  C   UNL     1      -3.988 -11.006  17.357  0.00  0.00    +0.059 A 
ATOM     25  C   UNL     1      -5.652 -10.767  15.596  0.00  0.00    +0.014 A 
ATOM     27  C   UNL     1      -3.017 -10.832  16.392  0.00  0.00    +0.167 A 
ATOM     28  C   UNL     1      -3.339 -10.633  15.069  0.00  0.00    +0.166 A 
ATOM     29  C   UNL     1      -4.649 -10.595  14.638  0.00  0.00    +0.050 A 
ATOM     30  C   UNL     1      -1.185 -10.612  15.263  0.00  0.00    +0.466 C 
ENDBRANCH  20  23
BRANCH   7  13
ATOM      1  O   UNL     1     -11.480 -10.104  15.862  0.00  0.00    -0.370 OA
ATOM      2  O   UNL     1     -11.200  -7.085  16.603  0.00  0.00    -0.370 OA
ATOM     11  C   UNL     1     -11.205  -8.294  17.382  0.00  0.00    +0.171 C 
ATOM     12  C   UNL     1     -12.208  -9.235  16.746  0.00  0.00    +0.171 C 
ATOM     13  C   UNL     1      -9.883  -9.012  17.243  0.00  0.00    +0.130 C 
ATOM     14  C   UNL     1     -13.117  -8.323  15.954  0.00  0.00    +0.130 C 
ATOM     15  C   UNL     1     -10.076  -9.819  15.972  0.00  0.00    +0.185 C 
ATOM     16  C   UNL     1     -12.184  -7.192  15.563  0.00  0.00    +0.185 C 
BRANCH  14   8
ATOM      3  O   UNL     1     -15.719  -9.553  16.303  0.00  0.00    -0.273 OA
ATOM      8  N   UNL     1     -14.210  -7.843  16.765  0.00  0.00    -0.306 N 
ATOM     18  C   UNL     1     -15.426  -8.504  16.871  0.00  0.00    +0.239 C 
ATOM     32  H   UNL     1     -14.058  -7.007  17.323  0.00  0.00    +0.149 HD
BRANCH  18  19
ATOM     19  C   UNL     1     -16.383  -7.775  17.789  0.00  0.00    +0.255 C 
BRANCH  19   4
ATOM      4  O   UNL     1     -16.507  -6.421  17.405  0.00  0.00    -0.374 OA
ATOM     26  C   UNL     1     -17.225  -5.658  18.370  0.00  0.00    +0.194 C 
ENDBRANCH  19   4
ENDBRANCH  18  19
ENDBRANCH  14   8
ENDBRANCH   7  13
TORSDOF 5
ENDMDL
MODEL 9
REMARK VINA RESULT:      -5.7     28.962     30.849
REMARK  Name = 11912185
REMARK  6 active torsions:
REMARK  status: ('A' for Active; 'I' for Inactive)
REMARK    1  A    between atoms: O_4  and  C_19
REMARK    2  A    between atoms: O_4  and  C_26
REMARK    3  A    between atoms: N_7  and  C_13
REMARK    4  A    between atoms: N_8  and  C_14
REMARK    5  A    between atoms: C_18  and  C_19
REMARK    6  A    between atoms: C_20  and  C_23
REMARK                            x       y       z     vdW  Elec       q    Type
REMARK                         _______ _______ _______ _____ _____    ______ ____
ROOT
ATOM      7  N   UNL     1      -6.698 -10.050  17.192  0.00  0.00    -0.306 N 
ATOM      9  N   UNL     1      -5.350 -10.191  15.276  0.00  0.00    -0.214 NA
ATOM     10  N   UNL     1      -4.560 -10.994  17.406  0.00  0.00    -0.223 NA
ATOM     17  C   UNL     1      -5.500 -10.423  16.607  0.00  0.00    +0.216 A 
ATOM     20  C   UNL     1      -4.170 -10.566  14.739  0.00  0.00    +0.076 A 
ATOM     21  C   UNL     1      -3.404 -11.344  16.804  0.00  0.00    +0.116 A 
ATOM     22  C   UNL     1      -3.151 -11.153  15.461  0.00  0.00    +0.048 A 
ATOM     31  H   UNL     1      -6.778 -10.180  18.194  0.00  0.00    +0.149 HD
ENDROOT
BRANCH  20  23
ATOM      5  O   UNL     1      -5.909  -9.245  10.355  0.00  0.00    -0.453 OA
ATOM      6  O   UNL     1      -3.768  -9.554   9.295  0.00  0.00    -0.453 OA
ATOM     23  C   UNL     1      -4.031 -10.311  13.325  0.00  0.00    +0.004 A 
ATOM     24  C   UNL     1      -5.136  -9.887  12.580  0.00  0.00    +0.059 A 
ATOM     25  C   UNL     1      -2.780 -10.491  12.702  0.00  0.00    +0.014 A 
ATOM     27  C   UNL     1      -4.954  -9.658  11.232  0.00  0.00    +0.167 A 
ATOM     28  C   UNL     1      -3.731  -9.833  10.627  0.00  0.00    +0.166 A 
ATOM     29  C   UNL     1      -2.623 -10.250  11.335  0.00  0.00    +0.050 A 
ATOM     30  C   UNL     1      -5.151  -9.181   9.131  0.00  0.00    +0.466 C 
ENDBRANCH  20  23
BRANCH   7  13
ATOM      1  O   UNL     1      -9.428 -11.129  16.213  0.00  0.00    -0.370 OA
ATOM      2  O   UNL     1      -9.762  -8.093  16.855  0.00  0.00    -0.370 OA
ATOM     11  C   UNL     1      -8.929  -9.130  17.403  0.00  0.00    +0.171 C 
ATOM     12  C   UNL     1      -9.747 -10.406  17.413  0.00  0.00    +0.171 C 
ATOM     13  C   UNL     1      -7.784  -9.432  16.464  0.00  0.00    +0.130 C 
ATOM     14  C   UNL     1     -11.179  -9.925  17.372  0.00  0.00    +0.130 C 
ATOM     15  C   UNL     1      -8.401 -10.426  15.497  0.00  0.00    +0.185 C 
ATOM     16  C   UNL     1     -11.066  -8.630  16.587  0.00  0.00    +0.185 C 
BRANCH  14   8
ATOM      3  O   UNL     1     -12.395 -11.856  19.159  0.00  0.00    -0.273 OA
ATOM      8  N   UNL     1     -11.688  -9.687  18.701  0.00  0.00    -0.306 N 
ATOM     18  C   UNL     1     -12.257 -10.681  19.487  0.00  0.00    +0.239 C 
ATOM     32  H   UNL     1     -11.577  -8.756  19.095  0.00  0.00    +0.149 HD
BRANCH  18  19
ATOM     19  C   UNL     1     -12.702 -10.147  20.831  0.00  0.00    +0.255 C 
BRANCH  19   4
ATOM      4  O   UNL     1     -13.709  -9.170  20.671  0.00  0.00    -0.374 OA
ATOM     26  C   UNL     1     -15.013  -9.715  20.853  0.00  0.00    +0.194 C 
ENDBRANCH  19   4
ENDBRANCH  18  19
ENDBRANCH  14   8
ENDBRANCH   7  13
TORSDOF 5
ENDMDL
MODEL 10
REMARK VINA RESULT:      -5.7     28.219     31.610
REMARK  Name = 11912185
REMARK  6 active torsions:
REMARK  status: ('A' for Active; 'I' for Inactive)
REMARK    1  A    between atoms: O_4  and  C_19
REMARK    2  A    between atoms: O_4  and  C_26
REMARK    3  A    between atoms: N_7  and  C_13
REMARK    4  A    between atoms: N_8  and  C_14
REMARK    5  A    between atoms: C_18  and  C_19
REMARK    6  A    between atoms: C_20  and  C_23
REMARK                            x       y       z     vdW  Elec       q    Type
REMARK                         _______ _______ _______ _____ _____    ______ ____
ROOT
ATOM      7  N   UNL     1      -4.176 -10.125  11.214  0.00  0.00    -0.306 N 
ATOM      9  N   UNL     1      -4.280 -10.696  13.488  0.00  0.00    -0.214 NA
ATOM     10  N   UNL     1      -2.181 -10.130  12.449  0.00  0.00    -0.223 NA
ATOM     17  C   UNL     1      -3.526 -10.323  12.420  0.00  0.00    +0.216 A 
ATOM     20  C   UNL     1      -3.614 -10.881  14.647  0.00  0.00    +0.076 A 
ATOM     21  C   UNL     1      -1.579 -10.333  13.639  0.00  0.00    +0.116 A 
ATOM     22  C   UNL     1      -2.251 -10.712  14.784  0.00  0.00    +0.048 A 
ATOM     31  H   UNL     1      -3.598  -9.899  10.414  0.00  0.00    +0.149 HD
ENDROOT
BRANCH  20  23
ATOM      5  O   UNL     1      -6.753  -9.964  18.293  0.00  0.00    -0.453 OA
ATOM      6  O   UNL     1      -6.798 -12.274  18.977  0.00  0.00    -0.453 OA
ATOM     23  C   UNL     1      -4.432 -11.277  15.768  0.00  0.00    +0.004 A 
ATOM     24  C   UNL     1      -5.191 -10.322  16.450  0.00  0.00    +0.059 A 
ATOM     25  C   UNL     1      -4.460 -12.627  16.171  0.00  0.00    +0.014 A 
ATOM     27  C   UNL     1      -5.956 -10.748  17.516  0.00  0.00    +0.167 A 
ATOM     28  C   UNL     1      -5.983 -12.068  17.906  0.00  0.00    +0.166 A 
ATOM     29  C   UNL     1      -5.245 -13.033  17.254  0.00  0.00    +0.050 A 
ATOM     30  C   UNL     1      -7.283 -10.937  19.215  0.00  0.00    +0.466 C 
ENDBRANCH  20  23
BRANCH   7  13
ATOM      1  O   UNL     1      -6.454  -8.119  10.611  0.00  0.00    -0.370 OA
ATOM      2  O   UNL     1      -7.210 -10.858   9.319  0.00  0.00    -0.370 OA
ATOM     11  C   UNL     1      -5.956 -10.201   9.572  0.00  0.00    +0.171 C 
ATOM     12  C   UNL     1      -6.169  -8.719   9.336  0.00  0.00    +0.171 C 
ATOM     13  C   UNL     1      -5.602 -10.296  11.038  0.00  0.00    +0.130 C 
ATOM     14  C   UNL     1      -7.386  -8.660   8.443  0.00  0.00    +0.130 C 
ATOM     15  C   UNL     1      -6.349  -9.119  11.637  0.00  0.00    +0.185 C 
ATOM     16  C   UNL     1      -8.169  -9.885   8.877  0.00  0.00    +0.185 C 
BRANCH  14   8
ATOM      3  O   UNL     1      -8.849  -7.609   6.171  0.00  0.00    -0.273 OA
ATOM      8  N   UNL     1      -7.016  -8.742   7.050  0.00  0.00    -0.306 N 
ATOM     18  C   UNL     1      -7.785  -8.206   6.026  0.00  0.00    +0.239 C 
ATOM     32  H   UNL     1      -6.124  -9.171   6.819  0.00  0.00    +0.149 HD
BRANCH  18  19
ATOM     19  C   UNL     1      -7.156  -8.440   4.670  0.00  0.00    +0.255 C 
BRANCH  19   4
ATOM      4  O   UNL     1      -8.149  -8.547   3.671  0.00  0.00    -0.374 OA
ATOM     26  C   UNL     1      -7.823  -7.783   2.514  0.00  0.00    +0.194 C 
ENDBRANCH  19   4
ENDBRANCH  18  19
ENDBRANCH  14   8
ENDBRANCH   7  13
TORSDOF 5
ENDMDL
