REMARK  Name = 40777363
REMARK  6 active torsions:
REMARK  status: ('A' for Active; 'I' for Inactive)
REMARK    1  A    between atoms: N_4  and  C_13
REMARK    2  A    between atoms: C_6  and  C_10
REMARK    3  A    between atoms: C_7  and  C_12
REMARK    4  A    between atoms: C_10  and  C_16
REMARK    5  A    between atoms: C_12  and  C_20
REMARK    6  A    between atoms: C_22  and  C_23
REMARK                            x       y       z     vdW  Elec       q    Type
REMARK                         _______ _______ _______ _____ _____    ______ ____
ROOT
ATOM      3  N   UNL     1      -0.616   1.843   1.516  0.00  0.00    -0.316 NA
ATOM      6  C   UNL     1      -1.422  -0.887   0.738  0.00  0.00    +0.004 C 
ATOM      7  C   UNL     1       0.035  -0.380   0.619  0.00  0.00    +0.012 C 
ATOM      8  C   UNL     1      -2.153  -0.068   1.815  0.00  0.00    +0.019 C 
ATOM      9  C   UNL     1       0.092   1.147   0.441  0.00  0.00    +0.085 C 
ATOM     11  C   UNL     1      -2.018   1.438   1.595  0.00  0.00    +0.081 C 
ATOM     29  H   UNL     1      -0.564   2.849   1.359  0.00  0.00    +0.122 HD
ENDROOT
BRANCH   6  10
ATOM     10  C   UNL     1      -2.199  -0.866  -0.584  0.00  0.00    +0.099 C 
BRANCH  10  16
ATOM      1  O   UNL     1      -3.874  -2.530  -0.055  0.00  0.00    -0.276 OA
ATOM      4  N   UNL     1      -4.545  -0.419  -0.758  0.00  0.00    -0.312 N 
ATOM     16  C   UNL     1      -3.611  -1.389  -0.427  0.00  0.00    +0.214 C 
ATOM     30  H   UNL     1      -4.225   0.516  -0.989  0.00  0.00    +0.149 HD
BRANCH   4  13
ATOM     13  C   UNL     1      -5.973  -0.645  -0.702  0.00  0.00    +0.073 C 
ATOM     14  C   UNL     1      -6.524  -0.335   0.694  0.00  0.00    +0.022 C 
ATOM     15  C   UNL     1      -6.701   0.165  -1.779  0.00  0.00    +0.022 C 
ATOM     17  C   UNL     1      -6.543   1.163   0.997  0.00  0.00    +0.002 C 
ATOM     18  C   UNL     1      -6.720   1.663  -1.472  0.00  0.00    +0.002 C 
ATOM     19  C   UNL     1      -7.284   1.946  -0.083  0.00  0.00    +0.000 C 
ENDBRANCH   4  13
ENDBRANCH  10  16
ENDBRANCH   6  10
BRANCH   7  12
ATOM     12  C   UNL     1       0.825  -1.080  -0.487  0.00  0.00    +0.064 C 
BRANCH  12  20
ATOM      2  O   UNL     1       4.261  -1.537   0.489  0.00  0.00    -0.354 OA
ATOM      5  N   UNL     1       2.928  -1.929   0.461  0.00  0.00    -0.083 NA
ATOM     20  C   UNL     1       2.304  -0.983  -0.248  0.00  0.00    +0.085 A 
ATOM     21  C   UNL     1       3.184   0.021  -0.688  0.00  0.00    +0.076 A 
ATOM     22  C   UNL     1       4.401  -0.375  -0.199  0.00  0.00    +0.167 A 
BRANCH  22  23
ATOM     23  C   UNL     1       5.731   0.156  -0.257  0.00  0.00    +0.020 A 
ATOM     24  C   UNL     1       5.978   1.347  -0.941  0.00  0.00    +0.011 A 
ATOM     25  C   UNL     1       6.779  -0.518   0.370  0.00  0.00    +0.011 A 
ATOM     26  C   UNL     1       7.272   1.863  -0.998  0.00  0.00    +0.001 A 
ATOM     27  C   UNL     1       8.074  -0.001   0.313  0.00  0.00    +0.001 A 
ATOM     28  C   UNL     1       8.320   1.190  -0.370  0.00  0.00    +0.000 A 
ENDBRANCH  22  23
ENDBRANCH  12  20
ENDBRANCH   7  12
TORSDOF 6
