MODEL 1
REMARK VINA RESULT:      -7.0      0.000      0.000
REMARK  Name = 40779509
REMARK  11 active torsions:
REMARK  status: ('A' for Active; 'I' for Inactive)
REMARK    1  A    between atoms: O_5  and  C_30
REMARK    2  A    between atoms: O_5  and  C_37
REMARK    3  A    between atoms: O_6  and  C_32
REMARK    4  A    between atoms: O_6  and  C_38
REMARK    5  A    between atoms: N_8  and  C_22
REMARK    6  A    between atoms: N_9  and  C_19
REMARK    7  A    between atoms: C_12  and  C_18
REMARK    8  A    between atoms: C_13  and  C_19
REMARK    9  A    between atoms: C_21  and  C_24
REMARK   10  A    between atoms: C_23  and  C_25
REMARK   11  A    between atoms: C_35  and  C_36
REMARK                            x       y       z     vdW  Elec       q    Type
REMARK                         _______ _______ _______ _____ _____    ______ ____
ROOT
ATOM      7  N   UNL     1     -11.686  -9.478  17.090  0.00  0.00    -0.297 NA
ATOM     11  C   UNL     1     -10.335  -7.703  15.745  0.00  0.00    +0.002 C 
ATOM     12  C   UNL     1     -10.639  -8.941  14.858  0.00  0.00    +0.055 C 
ATOM     13  C   UNL     1     -10.495  -9.048  17.870  0.00  0.00    +0.074 C 
ATOM     14  C   UNL     1      -9.574  -8.156  17.010  0.00  0.00    +0.024 C 
ATOM     15  C   UNL     1     -11.696  -7.144  16.212  0.00  0.00    +0.019 C 
ATOM     16  C   UNL     1     -11.262 -10.029  15.778  0.00  0.00    +0.094 C 
ATOM     17  C   UNL     1     -12.522  -8.280  16.839  0.00  0.00    +0.085 C 
ENDROOT
BRANCH  12  18
ATOM      8  N   UNL     1      -9.640  -9.663  12.639  0.00  0.00    -0.270 N 
ATOM     10  N   UNL     1      -8.539 -10.164  12.054  0.00  0.00    -0.171 NA
ATOM     18  C   UNL     1      -9.519  -9.494  13.988  0.00  0.00    +0.044 A 
ATOM     20  C   UNL     1      -8.251  -9.914  14.306  0.00  0.00    +0.053 A 
ATOM     21  C   UNL     1      -7.694 -10.315  13.077  0.00  0.00    +0.093 A 
ATOM     22  C   UNL     1     -10.797  -9.365  11.827  0.00  0.00    +0.172 C 
BRANCH  21  24
ATOM     24  C   UNL     1      -6.371 -10.842  12.862  0.00  0.00    +0.006 A 
ATOM     26  C   UNL     1      -5.391 -10.048  12.268  0.00  0.00    +0.059 A 
ATOM     27  C   UNL     1      -6.071 -12.149  13.247  0.00  0.00    +0.014 A 
ATOM     30  C   UNL     1      -4.110 -10.559  12.060  0.00  0.00    +0.162 A 
ATOM     31  C   UNL     1      -4.790 -12.660  13.038  0.00  0.00    +0.050 A 
ATOM     32  C   UNL     1      -3.809 -11.865  12.445  0.00  0.00    +0.162 A 
BRANCH  30   5
ATOM      5  O   UNL     1      -3.161  -9.773  11.479  0.00  0.00    -0.491 OA
ATOM     37  C   UNL     1      -3.344  -9.446  10.103  0.00  0.00    +0.277 C 
ENDBRANCH  30   5
BRANCH  32   6
ATOM      6  O   UNL     1      -2.562 -12.377  12.247  0.00  0.00    -0.491 OA
ATOM     38  C   UNL     1      -2.387 -13.770  12.494  0.00  0.00    +0.277 C 
ENDBRANCH  32   6
ENDBRANCH  21  24
ENDBRANCH  12  18
BRANCH  13  19
ATOM     19  C   UNL     1      -9.738 -10.231  18.478  0.00  0.00    +0.123 C 
BRANCH  19   9
ATOM      4  O   UNL     1      -7.297 -10.769  19.891  0.00  0.00    -0.270 OA
ATOM      9  N   UNL     1      -8.431 -10.347  17.910  0.00  0.00    -0.310 N 
ATOM     23  C   UNL     1      -7.294 -10.610  18.672  0.00  0.00    +0.244 C 
ATOM     39  H   UNL     1      -8.345 -10.141  16.921  0.00  0.00    +0.149 HD
BRANCH  23  25
ATOM     25  C   UNL     1      -6.006 -10.674  17.935  0.00  0.00    +0.037 A 
ATOM     28  C   UNL     1      -4.930 -11.381  18.472  0.00  0.00    +0.013 A 
ATOM     29  C   UNL     1      -5.872 -10.026  16.707  0.00  0.00    +0.013 A 
ATOM     33  C   UNL     1      -3.719 -11.440  17.780  0.00  0.00    +0.013 A 
ATOM     34  C   UNL     1      -4.662 -10.086  16.016  0.00  0.00    +0.013 A 
ATOM     35  C   UNL     1      -3.586 -10.792  16.552  0.00  0.00    +0.055 A 
BRANCH  35  36
ATOM      1  F   UNL     1      -1.209 -10.524  16.574  0.00  0.00    -0.166 F 
ATOM      2  F   UNL     1      -2.258 -10.011  14.741  0.00  0.00    -0.166 F 
ATOM      3  F   UNL     1      -2.010 -12.094  15.310  0.00  0.00    -0.166 F 
ATOM     36  C   UNL     1      -2.293 -10.856  15.812  0.00  0.00    +0.417 C 
ENDBRANCH  35  36
ENDBRANCH  23  25
ENDBRANCH  19   9
ENDBRANCH  13  19
TORSDOF 8
ENDMDL
MODEL 2
REMARK VINA RESULT:      -6.9     26.078     28.305
REMARK  Name = 40779509
REMARK  11 active torsions:
REMARK  status: ('A' for Active; 'I' for Inactive)
REMARK    1  A    between atoms: O_5  and  C_30
REMARK    2  A    between atoms: O_5  and  C_37
REMARK    3  A    between atoms: O_6  and  C_32
REMARK    4  A    between atoms: O_6  and  C_38
REMARK    5  A    between atoms: N_8  and  C_22
REMARK    6  A    between atoms: N_9  and  C_19
REMARK    7  A    between atoms: C_12  and  C_18
REMARK    8  A    between atoms: C_13  and  C_19
REMARK    9  A    between atoms: C_21  and  C_24
REMARK   10  A    between atoms: C_23  and  C_25
REMARK   11  A    between atoms: C_35  and  C_36
REMARK                            x       y       z     vdW  Elec       q    Type
REMARK                         _______ _______ _______ _____ _____    ______ ____
ROOT
ATOM      7  N   UNL     1      18.255  -4.158  31.666  0.00  0.00    -0.297 NA
ATOM     11  C   UNL     1      15.975  -4.813  30.591  0.00  0.00    +0.002 C 
ATOM     12  C   UNL     1      17.119  -5.697  30.021  0.00  0.00    +0.055 C 
ATOM     13  C   UNL     1      17.560  -2.941  31.169  0.00  0.00    +0.074 C 
ATOM     14  C   UNL     1      16.310  -3.326  30.347  0.00  0.00    +0.024 C 
ATOM     15  C   UNL     1      15.963  -5.031  32.119  0.00  0.00    +0.019 C 
ATOM     16  C   UNL     1      18.461  -5.117  30.552  0.00  0.00    +0.094 C 
ATOM     17  C   UNL     1      17.380  -4.802  32.675  0.00  0.00    +0.085 C 
ENDROOT
BRANCH  12  18
ATOM      8  N   UNL     1      16.201  -6.676  27.867  0.00  0.00    -0.270 N 
ATOM     10  N   UNL     1      16.413  -6.783  26.544  0.00  0.00    -0.171 NA
ATOM     18  C   UNL     1      17.153  -5.949  28.521  0.00  0.00    +0.044 A 
ATOM     20  C   UNL     1      18.049  -5.553  27.558  0.00  0.00    +0.053 A 
ATOM     21  C   UNL     1      17.542  -6.095  26.361  0.00  0.00    +0.093 A 
ATOM     22  C   UNL     1      15.042  -7.313  28.450  0.00  0.00    +0.172 C 
BRANCH  21  24
ATOM     24  C   UNL     1      18.119  -5.970  25.048  0.00  0.00    +0.006 A 
ATOM     26  C   UNL     1      19.502  -5.880  24.898  0.00  0.00    +0.059 A 
ATOM     27  C   UNL     1      17.293  -5.936  23.924  0.00  0.00    +0.014 A 
ATOM     30  C   UNL     1      20.061  -5.758  23.626  0.00  0.00    +0.162 A 
ATOM     31  C   UNL     1      17.851  -5.814  22.651  0.00  0.00    +0.050 A 
ATOM     32  C   UNL     1      19.234  -5.725  22.502  0.00  0.00    +0.162 A 
BRANCH  30   5
ATOM      5  O   UNL     1      21.413  -5.672  23.493  0.00  0.00    -0.491 OA
ATOM     37  C   UNL     1      22.150  -5.230  24.632  0.00  0.00    +0.277 C 
ENDBRANCH  30   5
BRANCH  32   6
ATOM      6  O   UNL     1      19.767  -5.606  21.254  0.00  0.00    -0.491 OA
ATOM     38  C   UNL     1      19.847  -6.793  20.468  0.00  0.00    +0.277 C 
ENDBRANCH  32   6
ENDBRANCH  21  24
ENDBRANCH  12  18
BRANCH  13  19
ATOM     19  C   UNL     1      18.493  -2.015  30.386  0.00  0.00    +0.123 C 
BRANCH  19   9
ATOM      4  O   UNL     1      20.346  -2.473  28.241  0.00  0.00    -0.270 OA
ATOM      9  N   UNL     1      18.191  -2.046  28.989  0.00  0.00    -0.310 N 
ATOM     23  C   UNL     1      19.155  -2.276  28.010  0.00  0.00    +0.244 C 
ATOM     39  H   UNL     1      17.242  -1.805  28.723  0.00  0.00    +0.149 HD
BRANCH  23  25
ATOM     25  C   UNL     1      18.685  -2.251  26.601  0.00  0.00    +0.037 A 
ATOM     28  C   UNL     1      19.609  -2.268  25.557  0.00  0.00    +0.013 A 
ATOM     29  C   UNL     1      17.318  -2.211  26.323  0.00  0.00    +0.013 A 
ATOM     33  C   UNL     1      19.166  -2.244  24.233  0.00  0.00    +0.013 A 
ATOM     34  C   UNL     1      16.876  -2.188  25.000  0.00  0.00    +0.013 A 
ATOM     35  C   UNL     1      17.800  -2.204  23.955  0.00  0.00    +0.055 A 
BRANCH  35  36
ATOM      1  F   UNL     1      17.087  -0.921  22.067  0.00  0.00    -0.166 F 
ATOM      2  F   UNL     1      16.161  -2.865  22.366  0.00  0.00    -0.166 F 
ATOM      3  F   UNL     1      18.213  -2.730  21.659  0.00  0.00    -0.166 F 
ATOM     36  C   UNL     1      17.327  -2.179  22.542  0.00  0.00    +0.417 C 
ENDBRANCH  35  36
ENDBRANCH  23  25
ENDBRANCH  19   9
ENDBRANCH  13  19
TORSDOF 8
ENDMDL
MODEL 3
REMARK VINA RESULT:      -6.6     18.498     20.627
REMARK  Name = 40779509
REMARK  11 active torsions:
REMARK  status: ('A' for Active; 'I' for Inactive)
REMARK    1  A    between atoms: O_5  and  C_30
REMARK    2  A    between atoms: O_5  and  C_37
REMARK    3  A    between atoms: O_6  and  C_32
REMARK    4  A    between atoms: O_6  and  C_38
REMARK    5  A    between atoms: N_8  and  C_22
REMARK    6  A    between atoms: N_9  and  C_19
REMARK    7  A    between atoms: C_12  and  C_18
REMARK    8  A    between atoms: C_13  and  C_19
REMARK    9  A    between atoms: C_21  and  C_24
REMARK   10  A    between atoms: C_23  and  C_25
REMARK   11  A    between atoms: C_35  and  C_36
REMARK                            x       y       z     vdW  Elec       q    Type
REMARK                         _______ _______ _______ _____ _____    ______ ____
ROOT
ATOM      7  N   UNL     1     -18.791   4.340  23.061  0.00  0.00    -0.297 NA
ATOM     11  C   UNL     1     -17.812   1.927  23.058  0.00  0.00    +0.002 C 
ATOM     12  C   UNL     1     -18.678   2.161  24.326  0.00  0.00    +0.055 C 
ATOM     13  C   UNL     1     -17.329   4.386  22.801  0.00  0.00    +0.074 C 
ATOM     14  C   UNL     1     -16.696   2.992  22.999  0.00  0.00    +0.024 C 
ATOM     15  C   UNL     1     -18.732   2.166  21.841  0.00  0.00    +0.019 C 
ATOM     16  C   UNL     1     -19.056   3.669  24.359  0.00  0.00    +0.094 C 
ATOM     17  C   UNL     1     -19.420   3.535  21.987  0.00  0.00    +0.085 C 
ENDROOT
BRANCH  12  18
ATOM      8  N   UNL     1     -18.519   0.491  26.231  0.00  0.00    -0.270 N 
ATOM     10  N   UNL     1     -17.929   0.242  27.413  0.00  0.00    -0.171 NA
ATOM     18  C   UNL     1     -18.139   1.672  25.664  0.00  0.00    +0.044 A 
ATOM     20  C   UNL     1     -17.240   2.235  26.536  0.00  0.00    +0.053 A 
ATOM     21  C   UNL     1     -17.149   1.310  27.593  0.00  0.00    +0.093 A 
ATOM     22  C   UNL     1     -19.457  -0.468  25.695  0.00  0.00    +0.172 C 
BRANCH  21  24
ATOM     24  C   UNL     1     -16.334   1.431  28.774  0.00  0.00    +0.006 A 
ATOM     26  C   UNL     1     -15.236   0.590  28.953  0.00  0.00    +0.059 A 
ATOM     27  C   UNL     1     -16.643   2.387  29.741  0.00  0.00    +0.014 A 
ATOM     30  C   UNL     1     -14.446   0.706  30.097  0.00  0.00    +0.162 A 
ATOM     31  C   UNL     1     -15.854   2.504  30.885  0.00  0.00    +0.050 A 
ATOM     32  C   UNL     1     -14.755   1.663  31.063  0.00  0.00    +0.162 A 
BRANCH  30   5
ATOM      5  O   UNL     1     -13.376  -0.121  30.259  0.00  0.00    -0.491 OA
ATOM     37  C   UNL     1     -13.203  -1.155  29.292  0.00  0.00    +0.277 C 
ENDBRANCH  30   5
BRANCH  32   6
ATOM      6  O   UNL     1     -13.993   1.787  32.185  0.00  0.00    -0.491 OA
ATOM     38  C   UNL     1     -14.676   1.787  33.436  0.00  0.00    +0.277 C 
ENDBRANCH  32   6
ENDBRANCH  21  24
ENDBRANCH  12  18
BRANCH  13  19
ATOM     19  C   UNL     1     -16.620   5.457  23.634  0.00  0.00    +0.123 C 
BRANCH  19   9
ATOM      4  O   UNL     1     -13.798   4.971  23.423  0.00  0.00    -0.270 OA
ATOM      9  N   UNL     1     -15.686   6.188  22.837  0.00  0.00    -0.310 N 
ATOM     23  C   UNL     1     -14.326   5.884  22.793  0.00  0.00    +0.244 C 
ATOM     39  H   UNL     1     -16.040   7.010  22.358  0.00  0.00    +0.149 HD
BRANCH  23  25
ATOM     25  C   UNL     1     -13.482   6.756  21.936  0.00  0.00    +0.037 A 
ATOM     28  C   UNL     1     -13.765   8.118  21.834  0.00  0.00    +0.013 A 
ATOM     29  C   UNL     1     -12.407   6.213  21.232  0.00  0.00    +0.013 A 
ATOM     33  C   UNL     1     -12.972   8.937  21.029  0.00  0.00    +0.013 A 
ATOM     34  C   UNL     1     -11.615   7.032  20.428  0.00  0.00    +0.013 A 
ATOM     35  C   UNL     1     -11.897   8.394  20.326  0.00  0.00    +0.055 A 
BRANCH  35  36
ATOM      1  F   UNL     1      -9.721   9.222  19.780  0.00  0.00    -0.166 F 
ATOM      2  F   UNL     1     -11.399  10.585  19.551  0.00  0.00    -0.166 F 
ATOM      3  F   UNL     1     -11.113   8.958  18.137  0.00  0.00    -0.166 F 
ATOM     36  C   UNL     1     -11.050   9.269  19.466  0.00  0.00    +0.417 C 
ENDBRANCH  35  36
ENDBRANCH  23  25
ENDBRANCH  19   9
ENDBRANCH  13  19
TORSDOF 8
ENDMDL
MODEL 4
REMARK VINA RESULT:      -6.4      2.868      5.107
REMARK  Name = 40779509
REMARK  11 active torsions:
REMARK  status: ('A' for Active; 'I' for Inactive)
REMARK    1  A    between atoms: O_5  and  C_30
REMARK    2  A    between atoms: O_5  and  C_37
REMARK    3  A    between atoms: O_6  and  C_32
REMARK    4  A    between atoms: O_6  and  C_38
REMARK    5  A    between atoms: N_8  and  C_22
REMARK    6  A    between atoms: N_9  and  C_19
REMARK    7  A    between atoms: C_12  and  C_18
REMARK    8  A    between atoms: C_13  and  C_19
REMARK    9  A    between atoms: C_21  and  C_24
REMARK   10  A    between atoms: C_23  and  C_25
REMARK   11  A    between atoms: C_35  and  C_36
REMARK                            x       y       z     vdW  Elec       q    Type
REMARK                         _______ _______ _______ _____ _____    ______ ____
ROOT
ATOM      7  N   UNL     1      -6.665 -12.884  18.364  0.00  0.00    -0.297 NA
ATOM     11  C   UNL     1      -6.871 -10.311  18.015  0.00  0.00    +0.002 C 
ATOM     12  C   UNL     1      -7.858 -11.067  17.084  0.00  0.00    +0.055 C 
ATOM     13  C   UNL     1      -5.318 -12.290  18.158  0.00  0.00    +0.074 C 
ATOM     14  C   UNL     1      -5.434 -10.807  17.745  0.00  0.00    +0.024 C 
ATOM     15  C   UNL     1      -7.225 -10.716  19.462  0.00  0.00    +0.019 C 
ATOM     16  C   UNL     1      -7.537 -12.584  17.201  0.00  0.00    +0.094 C 
ATOM     17  C   UNL     1      -7.262 -12.251  19.564  0.00  0.00    +0.085 C 
ENDROOT
BRANCH  12  18
ATOM      8  N   UNL     1      -8.768  -9.575  15.244  0.00  0.00    -0.270 N 
ATOM     10  N   UNL     1      -8.729  -9.330  13.922  0.00  0.00    -0.171 NA
ATOM     18  C   UNL     1      -7.972 -10.611  15.636  0.00  0.00    +0.044 A 
ATOM     20  C   UNL     1      -7.372 -11.077  14.492  0.00  0.00    +0.053 A 
ATOM     21  C   UNL     1      -7.874 -10.251  13.469  0.00  0.00    +0.093 A 
ATOM     22  C   UNL     1      -9.611  -8.759  16.087  0.00  0.00    +0.172 C 
BRANCH  21  24
ATOM     24  C   UNL     1      -7.555 -10.326  12.067  0.00  0.00    +0.006 A 
ATOM     26  C   UNL     1      -7.578  -9.173  11.283  0.00  0.00    +0.059 A 
ATOM     27  C   UNL     1      -7.225 -11.553  11.492  0.00  0.00    +0.014 A 
ATOM     30  C   UNL     1      -7.269  -9.246   9.925  0.00  0.00    +0.162 A 
ATOM     31  C   UNL     1      -6.917 -11.627  10.134  0.00  0.00    +0.050 A 
ATOM     32  C   UNL     1      -6.939 -10.474   9.350  0.00  0.00    +0.162 A 
BRANCH  30   5
ATOM      5  O   UNL     1      -7.295  -8.113   9.169  0.00  0.00    -0.491 OA
ATOM     37  C   UNL     1      -8.577  -7.582   8.840  0.00  0.00    +0.277 C 
ENDBRANCH  30   5
BRANCH  32   6
ATOM      6  O   UNL     1      -6.636 -10.559   8.024  0.00  0.00    -0.491 OA
ATOM     38  C   UNL     1      -7.661 -11.036   7.155  0.00  0.00    +0.277 C 
ENDBRANCH  32   6
ENDBRANCH  21  24
ENDBRANCH  12  18
BRANCH  13  19
ATOM     19  C   UNL     1      -4.472 -13.093  17.167  0.00  0.00    +0.123 C 
BRANCH  19   9
ATOM      4  O   UNL     1      -3.922 -14.225  14.586  0.00  0.00    -0.270 OA
ATOM      9  N   UNL     1      -4.310 -12.379  15.939  0.00  0.00    -0.310 N 
ATOM     23  C   UNL     1      -4.043 -13.010  14.725  0.00  0.00    +0.244 C 
ATOM     39  H   UNL     1      -4.311 -11.366  15.996  0.00  0.00    +0.149 HD
BRANCH  23  25
ATOM     25  C   UNL     1      -3.876 -12.125  13.543  0.00  0.00    +0.037 A 
ATOM     28  C   UNL     1      -4.083 -10.751  13.666  0.00  0.00    +0.013 A 
ATOM     29  C   UNL     1      -3.511 -12.668  12.311  0.00  0.00    +0.013 A 
ATOM     33  C   UNL     1      -3.927  -9.920  12.556  0.00  0.00    +0.013 A 
ATOM     34  C   UNL     1      -3.354 -11.837  11.202  0.00  0.00    +0.013 A 
ATOM     35  C   UNL     1      -3.562 -10.463  11.324  0.00  0.00    +0.055 A 
BRANCH  35  36
ATOM      1  F   UNL     1      -2.118  -9.115   9.977  0.00  0.00    -0.166 F 
ATOM      2  F   UNL     1      -4.179  -8.461  10.200  0.00  0.00    -0.166 F 
ATOM      3  F   UNL     1      -3.707 -10.179   8.954  0.00  0.00    -0.166 F 
ATOM     36  C   UNL     1      -3.393  -9.576  10.138  0.00  0.00    +0.417 C 
ENDBRANCH  35  36
ENDBRANCH  23  25
ENDBRANCH  19   9
ENDBRANCH  13  19
TORSDOF 8
ENDMDL
MODEL 5
REMARK VINA RESULT:      -6.3      2.746      6.897
REMARK  Name = 40779509
REMARK  11 active torsions:
REMARK  status: ('A' for Active; 'I' for Inactive)
REMARK    1  A    between atoms: O_5  and  C_30
REMARK    2  A    between atoms: O_5  and  C_37
REMARK    3  A    between atoms: O_6  and  C_32
REMARK    4  A    between atoms: O_6  and  C_38
REMARK    5  A    between atoms: N_8  and  C_22
REMARK    6  A    between atoms: N_9  and  C_19
REMARK    7  A    between atoms: C_12  and  C_18
REMARK    8  A    between atoms: C_13  and  C_19
REMARK    9  A    between atoms: C_21  and  C_24
REMARK   10  A    between atoms: C_23  and  C_25
REMARK   11  A    between atoms: C_35  and  C_36
REMARK                            x       y       z     vdW  Elec       q    Type
REMARK                         _______ _______ _______ _____ _____    ______ ____
ROOT
ATOM      7  N   UNL     1      -3.733 -10.756  10.186  0.00  0.00    -0.297 NA
ATOM     11  C   UNL     1      -5.402 -12.596  10.969  0.00  0.00    +0.002 C 
ATOM     12  C   UNL     1      -6.131 -11.234  10.809  0.00  0.00    +0.055 C 
ATOM     13  C   UNL     1      -3.175 -11.485  11.355  0.00  0.00    +0.074 C 
ATOM     14  C   UNL     1      -4.230 -12.435  11.961  0.00  0.00    +0.024 C 
ATOM     15  C   UNL     1      -4.789 -12.937   9.593  0.00  0.00    +0.019 C 
ATOM     16  C   UNL     1      -5.044 -10.155  10.540  0.00  0.00    +0.094 C 
ATOM     17  C   UNL     1      -3.956 -11.741   9.100  0.00  0.00    +0.085 C 
ENDROOT
BRANCH  12  18
ATOM      8  N   UNL     1      -8.229 -10.075  11.643  0.00  0.00    -0.270 N 
ATOM     10  N   UNL     1      -8.960  -9.804  12.739  0.00  0.00    -0.171 NA
ATOM     18  C   UNL     1      -7.108 -10.810  11.896  0.00  0.00    +0.044 A 
ATOM     20  C   UNL     1      -7.105 -11.035  13.252  0.00  0.00    +0.053 A 
ATOM     21  C   UNL     1      -8.268 -10.393  13.717  0.00  0.00    +0.093 A 
ATOM     22  C   UNL     1      -8.674  -9.584  10.359  0.00  0.00    +0.172 C 
BRANCH  21  24
ATOM     24  C   UNL     1      -8.730 -10.330  15.080  0.00  0.00    +0.006 A 
ATOM     26  C   UNL     1      -9.049  -9.100  15.653  0.00  0.00    +0.059 A 
ATOM     27  C   UNL     1      -8.856 -11.501  15.828  0.00  0.00    +0.014 A 
ATOM     30  C   UNL     1      -9.496  -9.039  16.973  0.00  0.00    +0.162 A 
ATOM     31  C   UNL     1      -9.302 -11.441  17.148  0.00  0.00    +0.050 A 
ATOM     32  C   UNL     1      -9.622 -10.210  17.721  0.00  0.00    +0.162 A 
BRANCH  30   5
ATOM      5  O   UNL     1      -9.805  -7.831  17.521  0.00  0.00    -0.491 OA
ATOM     37  C   UNL     1     -10.891  -7.113  16.938  0.00  0.00    +0.277 C 
ENDBRANCH  30   5
BRANCH  32   6
ATOM      6  O   UNL     1     -10.056 -10.164  19.011  0.00  0.00    -0.491 OA
ATOM     38  C   UNL     1     -10.667 -11.343  19.531  0.00  0.00    +0.277 C 
ENDBRANCH  32   6
ENDBRANCH  21  24
ENDBRANCH  12  18
BRANCH  13  19
ATOM     19  C   UNL     1      -2.589 -10.539  12.407  0.00  0.00    +0.123 C 
BRANCH  19   9
ATOM      4  O   UNL     1      -1.493 -10.548  15.061  0.00  0.00    -0.270 OA
ATOM      9  N   UNL     1      -3.321 -10.622  13.632  0.00  0.00    -0.310 N 
ATOM     23  C   UNL     1      -2.707 -10.620  14.883  0.00  0.00    +0.244 C 
ATOM     39  H   UNL     1      -4.322 -10.772  13.555  0.00  0.00    +0.149 HD
BRANCH  23  25
ATOM     25  C   UNL     1      -3.606 -10.739  16.060  0.00  0.00    +0.037 A 
ATOM     28  C   UNL     1      -3.188 -11.443  17.189  0.00  0.00    +0.013 A 
ATOM     29  C   UNL     1      -4.869 -10.147  16.035  0.00  0.00    +0.013 A 
ATOM     33  C   UNL     1      -4.033 -11.556  18.294  0.00  0.00    +0.013 A 
ATOM     34  C   UNL     1      -5.714 -10.259  17.139  0.00  0.00    +0.013 A 
ATOM     35  C   UNL     1      -5.296 -10.964  18.269  0.00  0.00    +0.055 A 
BRANCH  35  36
ATOM      1  F   UNL     1      -7.075 -12.127  19.365  0.00  0.00    -0.166 F 
ATOM      2  F   UNL     1      -6.970  -9.973  19.635  0.00  0.00    -0.166 F 
ATOM      3  F   UNL     1      -5.535 -11.270  20.629  0.00  0.00    -0.166 F 
ATOM     36  C   UNL     1      -6.198 -11.083  19.449  0.00  0.00    +0.417 C 
ENDBRANCH  35  36
ENDBRANCH  23  25
ENDBRANCH  19   9
ENDBRANCH  13  19
TORSDOF 8
ENDMDL
MODEL 6
REMARK VINA RESULT:      -6.3      2.690      4.840
REMARK  Name = 40779509
REMARK  11 active torsions:
REMARK  status: ('A' for Active; 'I' for Inactive)
REMARK    1  A    between atoms: O_5  and  C_30
REMARK    2  A    between atoms: O_5  and  C_37
REMARK    3  A    between atoms: O_6  and  C_32
REMARK    4  A    between atoms: O_6  and  C_38
REMARK    5  A    between atoms: N_8  and  C_22
REMARK    6  A    between atoms: N_9  and  C_19
REMARK    7  A    between atoms: C_12  and  C_18
REMARK    8  A    between atoms: C_13  and  C_19
REMARK    9  A    between atoms: C_21  and  C_24
REMARK   10  A    between atoms: C_23  and  C_25
REMARK   11  A    between atoms: C_35  and  C_36
REMARK                            x       y       z     vdW  Elec       q    Type
REMARK                         _______ _______ _______ _____ _____    ______ ____
ROOT
ATOM      7  N   UNL     1      -6.605 -12.786  18.351  0.00  0.00    -0.297 NA
ATOM     11  C   UNL     1      -6.649 -10.216  17.933  0.00  0.00    +0.002 C 
ATOM     12  C   UNL     1      -7.565 -10.948  16.915  0.00  0.00    +0.055 C 
ATOM     13  C   UNL     1      -5.216 -12.259  18.280  0.00  0.00    +0.074 C 
ATOM     14  C   UNL     1      -5.216 -10.783  17.830  0.00  0.00    +0.024 C 
ATOM     15  C   UNL     1      -7.175 -10.569  19.341  0.00  0.00    +0.019 C 
ATOM     16  C   UNL     1      -7.332 -12.475  17.095  0.00  0.00    +0.094 C 
ATOM     17  C   UNL     1      -7.296 -12.098  19.468  0.00  0.00    +0.085 C 
ENDROOT
BRANCH  12  18
ATOM      8  N   UNL     1      -8.446  -9.730  14.870  0.00  0.00    -0.270 N 
ATOM     10  N   UNL     1      -8.207  -9.469  13.573  0.00  0.00    -0.171 NA
ATOM     18  C   UNL     1      -7.502 -10.522  15.455  0.00  0.00    +0.044 A 
ATOM     20  C   UNL     1      -6.582 -10.799  14.473  0.00  0.00    +0.053 A 
ATOM     21  C   UNL     1      -7.068 -10.124  13.337  0.00  0.00    +0.093 A 
ATOM     22  C   UNL     1      -9.625  -9.177  15.496  0.00  0.00    +0.172 C 
BRANCH  21  24
ATOM     24  C   UNL     1      -6.465 -10.096  12.029  0.00  0.00    +0.006 A 
ATOM     26  C   UNL     1      -6.333 -11.275  11.296  0.00  0.00    +0.059 A 
ATOM     27  C   UNL     1      -6.011  -8.889  11.497  0.00  0.00    +0.014 A 
ATOM     30  C   UNL     1      -5.749 -11.247  10.029  0.00  0.00    +0.162 A 
ATOM     31  C   UNL     1      -5.426  -8.862  10.231  0.00  0.00    +0.050 A 
ATOM     32  C   UNL     1      -5.295 -10.041   9.497  0.00  0.00    +0.162 A 
BRANCH  30   5
ATOM      5  O   UNL     1      -5.626 -12.405   9.323  0.00  0.00    -0.491 OA
ATOM     37  C   UNL     1      -4.517 -13.244   9.641  0.00  0.00    +0.277 C 
ENDBRANCH  30   5
BRANCH  32   6
ATOM      6  O   UNL     1      -4.722 -10.000   8.262  0.00  0.00    -0.491 OA
ATOM     38  C   UNL     1      -5.542  -9.559   7.182  0.00  0.00    +0.277 C 
ENDBRANCH  32   6
ENDBRANCH  21  24
ENDBRANCH  12  18
BRANCH  13  19
ATOM     19  C   UNL     1      -4.308 -13.123  17.402  0.00  0.00    +0.123 C 
BRANCH  19   9
ATOM      4  O   UNL     1      -4.140 -13.757  14.607  0.00  0.00    -0.270 OA
ATOM      9  N   UNL     1      -3.683 -12.337  16.386  0.00  0.00    -0.310 N 
ATOM     23  C   UNL     1      -3.646 -12.720  15.046  0.00  0.00    +0.244 C 
ATOM     39  H   UNL     1      -3.181 -11.511  16.693  0.00  0.00    +0.149 HD
BRANCH  23  25
ATOM     25  C   UNL     1      -2.935 -11.805  14.117  0.00  0.00    +0.037 A 
ATOM     28  C   UNL     1      -3.075 -11.964  12.738  0.00  0.00    +0.013 A 
ATOM     29  C   UNL     1      -2.127 -10.788  14.623  0.00  0.00    +0.013 A 
ATOM     33  C   UNL     1      -2.406 -11.105  11.865  0.00  0.00    +0.013 A 
ATOM     34  C   UNL     1      -1.458  -9.929  13.750  0.00  0.00    +0.013 A 
ATOM     35  C   UNL     1      -1.598 -10.087  12.371  0.00  0.00    +0.055 A 
BRANCH  35  36
ATOM      1  F   UNL     1      -1.675  -8.683  10.437  0.00  0.00    -0.166 F 
ATOM      2  F   UNL     1       0.170  -9.769  10.814  0.00  0.00    -0.166 F 
ATOM      3  F   UNL     1      -0.365  -8.063  12.051  0.00  0.00    -0.166 F 
ATOM     36  C   UNL     1      -0.884  -9.169  11.439  0.00  0.00    +0.417 C 
ENDBRANCH  35  36
ENDBRANCH  23  25
ENDBRANCH  19   9
ENDBRANCH  13  19
TORSDOF 8
ENDMDL
MODEL 7
REMARK VINA RESULT:      -6.1      2.928      6.914
REMARK  Name = 40779509
REMARK  11 active torsions:
REMARK  status: ('A' for Active; 'I' for Inactive)
REMARK    1  A    between atoms: O_5  and  C_30
REMARK    2  A    between atoms: O_5  and  C_37
REMARK    3  A    between atoms: O_6  and  C_32
REMARK    4  A    between atoms: O_6  and  C_38
REMARK    5  A    between atoms: N_8  and  C_22
REMARK    6  A    between atoms: N_9  and  C_19
REMARK    7  A    between atoms: C_12  and  C_18
REMARK    8  A    between atoms: C_13  and  C_19
REMARK    9  A    between atoms: C_21  and  C_24
REMARK   10  A    between atoms: C_23  and  C_25
REMARK   11  A    between atoms: C_35  and  C_36
REMARK                            x       y       z     vdW  Elec       q    Type
REMARK                         _______ _______ _______ _____ _____    ______ ____
ROOT
ATOM      7  N   UNL     1      -7.727  -9.795   6.832  0.00  0.00    -0.297 NA
ATOM     11  C   UNL     1      -8.500 -11.769   8.344  0.00  0.00    +0.002 C 
ATOM     12  C   UNL     1      -8.847 -10.407   9.008  0.00  0.00    +0.055 C 
ATOM     13  C   UNL     1      -6.614 -10.763   7.011  0.00  0.00    +0.074 C 
ATOM     14  C   UNL     1      -6.983 -11.829   8.066  0.00  0.00    +0.024 C 
ATOM     15  C   UNL     1      -9.214 -11.792   6.975  0.00  0.00    +0.019 C 
ATOM     16  C   UNL     1      -8.181  -9.292   8.153  0.00  0.00    +0.094 C 
ATOM     17  C   UNL     1      -8.858 -10.513   6.197  0.00  0.00    +0.085 C 
ENDROOT
BRANCH  12  18
ATOM      8  N   UNL     1      -9.526  -9.882  11.396  0.00  0.00    -0.270 N 
ATOM     10  N   UNL     1      -9.075  -9.788  12.659  0.00  0.00    -0.171 NA
ATOM     18  C   UNL     1      -8.567 -10.241  10.494  0.00  0.00    +0.044 A 
ATOM     20  C   UNL     1      -7.409 -10.390  11.218  0.00  0.00    +0.053 A 
ATOM     21  C   UNL     1      -7.782 -10.100  12.544  0.00  0.00    +0.093 A 
ATOM     22  C   UNL     1     -10.917  -9.607  11.121  0.00  0.00    +0.172 C 
BRANCH  21  24
ATOM     24  C   UNL     1      -6.926 -10.112  13.701  0.00  0.00    +0.006 A 
ATOM     26  C   UNL     1      -7.441  -9.782  14.954  0.00  0.00    +0.059 A 
ATOM     27  C   UNL     1      -5.579 -10.451  13.569  0.00  0.00    +0.014 A 
ATOM     30  C   UNL     1      -6.611  -9.793  16.076  0.00  0.00    +0.162 A 
ATOM     31  C   UNL     1      -4.749 -10.462  14.690  0.00  0.00    +0.050 A 
ATOM     32  C   UNL     1      -5.265 -10.133  15.943  0.00  0.00    +0.162 A 
BRANCH  30   5
ATOM      5  O   UNL     1      -7.126  -9.470  17.294  0.00  0.00    -0.491 OA
ATOM     37  C   UNL     1      -8.488  -9.045  17.330  0.00  0.00    +0.277 C 
ENDBRANCH  30   5
BRANCH  32   6
ATOM      6  O   UNL     1      -4.443 -10.148  17.030  0.00  0.00    -0.491 OA
ATOM     38  C   UNL     1      -3.623 -11.300  17.206  0.00  0.00    +0.277 C 
ENDBRANCH  32   6
ENDBRANCH  21  24
ENDBRANCH  12  18
BRANCH  13  19
ATOM     19  C   UNL     1      -5.287 -10.074   7.337  0.00  0.00    +0.123 C 
BRANCH  19   9
ATOM      4  O   UNL     1      -3.836  -8.711   9.406  0.00  0.00    -0.270 OA
ATOM      9  N   UNL     1      -4.670 -10.670   8.480  0.00  0.00    -0.310 N 
ATOM     23  C   UNL     1      -3.982  -9.931   9.441  0.00  0.00    +0.244 C 
ATOM     39  H   UNL     1      -4.677 -11.683   8.526  0.00  0.00    +0.149 HD
BRANCH  23  25
ATOM     25  C   UNL     1      -3.374 -10.702  10.556  0.00  0.00    +0.037 A 
ATOM     28  C   UNL     1      -3.742 -12.030  10.767  0.00  0.00    +0.013 A 
ATOM     29  C   UNL     1      -2.436 -10.096  11.393  0.00  0.00    +0.013 A 
ATOM     33  C   UNL     1      -3.171 -12.754  11.816  0.00  0.00    +0.013 A 
ATOM     34  C   UNL     1      -1.866 -10.820  12.440  0.00  0.00    +0.013 A 
ATOM     35  C   UNL     1      -2.233 -12.149  12.652  0.00  0.00    +0.055 A 
BRANCH  35  36
ATOM      1  F   UNL     1      -2.427 -13.916  14.252  0.00  0.00    -0.166 F 
ATOM      2  F   UNL     1      -1.325 -12.140  14.848  0.00  0.00    -0.166 F 
ATOM      3  F   UNL     1      -0.454 -13.543  13.433  0.00  0.00    -0.166 F 
ATOM     36  C   UNL     1      -1.623 -12.922  13.770  0.00  0.00    +0.417 C 
ENDBRANCH  35  36
ENDBRANCH  23  25
ENDBRANCH  19   9
ENDBRANCH  13  19
TORSDOF 8
ENDMDL
MODEL 8
REMARK VINA RESULT:      -6.1     25.794     28.533
REMARK  Name = 40779509
REMARK  11 active torsions:
REMARK  status: ('A' for Active; 'I' for Inactive)
REMARK    1  A    between atoms: O_5  and  C_30
REMARK    2  A    between atoms: O_5  and  C_37
REMARK    3  A    between atoms: O_6  and  C_32
REMARK    4  A    between atoms: O_6  and  C_38
REMARK    5  A    between atoms: N_8  and  C_22
REMARK    6  A    between atoms: N_9  and  C_19
REMARK    7  A    between atoms: C_12  and  C_18
REMARK    8  A    between atoms: C_13  and  C_19
REMARK    9  A    between atoms: C_21  and  C_24
REMARK   10  A    between atoms: C_23  and  C_25
REMARK   11  A    between atoms: C_35  and  C_36
REMARK                            x       y       z     vdW  Elec       q    Type
REMARK                         _______ _______ _______ _____ _____    ______ ____
ROOT
ATOM      7  N   UNL     1       9.178   8.571   6.318  0.00  0.00    -0.297 NA
ATOM     11  C   UNL     1      10.578   6.405   6.683  0.00  0.00    +0.002 C 
ATOM     12  C   UNL     1      11.493   7.573   6.222  0.00  0.00    +0.055 C 
ATOM     13  C   UNL     1       8.542   7.430   5.608  0.00  0.00    +0.074 C 
ATOM     14  C   UNL     1       9.461   6.190   5.639  0.00  0.00    +0.024 C 
ATOM     15  C   UNL     1       9.894   6.864   7.989  0.00  0.00    +0.019 C 
ATOM     16  C   UNL     1      10.568   8.761   5.833  0.00  0.00    +0.094 C 
ATOM     17  C   UNL     1       9.234   8.235   7.761  0.00  0.00    +0.085 C 
ENDROOT
BRANCH  12  18
ATOM      8  N   UNL     1      13.841   7.689   5.266  0.00  0.00    -0.270 N 
ATOM     10  N   UNL     1      14.608   7.337   4.219  0.00  0.00    -0.171 NA
ATOM     18  C   UNL     1      12.542   7.286   5.157  0.00  0.00    +0.044 A 
ATOM     20  C   UNL     1      12.454   6.625   3.956  0.00  0.00    +0.053 A 
ATOM     21  C   UNL     1      13.755   6.688   3.423  0.00  0.00    +0.093 A 
ATOM     22  C   UNL     1      14.432   8.429   6.357  0.00  0.00    +0.172 C 
BRANCH  21  24
ATOM     24  C   UNL     1      14.198   6.141   2.167  0.00  0.00    +0.006 A 
ATOM     26  C   UNL     1      14.366   6.977   1.063  0.00  0.00    +0.059 A 
ATOM     27  C   UNL     1      14.457   4.775   2.054  0.00  0.00    +0.014 A 
ATOM     30  C   UNL     1      14.795   6.447  -0.154  0.00  0.00    +0.162 A 
ATOM     31  C   UNL     1      14.885   4.245   0.836  0.00  0.00    +0.050 A 
ATOM     32  C   UNL     1      15.054   5.081  -0.268  0.00  0.00    +0.162 A 
BRANCH  30   5
ATOM      5  O   UNL     1      14.956   7.273  -1.225  0.00  0.00    -0.491 OA
ATOM     37  C   UNL     1      16.143   8.063  -1.262  0.00  0.00    +0.277 C 
ENDBRANCH  30   5
BRANCH  32   6
ATOM      6  O   UNL     1      15.473   4.551  -1.451  0.00  0.00    -0.491 OA
ATOM     38  C   UNL     1      16.873   4.328  -1.601  0.00  0.00    +0.277 C 
ENDBRANCH  32   6
ENDBRANCH  21  24
ENDBRANCH  12  18
BRANCH  13  19
ATOM     19  C   UNL     1       8.121   7.792   4.182  0.00  0.00    +0.123 C 
BRANCH  19   9
ATOM      4  O   UNL     1       9.695   8.658   1.942  0.00  0.00    -0.270 OA
ATOM      9  N   UNL     1       8.779   6.956   3.227  0.00  0.00    -0.310 N 
ATOM     23  C   UNL     1       9.527   7.462   2.165  0.00  0.00    +0.244 C 
ATOM     39  H   UNL     1       8.610   5.959   3.302  0.00  0.00    +0.149 HD
BRANCH  23  25
ATOM     25  C   UNL     1      10.126   6.461   1.245  0.00  0.00    +0.037 A 
ATOM     28  C   UNL     1      10.648   6.868   0.017  0.00  0.00    +0.013 A 
ATOM     29  C   UNL     1      10.168   5.116   1.609  0.00  0.00    +0.013 A 
ATOM     33  C   UNL     1      11.211   5.928  -0.848  0.00  0.00    +0.013 A 
ATOM     34  C   UNL     1      10.731   4.176   0.745  0.00  0.00    +0.013 A 
ATOM     35  C   UNL     1      11.252   4.582  -0.484  0.00  0.00    +0.055 A 
BRANCH  35  36
ATOM      1  F   UNL     1      12.697   2.701  -0.786  0.00  0.00    -0.166 F 
ATOM      2  F   UNL     1      12.593   4.154  -2.399  0.00  0.00    -0.166 F 
ATOM      3  F   UNL     1      10.932   2.796  -2.042  0.00  0.00    -0.166 F 
ATOM     36  C   UNL     1      11.854   3.578  -1.406  0.00  0.00    +0.417 C 
ENDBRANCH  35  36
ENDBRANCH  23  25
ENDBRANCH  19   9
ENDBRANCH  13  19
TORSDOF 8
ENDMDL
MODEL 9
REMARK VINA RESULT:      -6.1     29.576     31.489
REMARK  Name = 40779509
REMARK  11 active torsions:
REMARK  status: ('A' for Active; 'I' for Inactive)
REMARK    1  A    between atoms: O_5  and  C_30
REMARK    2  A    between atoms: O_5  and  C_37
REMARK    3  A    between atoms: O_6  and  C_32
REMARK    4  A    between atoms: O_6  and  C_38
REMARK    5  A    between atoms: N_8  and  C_22
REMARK    6  A    between atoms: N_9  and  C_19
REMARK    7  A    between atoms: C_12  and  C_18
REMARK    8  A    between atoms: C_13  and  C_19
REMARK    9  A    between atoms: C_21  and  C_24
REMARK   10  A    between atoms: C_23  and  C_25
REMARK   11  A    between atoms: C_35  and  C_36
REMARK                            x       y       z     vdW  Elec       q    Type
REMARK                         _______ _______ _______ _____ _____    ______ ____
ROOT
ATOM      7  N   UNL     1      -5.342  12.299  36.297  0.00  0.00    -0.297 NA
ATOM     11  C   UNL     1      -6.392   9.918  36.406  0.00  0.00    +0.002 C 
ATOM     12  C   UNL     1      -6.369  10.567  37.817  0.00  0.00    +0.055 C 
ATOM     13  C   UNL     1      -4.458  11.322  35.608  0.00  0.00    +0.074 C 
ATOM     14  C   UNL     1      -4.957   9.879  35.839  0.00  0.00    +0.024 C 
ATOM     15  C   UNL     1      -7.213  10.858  35.496  0.00  0.00    +0.019 C 
ATOM     16  C   UNL     1      -5.553  11.886  37.707  0.00  0.00    +0.094 C 
ATOM     17  C   UNL     1      -6.655  12.287  35.610  0.00  0.00    +0.085 C 
ENDROOT
BRANCH  12  18
ATOM      8  N   UNL     1      -6.800   9.190  39.905  0.00  0.00    -0.270 N 
ATOM     10  N   UNL     1      -6.209   8.463  40.869  0.00  0.00    -0.171 NA
ATOM     18  C   UNL     1      -5.927   9.711  38.995  0.00  0.00    +0.044 A 
ATOM     20  C   UNL     1      -4.679   9.297  39.392  0.00  0.00    +0.053 A 
ATOM     21  C   UNL     1      -4.914   8.532  40.550  0.00  0.00    +0.093 A 
ATOM     22  C   UNL     1      -8.236   9.347  39.920  0.00  0.00    +0.172 C 
BRANCH  21  24
ATOM     24  C   UNL     1      -3.925   7.868  41.359  0.00  0.00    +0.006 A 
ATOM     26  C   UNL     1      -3.017   8.618  42.106  0.00  0.00    +0.059 A 
ATOM     27  C   UNL     1      -3.873   6.475  41.394  0.00  0.00    +0.014 A 
ATOM     30  C   UNL     1      -2.058   7.975  42.890  0.00  0.00    +0.162 A 
ATOM     31  C   UNL     1      -2.914   5.831  42.177  0.00  0.00    +0.050 A 
ATOM     32  C   UNL     1      -2.007   6.581  42.925  0.00  0.00    +0.162 A 
BRANCH  30   5
ATOM      5  O   UNL     1      -1.177   8.718  43.615  0.00  0.00    -0.491 OA
ATOM     37  C   UNL     1      -0.902  10.037  43.147  0.00  0.00    +0.277 C 
ENDBRANCH  30   5
BRANCH  32   6
ATOM      6  O   UNL     1      -1.076   5.941  43.685  0.00  0.00    -0.491 OA
ATOM     38  C   UNL     1      -1.185   4.523  43.785  0.00  0.00    +0.277 C 
ENDBRANCH  32   6
ENDBRANCH  21  24
ENDBRANCH  12  18
BRANCH  13  19
ATOM     19  C   UNL     1      -2.988  11.486  36.000  0.00  0.00    +0.123 C 
BRANCH  19   9
ATOM      4  O   UNL     1      -1.326  11.389  38.340  0.00  0.00    -0.270 OA
ATOM      9  N   UNL     1      -2.499  10.311  36.651  0.00  0.00    -0.310 N 
ATOM     23  C   UNL     1      -1.693  10.354  37.788  0.00  0.00    +0.244 C 
ATOM     39  H   UNL     1      -2.692   9.425  36.197  0.00  0.00    +0.149 HD
BRANCH  23  25
ATOM     25  C   UNL     1      -1.245   9.046  38.330  0.00  0.00    +0.037 A 
ATOM     28  C   UNL     1      -1.652   7.861  37.716  0.00  0.00    +0.013 A 
ATOM     29  C   UNL     1      -0.418   9.002  39.451  0.00  0.00    +0.013 A 
ATOM     33  C   UNL     1      -1.232   6.631  38.225  0.00  0.00    +0.013 A 
ATOM     34  C   UNL     1       0.003   7.773  39.960  0.00  0.00    +0.013 A 
ATOM     35  C   UNL     1      -0.404   6.587  39.347  0.00  0.00    +0.055 A 
BRANCH  35  36
ATOM      1  F   UNL     1       1.018   4.676  39.141  0.00  0.00    -0.166 F 
ATOM      2  F   UNL     1      -0.967   4.363  39.969  0.00  0.00    -0.166 F 
ATOM      3  F   UNL     1       0.565   5.353  41.152  0.00  0.00    -0.166 F 
ATOM     36  C   UNL     1       0.046   5.274  39.891  0.00  0.00    +0.417 C 
ENDBRANCH  35  36
ENDBRANCH  23  25
ENDBRANCH  19   9
ENDBRANCH  13  19
TORSDOF 8
ENDMDL
MODEL 10
REMARK VINA RESULT:      -6.0     25.298     27.940
REMARK  Name = 40779509
REMARK  11 active torsions:
REMARK  status: ('A' for Active; 'I' for Inactive)
REMARK    1  A    between atoms: O_5  and  C_30
REMARK    2  A    between atoms: O_5  and  C_37
REMARK    3  A    between atoms: O_6  and  C_32
REMARK    4  A    between atoms: O_6  and  C_38
REMARK    5  A    between atoms: N_8  and  C_22
REMARK    6  A    between atoms: N_9  and  C_19
REMARK    7  A    between atoms: C_12  and  C_18
REMARK    8  A    between atoms: C_13  and  C_19
REMARK    9  A    between atoms: C_21  and  C_24
REMARK   10  A    between atoms: C_23  and  C_25
REMARK   11  A    between atoms: C_35  and  C_36
REMARK                            x       y       z     vdW  Elec       q    Type
REMARK                         _______ _______ _______ _____ _____    ______ ____
ROOT
ATOM      7  N   UNL     1      10.542   5.793   7.881  0.00  0.00    -0.297 NA
ATOM     11  C   UNL     1       9.349   7.564   6.390  0.00  0.00    +0.002 C 
ATOM     12  C   UNL     1       9.285   6.161   5.725  0.00  0.00    +0.055 C 
ATOM     13  C   UNL     1      11.425   6.974   7.690  0.00  0.00    +0.074 C 
ATOM     14  C   UNL     1      10.824   7.940   6.646  0.00  0.00    +0.024 C 
ATOM     15  C   UNL     1       8.668   7.434   7.770  0.00  0.00    +0.019 C 
ATOM     16  C   UNL     1      10.183   5.209   6.564  0.00  0.00    +0.094 C 
ATOM     17  C   UNL     1       9.296   6.257   8.536  0.00  0.00    +0.085 C 
ENDROOT
BRANCH  12  18
ATOM      8  N   UNL     1       9.082   6.949   3.321  0.00  0.00    -0.270 N 
ATOM     10  N   UNL     1       9.449   6.683   2.055  0.00  0.00    -0.171 NA
ATOM     18  C   UNL     1       9.571   6.060   4.234  0.00  0.00    +0.044 A 
ATOM     20  C   UNL     1      10.307   5.150   3.515  0.00  0.00    +0.053 A 
ATOM     21  C   UNL     1      10.197   5.584   2.180  0.00  0.00    +0.093 A 
ATOM     22  C   UNL     1       8.243   8.094   3.587  0.00  0.00    +0.172 C 
BRANCH  21  24
ATOM     24  C   UNL     1      10.790   4.967   1.022  0.00  0.00    +0.006 A 
ATOM     26  C   UNL     1      10.173   5.080  -0.223  0.00  0.00    +0.059 A 
ATOM     27  C   UNL     1      11.983   4.254   1.147  0.00  0.00    +0.014 A 
ATOM     30  C   UNL     1      10.748   4.482  -1.344  0.00  0.00    +0.162 A 
ATOM     31  C   UNL     1      12.558   3.655   0.026  0.00  0.00    +0.050 A 
ATOM     32  C   UNL     1      11.940   3.769  -1.220  0.00  0.00    +0.162 A 
BRANCH  30   5
ATOM      5  O   UNL     1      10.135   4.599  -2.555  0.00  0.00    -0.491 OA
ATOM     37  C   UNL     1       9.040   5.509  -2.642  0.00  0.00    +0.277 C 
ENDBRANCH  30   5
BRANCH  32   6
ATOM      6  O   UNL     1      12.512   3.179  -2.306  0.00  0.00    -0.491 OA
ATOM     38  C   UNL     1      13.456   3.954  -3.042  0.00  0.00    +0.277 C 
ENDBRANCH  32   6
ENDBRANCH  21  24
ENDBRANCH  12  18
BRANCH  13  19
ATOM     19  C   UNL     1      12.861   6.578   7.341  0.00  0.00    +0.123 C 
BRANCH  19   9
ATOM      4  O   UNL     1      14.630   8.287   5.859  0.00  0.00    -0.270 OA
ATOM      9  N   UNL     1      13.061   6.578   5.926  0.00  0.00    -0.310 N 
ATOM     23  C   UNL     1      13.943   7.446   5.284  0.00  0.00    +0.244 C 
ATOM     39  H   UNL     1      12.461   5.967   5.381  0.00  0.00    +0.149 HD
BRANCH  23  25
ATOM     25  C   UNL     1      14.016   7.337   3.804  0.00  0.00    +0.037 A 
ATOM     28  C   UNL     1      13.001   7.877   3.014  0.00  0.00    +0.013 A 
ATOM     29  C   UNL     1      15.101   6.697   3.205  0.00  0.00    +0.013 A 
ATOM     33  C   UNL     1      13.070   7.774   1.624  0.00  0.00    +0.013 A 
ATOM     34  C   UNL     1      15.170   6.595   1.816  0.00  0.00    +0.013 A 
ATOM     35  C   UNL     1      14.154   7.134   1.025  0.00  0.00    +0.055 A 
BRANCH  35  36
ATOM      1  F   UNL     1      14.882   8.068  -1.053  0.00  0.00    -0.166 F 
ATOM      2  F   UNL     1      12.997   6.986  -1.046  0.00  0.00    -0.166 F 
ATOM      3  F   UNL     1      14.877   5.905  -0.895  0.00  0.00    -0.166 F 
ATOM     36  C   UNL     1      14.228   7.025  -0.460  0.00  0.00    +0.417 C 
ENDBRANCH  35  36
ENDBRANCH  23  25
ENDBRANCH  19   9
ENDBRANCH  13  19
TORSDOF 8
ENDMDL
