MODEL 1
REMARK VINA RESULT:      -7.2      0.000      0.000
REMARK  Name = 45361209
REMARK  8 active torsions:
REMARK  status: ('A' for Active; 'I' for Inactive)
REMARK    1  A    between atoms: O_3  and  C_25
REMARK    2  A    between atoms: N_4  and  C_17
REMARK    3  A    between atoms: N_5  and  C_16
REMARK    4  A    between atoms: C_12  and  C_15
REMARK    5  A    between atoms: C_15  and  C_18
REMARK    6  A    between atoms: C_16  and  C_19
REMARK    7  A    between atoms: C_18  and  C_20
REMARK    8  A    between atoms: C_30  and  C_31
REMARK                            x       y       z     vdW  Elec       q    Type
REMARK                         _______ _______ _______ _____ _____    ______ ____
ROOT
ATOM      1  O   UNL     1      10.891   3.741   3.941  0.00  0.00    -0.274 OA
ATOM      4  N   UNL     1      13.363   5.664   1.666  0.00  0.00    -0.296 NA
ATOM      5  N   UNL     1      11.201   6.357   4.535  0.00  0.00    -0.286 NA
ATOM      6  N   UNL     1      10.981   4.037   1.674  0.00  0.00    -0.312 N 
ATOM      8  C   UNL     1      12.552   6.552   2.528  0.00  0.00    +0.084 C 
ATOM      9  C   UNL     1      11.213   6.004   3.103  0.00  0.00    +0.161 C 
ATOM     10  C   UNL     1      13.280   7.021   3.802  0.00  0.00    +0.036 C 
ATOM     11  C   UNL     1      12.151   7.450   4.715  0.00  0.00    +0.087 C 
ATOM     12  C   UNL     1      12.703   5.272   0.390  0.00  0.00    +0.074 C 
ATOM     13  C   UNL     1      11.026   4.494   2.978  0.00  0.00    +0.232 C 
ATOM     14  C   UNL     1      11.216   4.885   0.521  0.00  0.00    +0.123 C 
ATOM     17  C   UNL     1      14.682   6.261   1.395  0.00  0.00    +0.105 C 
ATOM     32  H   UNL     1      10.780   3.055   1.520  0.00  0.00    +0.149 HD
ENDROOT
BRANCH  12  15
ATOM     15  C   UNL     1      13.438   4.078  -0.253  0.00  0.00    +0.029 C 
BRANCH  15  18
ATOM     18  C   UNL     1      12.521   3.257  -1.139  0.00  0.00    +0.097 C 
BRANCH  18  20
ATOM      2  O   UNL     1      13.870   4.076  -2.907  0.00  0.00    -0.276 OA
ATOM      7  N   UNL     1      11.947   2.924  -3.519  0.00  0.00    -0.301 N 
ATOM     20  C   UNL     1      12.847   3.459  -2.598  0.00  0.00    +0.216 C 
ATOM     21  C   UNL     1      10.723   2.185  -3.180  0.00  0.00    +0.110 C 
ATOM     22  C   UNL     1      12.219   3.038  -4.954  0.00  0.00    +0.110 C 
ATOM     23  C   UNL     1       9.512   2.797  -3.880  0.00  0.00    +0.050 C 
ATOM     24  C   UNL     1      11.035   3.666  -5.683  0.00  0.00    +0.050 C 
ATOM     25  C   UNL     1       9.740   2.909  -5.387  0.00  0.00    +0.118 C 
BRANCH  25   3
ATOM      3  O   UNL     1       8.637   3.596  -5.967  0.00  0.00    -0.392 OA
ATOM     33  H   UNL     1       8.141   2.953  -6.502  0.00  0.00    +0.210 HD
ENDBRANCH  25   3
ENDBRANCH  18  20
ENDBRANCH  15  18
ENDBRANCH  12  15
BRANCH   5  16
ATOM     16  C   UNL     1       9.874   6.695   5.035  0.00  0.00    +0.120 C 
BRANCH  16  19
ATOM     19  C   UNL     1       9.650   6.168   6.428  0.00  0.00    -0.033 A 
ATOM     26  C   UNL     1       9.951   4.839   6.728  0.00  0.00    +0.005 A 
ATOM     27  C   UNL     1       9.138   7.008   7.417  0.00  0.00    +0.005 A 
ATOM     28  C   UNL     1       9.740   4.351   8.017  0.00  0.00    +0.003 A 
ATOM     29  C   UNL     1       8.927   6.519   8.707  0.00  0.00    +0.003 A 
ATOM     30  C   UNL     1       9.229   5.191   9.007  0.00  0.00    -0.050 A 
ATOM     31  C   UNL     1       9.002   4.667  10.385  0.00  0.00    +0.044 C 
ENDBRANCH  16  19
ENDBRANCH   5  16
TORSDOF 6
ENDMDL
MODEL 2
REMARK VINA RESULT:      -7.1     24.330     28.330
REMARK  Name = 45361209
REMARK  8 active torsions:
REMARK  status: ('A' for Active; 'I' for Inactive)
REMARK    1  A    between atoms: O_3  and  C_25
REMARK    2  A    between atoms: N_4  and  C_17
REMARK    3  A    between atoms: N_5  and  C_16
REMARK    4  A    between atoms: C_12  and  C_15
REMARK    5  A    between atoms: C_15  and  C_18
REMARK    6  A    between atoms: C_16  and  C_19
REMARK    7  A    between atoms: C_18  and  C_20
REMARK    8  A    between atoms: C_30  and  C_31
REMARK                            x       y       z     vdW  Elec       q    Type
REMARK                         _______ _______ _______ _____ _____    ______ ____
ROOT
ATOM      1  O   UNL     1      -6.397 -10.266  20.130  0.00  0.00    -0.274 OA
ATOM      4  N   UNL     1      -5.747 -10.536  16.324  0.00  0.00    -0.296 NA
ATOM      5  N   UNL     1      -8.499 -11.118  18.664  0.00  0.00    -0.286 NA
ATOM      6  N   UNL     1      -4.828 -11.406  18.916  0.00  0.00    -0.312 N 
ATOM      8  C   UNL     1      -7.011 -11.178  16.747  0.00  0.00    +0.084 C 
ATOM      9  C   UNL     1      -7.168 -11.592  18.239  0.00  0.00    +0.161 C 
ATOM     10  C   UNL     1      -8.261 -10.306  16.523  0.00  0.00    +0.036 C 
ATOM     11  C   UNL     1      -9.287 -10.916  17.453  0.00  0.00    +0.087 C 
ATOM     12  C   UNL     1      -4.542 -11.400  16.456  0.00  0.00    +0.074 C 
ATOM     13  C   UNL     1      -6.123 -11.005  19.186  0.00  0.00    +0.232 C 
ATOM     14  C   UNL     1      -4.464 -12.209  17.766  0.00  0.00    +0.123 C 
ATOM     17  C   UNL     1      -5.857 -10.021  14.948  0.00  0.00    +0.105 C 
ATOM     32  H   UNL     1      -4.097 -11.114  19.556  0.00  0.00    +0.149 HD
ENDROOT
BRANCH  12  15
ATOM     15  C   UNL     1      -3.256 -10.553  16.356  0.00  0.00    +0.029 C 
BRANCH  15  18
ATOM     18  C   UNL     1      -2.168 -11.262  15.575  0.00  0.00    +0.097 C 
BRANCH  18  20
ATOM      2  O   UNL     1      -1.081  -9.408  14.580  0.00  0.00    -0.276 OA
ATOM      7  N   UNL     1      -2.081 -10.922  13.129  0.00  0.00    -0.301 N 
ATOM     20  C   UNL     1      -1.724 -10.443  14.389  0.00  0.00    +0.216 C 
ATOM     21  C   UNL     1      -2.846 -12.151  12.873  0.00  0.00    +0.110 C 
ATOM     22  C   UNL     1      -1.647 -10.206  11.927  0.00  0.00    +0.110 C 
ATOM     23  C   UNL     1      -4.055 -11.859  11.989  0.00  0.00    +0.050 C 
ATOM     24  C   UNL     1      -2.835  -9.880  11.029  0.00  0.00    +0.050 C 
ATOM     25  C   UNL     1      -3.645 -11.136  10.706  0.00  0.00    +0.118 C 
BRANCH  25   3
ATOM      3  O   UNL     1      -4.819 -10.782   9.985  0.00  0.00    -0.392 OA
ATOM     33  H   UNL     1      -5.574 -11.201  10.432  0.00  0.00    +0.210 HD
ENDBRANCH  25   3
ENDBRANCH  18  20
ENDBRANCH  15  18
ENDBRANCH  12  15
BRANCH   5  16
ATOM     16  C   UNL     1      -9.157 -12.016  19.605  0.00  0.00    +0.120 C 
BRANCH  16  19
ATOM     19  C   UNL     1     -10.550 -11.552  19.940  0.00  0.00    -0.033 A 
ATOM     26  C   UNL     1     -11.599 -12.471  19.988  0.00  0.00    +0.005 A 
ATOM     27  C   UNL     1     -10.793 -10.204  20.201  0.00  0.00    +0.005 A 
ATOM     28  C   UNL     1     -12.889 -12.040  20.296  0.00  0.00    +0.003 A 
ATOM     29  C   UNL     1     -12.083  -9.773  20.509  0.00  0.00    +0.003 A 
ATOM     30  C   UNL     1     -13.132 -10.692  20.557  0.00  0.00    -0.050 A 
ATOM     31  C   UNL     1     -14.512 -10.232  20.885  0.00  0.00    +0.044 C 
ENDBRANCH  16  19
ENDBRANCH   5  16
TORSDOF 6
ENDMDL
MODEL 3
REMARK VINA RESULT:      -6.9     22.996     26.731
REMARK  Name = 45361209
REMARK  8 active torsions:
REMARK  status: ('A' for Active; 'I' for Inactive)
REMARK    1  A    between atoms: O_3  and  C_25
REMARK    2  A    between atoms: N_4  and  C_17
REMARK    3  A    between atoms: N_5  and  C_16
REMARK    4  A    between atoms: C_12  and  C_15
REMARK    5  A    between atoms: C_15  and  C_18
REMARK    6  A    between atoms: C_16  and  C_19
REMARK    7  A    between atoms: C_18  and  C_20
REMARK    8  A    between atoms: C_30  and  C_31
REMARK                            x       y       z     vdW  Elec       q    Type
REMARK                         _______ _______ _______ _____ _____    ______ ____
ROOT
ATOM      1  O   UNL     1      -6.797  -8.793  12.142  0.00  0.00    -0.274 OA
ATOM      4  N   UNL     1      -3.247 -10.333  12.042  0.00  0.00    -0.296 NA
ATOM      5  N   UNL     1      -5.826  -9.279   9.670  0.00  0.00    -0.286 NA
ATOM      6  N   UNL     1      -5.915 -10.684  13.081  0.00  0.00    -0.312 N 
ATOM      8  C   UNL     1      -3.937 -10.371  10.734  0.00  0.00    +0.084 C 
ATOM      9  C   UNL     1      -5.490 -10.268  10.712  0.00  0.00    +0.161 C 
ATOM     10  C   UNL     1      -3.527  -9.235   9.777  0.00  0.00    +0.036 C 
ATOM     11  C   UNL     1      -4.669  -9.180   8.786  0.00  0.00    +0.087 C 
ATOM     12  C   UNL     1      -3.571 -11.473  12.944  0.00  0.00    +0.074 C 
ATOM     13  C   UNL     1      -6.126  -9.817  12.026  0.00  0.00    +0.232 C 
ATOM     14  C   UNL     1      -5.064 -11.854  12.997  0.00  0.00    +0.123 C 
ATOM     17  C   UNL     1      -1.789 -10.224  11.861  0.00  0.00    +0.105 C 
ATOM     32  H   UNL     1      -6.377 -10.483  13.962  0.00  0.00    +0.149 HD
ENDROOT
BRANCH  12  15
ATOM     15  C   UNL     1      -3.119 -11.165  14.387  0.00  0.00    +0.029 C 
BRANCH  15  18
ATOM     18  C   UNL     1      -3.783 -12.081  15.397  0.00  0.00    +0.097 C 
BRANCH  18  20
ATOM      2  O   UNL     1      -2.849 -10.970  17.269  0.00  0.00    -0.276 OA
ATOM      7  N   UNL     1      -5.134 -11.382  17.343  0.00  0.00    -0.301 N 
ATOM     20  C   UNL     1      -3.872 -11.426  16.752  0.00  0.00    +0.216 C 
ATOM     21  C   UNL     1      -6.368 -11.916  16.751  0.00  0.00    +0.110 C 
ATOM     22  C   UNL     1      -5.310 -10.721  18.639  0.00  0.00    +0.110 C 
ATOM     23  C   UNL     1      -7.063 -12.869  17.720  0.00  0.00    +0.050 C 
ATOM     24  C   UNL     1      -5.983 -11.654  19.640  0.00  0.00    +0.050 C 
ATOM     25  C   UNL     1      -7.293 -12.210  19.080  0.00  0.00    +0.118 C 
BRANCH  25   3
ATOM      3  O   UNL     1      -7.826 -13.181  19.975  0.00  0.00    -0.392 OA
ATOM     33  H   UNL     1      -8.708 -13.426  19.647  0.00  0.00    +0.210 HD
ENDBRANCH  25   3
ENDBRANCH  18  20
ENDBRANCH  15  18
ENDBRANCH  12  15
BRANCH   5  16
ATOM     16  C   UNL     1      -7.047  -9.601   8.942  0.00  0.00    +0.120 C 
BRANCH  16  19
ATOM     19  C   UNL     1      -7.982  -8.423   8.868  0.00  0.00    -0.033 A 
ATOM     26  C   UNL     1      -9.265  -8.515   9.409  0.00  0.00    +0.005 A 
ATOM     27  C   UNL     1      -7.567  -7.240   8.257  0.00  0.00    +0.005 A 
ATOM     28  C   UNL     1     -10.131  -7.425   9.338  0.00  0.00    +0.003 A 
ATOM     29  C   UNL     1      -8.434  -6.150   8.186  0.00  0.00    +0.003 A 
ATOM     30  C   UNL     1      -9.716  -6.242   8.727  0.00  0.00    -0.050 A 
ATOM     31  C   UNL     1     -10.644  -5.077   8.650  0.00  0.00    +0.044 C 
ENDBRANCH  16  19
ENDBRANCH   5  16
TORSDOF 6
ENDMDL
MODEL 4
REMARK VINA RESULT:      -6.9     22.732     26.393
REMARK  Name = 45361209
REMARK  8 active torsions:
REMARK  status: ('A' for Active; 'I' for Inactive)
REMARK    1  A    between atoms: O_3  and  C_25
REMARK    2  A    between atoms: N_4  and  C_17
REMARK    3  A    between atoms: N_5  and  C_16
REMARK    4  A    between atoms: C_12  and  C_15
REMARK    5  A    between atoms: C_15  and  C_18
REMARK    6  A    between atoms: C_16  and  C_19
REMARK    7  A    between atoms: C_18  and  C_20
REMARK    8  A    between atoms: C_30  and  C_31
REMARK                            x       y       z     vdW  Elec       q    Type
REMARK                         _______ _______ _______ _____ _____    ______ ____
ROOT
ATOM      1  O   UNL     1      -5.532  -9.924  14.823  0.00  0.00    -0.274 OA
ATOM      4  N   UNL     1      -3.546 -13.233  14.524  0.00  0.00    -0.296 NA
ATOM      5  N   UNL     1      -6.024 -11.737  16.763  0.00  0.00    -0.286 NA
ATOM      6  N   UNL     1      -3.290 -10.365  14.698  0.00  0.00    -0.312 N 
ATOM      8  C   UNL     1      -4.231 -13.079  15.827  0.00  0.00    +0.084 C 
ATOM      9  C   UNL     1      -4.630 -11.646  16.288  0.00  0.00    +0.161 C 
ATOM     10  C   UNL     1      -5.571 -13.832  15.923  0.00  0.00    +0.036 C 
ATOM     11  C   UNL     1      -6.282 -13.140  17.066  0.00  0.00    +0.087 C 
ATOM     12  C   UNL     1      -2.210 -12.580  14.448  0.00  0.00    +0.074 C 
ATOM     13  C   UNL     1      -4.560 -10.575  15.202  0.00  0.00    +0.232 C 
ATOM     14  C   UNL     1      -2.141 -11.169  15.065  0.00  0.00    +0.123 C 
ATOM     17  C   UNL     1      -3.441 -14.655  14.154  0.00  0.00    +0.105 C 
ATOM     32  H   UNL     1      -3.162  -9.612  14.030  0.00  0.00    +0.149 HD
ENDROOT
BRANCH  12  15
ATOM     15  C   UNL     1      -1.748 -12.468  12.980  0.00  0.00    +0.029 C 
BRANCH  15  18
ATOM     18  C   UNL     1      -2.901 -12.170  12.042  0.00  0.00    +0.097 C 
BRANCH  18  20
ATOM      2  O   UNL     1      -1.807 -10.091  11.738  0.00  0.00    -0.276 OA
ATOM      7  N   UNL     1      -3.707 -10.458  10.454  0.00  0.00    -0.301 N 
ATOM     20  C   UNL     1      -2.749 -10.813  11.402  0.00  0.00    +0.216 C 
ATOM     21  C   UNL     1      -4.838 -11.297  10.034  0.00  0.00    +0.110 C 
ATOM     22  C   UNL     1      -3.601  -9.175   9.755  0.00  0.00    +0.110 C 
ATOM     23  C   UNL     1      -6.154 -10.534  10.166  0.00  0.00    +0.050 C 
ATOM     24  C   UNL     1      -4.893  -8.376   9.883  0.00  0.00    +0.050 C 
ATOM     25  C   UNL     1      -6.098  -9.198   9.426  0.00  0.00    +0.118 C 
BRANCH  25   3
ATOM      3  O   UNL     1      -7.299  -8.480   9.686  0.00  0.00    -0.392 OA
ATOM     33  H   UNL     1      -8.042  -9.042   9.407  0.00  0.00    +0.210 HD
ENDBRANCH  25   3
ENDBRANCH  18  20
ENDBRANCH  15  18
ENDBRANCH  12  15
BRANCH   5  16
ATOM     16  C   UNL     1      -6.303 -10.869  17.900  0.00  0.00    +0.120 C 
BRANCH  16  19
ATOM     19  C   UNL     1      -7.697 -10.300  17.841  0.00  0.00    -0.033 A 
ATOM     26  C   UNL     1      -7.955  -9.167  17.069  0.00  0.00    +0.005 A 
ATOM     27  C   UNL     1      -8.728 -10.904  18.560  0.00  0.00    +0.005 A 
ATOM     28  C   UNL     1      -9.244  -8.638  17.017  0.00  0.00    +0.003 A 
ATOM     29  C   UNL     1     -10.018 -10.375  18.507  0.00  0.00    +0.003 A 
ATOM     30  C   UNL     1     -10.276  -9.242  17.736  0.00  0.00    -0.050 A 
ATOM     31  C   UNL     1     -11.654  -8.676  17.680  0.00  0.00    +0.044 C 
ENDBRANCH  16  19
ENDBRANCH   5  16
TORSDOF 6
ENDMDL
MODEL 5
REMARK VINA RESULT:      -6.9     24.309     27.934
REMARK  Name = 45361209
REMARK  8 active torsions:
REMARK  status: ('A' for Active; 'I' for Inactive)
REMARK    1  A    between atoms: O_3  and  C_25
REMARK    2  A    between atoms: N_4  and  C_17
REMARK    3  A    between atoms: N_5  and  C_16
REMARK    4  A    between atoms: C_12  and  C_15
REMARK    5  A    between atoms: C_15  and  C_18
REMARK    6  A    between atoms: C_16  and  C_19
REMARK    7  A    between atoms: C_18  and  C_20
REMARK    8  A    between atoms: C_30  and  C_31
REMARK                            x       y       z     vdW  Elec       q    Type
REMARK                         _______ _______ _______ _____ _____    ______ ____
ROOT
ATOM      1  O   UNL     1      -1.146 -11.004  15.484  0.00  0.00    -0.274 OA
ATOM      4  N   UNL     1      -4.443 -12.795  16.437  0.00  0.00    -0.296 NA
ATOM      5  N   UNL     1      -2.324 -12.382  13.483  0.00  0.00    -0.286 NA
ATOM      6  N   UNL     1      -3.106 -10.239  16.383  0.00  0.00    -0.312 N 
ATOM      8  C   UNL     1      -4.198 -12.761  14.978  0.00  0.00    +0.084 C 
ATOM      9  C   UNL     1      -3.226 -11.682  14.416  0.00  0.00    +0.161 C 
ATOM     10  C   UNL     1      -3.594 -14.061  14.414  0.00  0.00    +0.036 C 
ATOM     11  C   UNL     1      -2.985 -13.624  13.099  0.00  0.00    +0.087 C 
ATOM     12  C   UNL     1      -5.104 -11.577  16.980  0.00  0.00    +0.074 C 
ATOM     13  C   UNL     1      -2.375 -10.969  15.465  0.00  0.00    +0.232 C 
ATOM     14  C   UNL     1      -4.555 -10.243  16.436  0.00  0.00    +0.123 C 
ATOM     17  C   UNL     1      -5.205 -13.999  16.810  0.00  0.00    +0.105 C 
ATOM     32  H   UNL     1      -2.598  -9.679  17.059  0.00  0.00    +0.149 HD
ENDROOT
BRANCH  12  15
ATOM     15  C   UNL     1      -4.981 -11.536  18.518  0.00  0.00    +0.029 C 
BRANCH  15  18
ATOM     18  C   UNL     1      -5.888 -10.488  19.132  0.00  0.00    +0.097 C 
BRANCH  18  20
ATOM      2  O   UNL     1      -7.569 -11.901  20.021  0.00  0.00    -0.276 OA
ATOM      7  N   UNL     1      -8.249 -10.367  18.414  0.00  0.00    -0.301 N 
ATOM     20  C   UNL     1      -7.308 -10.987  19.236  0.00  0.00    +0.216 C 
ATOM     21  C   UNL     1      -7.966  -9.277  17.470  0.00  0.00    +0.110 C 
ATOM     22  C   UNL     1      -9.657 -10.766  18.490  0.00  0.00    +0.110 C 
ATOM     23  C   UNL     1      -8.473  -9.627  16.074  0.00  0.00    +0.050 C 
ATOM     24  C   UNL     1     -10.191 -11.143  17.113  0.00  0.00    +0.050 C 
ATOM     25  C   UNL     1      -9.949 -10.022  16.101  0.00  0.00    +0.118 C 
BRANCH  25   3
ATOM      3  O   UNL     1     -10.331 -10.456  14.800  0.00  0.00    -0.392 OA
ATOM     33  H   UNL     1      -9.580 -10.291  14.205  0.00  0.00    +0.210 HD
ENDBRANCH  25   3
ENDBRANCH  18  20
ENDBRANCH  15  18
ENDBRANCH  12  15
BRANCH   5  16
ATOM     16  C   UNL     1      -1.953 -11.577  12.326  0.00  0.00    +0.120 C 
BRANCH  16  19
ATOM     19  C   UNL     1      -3.154 -11.194  11.502  0.00  0.00    -0.033 A 
ATOM     26  C   UNL     1      -3.878 -10.044  11.819  0.00  0.00    +0.005 A 
ATOM     27  C   UNL     1      -3.545 -11.989  10.425  0.00  0.00    +0.005 A 
ATOM     28  C   UNL     1      -4.992  -9.690  11.058  0.00  0.00    +0.003 A 
ATOM     29  C   UNL     1      -4.659 -11.635   9.665  0.00  0.00    +0.003 A 
ATOM     30  C   UNL     1      -5.383 -10.485   9.981  0.00  0.00    -0.050 A 
ATOM     31  C   UNL     1      -6.575 -10.107   9.169  0.00  0.00    +0.044 C 
ENDBRANCH  16  19
ENDBRANCH   5  16
TORSDOF 6
ENDMDL
MODEL 6
REMARK VINA RESULT:      -6.9     23.657     28.137
REMARK  Name = 45361209
REMARK  8 active torsions:
REMARK  status: ('A' for Active; 'I' for Inactive)
REMARK    1  A    between atoms: O_3  and  C_25
REMARK    2  A    between atoms: N_4  and  C_17
REMARK    3  A    between atoms: N_5  and  C_16
REMARK    4  A    between atoms: C_12  and  C_15
REMARK    5  A    between atoms: C_15  and  C_18
REMARK    6  A    between atoms: C_16  and  C_19
REMARK    7  A    between atoms: C_18  and  C_20
REMARK    8  A    between atoms: C_30  and  C_31
REMARK                            x       y       z     vdW  Elec       q    Type
REMARK                         _______ _______ _______ _____ _____    ______ ____
ROOT
ATOM      1  O   UNL     1      -1.976 -11.012  16.397  0.00  0.00    -0.274 OA
ATOM      4  N   UNL     1      -5.613 -12.338  16.328  0.00  0.00    -0.296 NA
ATOM      5  N   UNL     1      -2.472 -12.910  14.540  0.00  0.00    -0.286 NA
ATOM      6  N   UNL     1      -3.992  -9.958  16.152  0.00  0.00    -0.312 N 
ATOM      8  C   UNL     1      -4.815 -12.761  15.156  0.00  0.00    +0.084 C 
ATOM      9  C   UNL     1      -3.550 -11.933  14.784  0.00  0.00    +0.161 C 
ATOM     10  C   UNL     1      -4.243 -14.186  15.269  0.00  0.00    +0.036 C 
ATOM     11  C   UNL     1      -3.110 -14.192  14.265  0.00  0.00    +0.087 C 
ATOM     12  C   UNL     1      -6.241 -10.995  16.195  0.00  0.00    +0.074 C 
ATOM     13  C   UNL     1      -3.080 -10.954  15.857  0.00  0.00    +0.232 C 
ATOM     14  C   UNL     1      -5.329  -9.908  15.593  0.00  0.00    +0.123 C 
ATOM     17  C   UNL     1      -6.632 -13.349  16.658  0.00  0.00    +0.105 C 
ATOM     32  H   UNL     1      -3.709  -9.230  16.799  0.00  0.00    +0.149 HD
ENDROOT
BRANCH  12  15
ATOM     15  C   UNL     1      -6.724 -10.486  17.570  0.00  0.00    +0.029 C 
BRANCH  15  18
ATOM     18  C   UNL     1      -7.765  -9.392  17.437  0.00  0.00    +0.097 C 
BRANCH  18  20
ATOM      2  O   UNL     1      -9.276 -11.072  18.150  0.00  0.00    -0.276 OA
ATOM      7  N   UNL     1     -10.202  -9.015  17.592  0.00  0.00    -0.301 N 
ATOM     20  C   UNL     1      -9.144  -9.909  17.761  0.00  0.00    +0.216 C 
ATOM     21  C   UNL     1     -10.074  -7.626  17.131  0.00  0.00    +0.110 C 
ATOM     22  C   UNL     1     -11.566  -9.428  17.931  0.00  0.00    +0.110 C 
ATOM     23  C   UNL     1     -10.995  -7.365  15.942  0.00  0.00    +0.050 C 
ATOM     24  C   UNL     1     -12.511  -9.201  16.756  0.00  0.00    +0.050 C 
ATOM     25  C   UNL     1     -12.438  -7.756  16.261  0.00  0.00    +0.118 C 
BRANCH  25   3
ATOM      3  O   UNL     1     -13.223  -7.609  15.082  0.00  0.00    -0.392 OA
ATOM     33  H   UNL     1     -14.157  -7.606  15.352  0.00  0.00    +0.210 HD
ENDBRANCH  25   3
ENDBRANCH  18  20
ENDBRANCH  15  18
ENDBRANCH  12  15
BRANCH   5  16
ATOM     16  C   UNL     1      -1.562 -12.510  13.474  0.00  0.00    +0.120 C 
BRANCH  16  19
ATOM     19  C   UNL     1      -2.287 -11.823  12.346  0.00  0.00    -0.033 A 
ATOM     26  C   UNL     1      -3.163 -12.549  11.537  0.00  0.00    +0.005 A 
ATOM     27  C   UNL     1      -2.082 -10.465  12.109  0.00  0.00    +0.005 A 
ATOM     28  C   UNL     1      -3.832 -11.914  10.492  0.00  0.00    +0.003 A 
ATOM     29  C   UNL     1      -2.752  -9.830  11.063  0.00  0.00    +0.003 A 
ATOM     30  C   UNL     1      -3.627 -10.555  10.254  0.00  0.00    -0.050 A 
ATOM     31  C   UNL     1      -4.343  -9.877   9.135  0.00  0.00    +0.044 C 
ENDBRANCH  16  19
ENDBRANCH   5  16
TORSDOF 6
ENDMDL
MODEL 7
REMARK VINA RESULT:      -6.8     24.408     28.773
REMARK  Name = 45361209
REMARK  8 active torsions:
REMARK  status: ('A' for Active; 'I' for Inactive)
REMARK    1  A    between atoms: O_3  and  C_25
REMARK    2  A    between atoms: N_4  and  C_17
REMARK    3  A    between atoms: N_5  and  C_16
REMARK    4  A    between atoms: C_12  and  C_15
REMARK    5  A    between atoms: C_15  and  C_18
REMARK    6  A    between atoms: C_16  and  C_19
REMARK    7  A    between atoms: C_18  and  C_20
REMARK    8  A    between atoms: C_30  and  C_31
REMARK                            x       y       z     vdW  Elec       q    Type
REMARK                         _______ _______ _______ _____ _____    ______ ____
ROOT
ATOM      1  O   UNL     1      -7.835  -8.838  16.945  0.00  0.00    -0.274 OA
ATOM      4  N   UNL     1      -7.406 -12.588  17.806  0.00  0.00    -0.296 NA
ATOM      5  N   UNL     1     -10.130 -10.170  17.452  0.00  0.00    -0.286 NA
ATOM      6  N   UNL     1      -6.617  -9.915  18.554  0.00  0.00    -0.312 N 
ATOM      8  C   UNL     1      -8.768 -12.078  18.082  0.00  0.00    +0.084 C 
ATOM      9  C   UNL     1      -8.960 -10.544  18.269  0.00  0.00    +0.161 C 
ATOM     10  C   UNL     1      -9.791 -12.396  16.976  0.00  0.00    +0.036 C 
ATOM     11  C   UNL     1     -10.895 -11.389  17.217  0.00  0.00    +0.087 C 
ATOM     12  C   UNL     1      -6.428 -12.360  18.906  0.00  0.00    +0.074 C 
ATOM     13  C   UNL     1      -7.774  -9.686  17.834  0.00  0.00    +0.232 C 
ATOM     14  C   UNL     1      -6.489 -10.961  19.550  0.00  0.00    +0.123 C 
ATOM     17  C   UNL     1      -7.446 -14.016  17.446  0.00  0.00    +0.105 C 
ATOM     32  H   UNL     1      -5.814  -9.324  18.367  0.00  0.00    +0.149 HD
ENDROOT
BRANCH  12  15
ATOM     15  C   UNL     1      -4.987 -12.575  18.398  0.00  0.00    +0.029 C 
BRANCH  15  18
ATOM     18  C   UNL     1      -4.894 -12.469  16.889  0.00  0.00    +0.097 C 
BRANCH  18  20
ATOM      2  O   UNL     1      -3.959 -10.303  17.104  0.00  0.00    -0.276 OA
ATOM      7  N   UNL     1      -3.130 -11.623  15.381  0.00  0.00    -0.301 N 
ATOM     20  C   UNL     1      -3.956 -11.364  16.475  0.00  0.00    +0.216 C 
ATOM     21  C   UNL     1      -3.105 -12.875  14.613  0.00  0.00    +0.110 C 
ATOM     22  C   UNL     1      -2.159 -10.615  14.947  0.00  0.00    +0.110 C 
ATOM     23  C   UNL     1      -3.288 -12.599  13.123  0.00  0.00    +0.050 C 
ATOM     24  C   UNL     1      -2.327 -10.299  13.465  0.00  0.00    +0.050 C 
ATOM     25  C   UNL     1      -2.274 -11.572  12.620  0.00  0.00    +0.118 C 
BRANCH  25   3
ATOM      3  O   UNL     1      -2.571 -11.263  11.262  0.00  0.00    -0.392 OA
ATOM     33  H   UNL     1      -1.986 -11.804  10.705  0.00  0.00    +0.210 HD
ENDBRANCH  25   3
ENDBRANCH  18  20
ENDBRANCH  15  18
ENDBRANCH  12  15
BRANCH   5  16
ATOM     16  C   UNL     1     -10.941  -9.120  18.054  0.00  0.00    +0.120 C 
BRANCH  16  19
ATOM     19  C   UNL     1     -11.426  -8.128  17.029  0.00  0.00    -0.033 A 
ATOM     26  C   UNL     1     -12.687  -8.281  16.452  0.00  0.00    +0.005 A 
ATOM     27  C   UNL     1     -10.613  -7.060  16.653  0.00  0.00    +0.005 A 
ATOM     28  C   UNL     1     -13.134  -7.365  15.501  0.00  0.00    +0.003 A 
ATOM     29  C   UNL     1     -11.060  -6.143  15.701  0.00  0.00    +0.003 A 
ATOM     30  C   UNL     1     -12.321  -6.296  15.125  0.00  0.00    -0.050 A 
ATOM     31  C   UNL     1     -12.799  -5.317  14.107  0.00  0.00    +0.044 C 
ENDBRANCH  16  19
ENDBRANCH   5  16
TORSDOF 6
ENDMDL
MODEL 8
REMARK VINA RESULT:      -6.7      1.964      9.563
REMARK  Name = 45361209
REMARK  8 active torsions:
REMARK  status: ('A' for Active; 'I' for Inactive)
REMARK    1  A    between atoms: O_3  and  C_25
REMARK    2  A    between atoms: N_4  and  C_17
REMARK    3  A    between atoms: N_5  and  C_16
REMARK    4  A    between atoms: C_12  and  C_15
REMARK    5  A    between atoms: C_15  and  C_18
REMARK    6  A    between atoms: C_16  and  C_19
REMARK    7  A    between atoms: C_18  and  C_20
REMARK    8  A    between atoms: C_30  and  C_31
REMARK                            x       y       z     vdW  Elec       q    Type
REMARK                         _______ _______ _______ _____ _____    ______ ____
ROOT
ATOM      1  O   UNL     1      10.934   5.548  -1.378  0.00  0.00    -0.274 OA
ATOM      4  N   UNL     1      12.651   6.291   2.011  0.00  0.00    -0.296 NA
ATOM      5  N   UNL     1      12.912   3.841  -0.695  0.00  0.00    -0.286 NA
ATOM      6  N   UNL     1      10.112   5.766   0.746  0.00  0.00    -0.312 N 
ATOM      8  C   UNL     1      13.008   4.968   1.453  0.00  0.00    +0.084 C 
ATOM      9  C   UNL     1      12.054   4.325   0.404  0.00  0.00    +0.161 C 
ATOM     10  C   UNL     1      14.360   4.944   0.715  0.00  0.00    +0.036 C 
ATOM     11  C   UNL     1      14.262   3.711  -0.158  0.00  0.00    +0.087 C 
ATOM     12  C   UNL     1      11.388   6.309   2.798  0.00  0.00    +0.074 C 
ATOM     13  C   UNL     1      11.008   5.270  -0.183  0.00  0.00    +0.232 C 
ATOM     14  C   UNL     1      10.220   5.522   2.171  0.00  0.00    +0.123 C 
ATOM     17  C   UNL     1      13.760   6.837   2.812  0.00  0.00    +0.105 C 
ATOM     32  H   UNL     1       9.344   6.337   0.408  0.00  0.00    +0.149 HD
ENDROOT
BRANCH  12  15
ATOM     15  C   UNL     1      10.907   7.759   3.015  0.00  0.00    +0.029 C 
BRANCH  15  18
ATOM     18  C   UNL     1       9.515   7.811   3.615  0.00  0.00    +0.097 C 
BRANCH  18  20
ATOM      2  O   UNL     1       9.889   9.268   5.445  0.00  0.00    -0.276 OA
ATOM      7  N   UNL     1       9.242   7.098   5.965  0.00  0.00    -0.301 N 
ATOM     20  C   UNL     1       9.567   8.132   5.088  0.00  0.00    +0.216 C 
ATOM     21  C   UNL     1       8.856   5.737   5.567  0.00  0.00    +0.110 C 
ATOM     22  C   UNL     1       9.225   7.345   7.409  0.00  0.00    +0.110 C 
ATOM     23  C   UNL     1       9.727   4.701   6.272  0.00  0.00    +0.050 C 
ATOM     24  C   UNL     1      10.104   6.338   8.144  0.00  0.00    +0.050 C 
ATOM     25  C   UNL     1       9.716   4.903   7.787  0.00  0.00    +0.118 C 
BRANCH  25   3
ATOM      3  O   UNL     1      10.638   3.993   8.377  0.00  0.00    -0.392 OA
ATOM     33  H   UNL     1      11.494   4.118   7.935  0.00  0.00    +0.210 HD
ENDBRANCH  25   3
ENDBRANCH  18  20
ENDBRANCH  15  18
ENDBRANCH  12  15
BRANCH   5  16
ATOM     16  C   UNL     1      12.437   2.600  -1.293  0.00  0.00    +0.120 C 
BRANCH  16  19
ATOM     19  C   UNL     1      11.978   2.804  -2.714  0.00  0.00    -0.033 A 
ATOM     26  C   UNL     1      10.648   2.559  -3.058  0.00  0.00    +0.005 A 
ATOM     27  C   UNL     1      12.882   3.233  -3.685  0.00  0.00    +0.005 A 
ATOM     28  C   UNL     1      10.224   2.745  -4.373  0.00  0.00    +0.003 A 
ATOM     29  C   UNL     1      12.456   3.419  -5.000  0.00  0.00    +0.003 A 
ATOM     30  C   UNL     1      11.127   3.174  -5.344  0.00  0.00    -0.050 A 
ATOM     31  C   UNL     1      10.673   3.371  -6.751  0.00  0.00    +0.044 C 
ENDBRANCH  16  19
ENDBRANCH   5  16
TORSDOF 6
ENDMDL
MODEL 9
REMARK VINA RESULT:      -6.7     22.801     25.796
REMARK  Name = 45361209
REMARK  8 active torsions:
REMARK  status: ('A' for Active; 'I' for Inactive)
REMARK    1  A    between atoms: O_3  and  C_25
REMARK    2  A    between atoms: N_4  and  C_17
REMARK    3  A    between atoms: N_5  and  C_16
REMARK    4  A    between atoms: C_12  and  C_15
REMARK    5  A    between atoms: C_15  and  C_18
REMARK    6  A    between atoms: C_16  and  C_19
REMARK    7  A    between atoms: C_18  and  C_20
REMARK    8  A    between atoms: C_30  and  C_31
REMARK                            x       y       z     vdW  Elec       q    Type
REMARK                         _______ _______ _______ _____ _____    ______ ____
ROOT
ATOM      1  O   UNL     1      -6.787  -8.071   9.380  0.00  0.00    -0.274 OA
ATOM      4  N   UNL     1      -9.811  -9.001   7.149  0.00  0.00    -0.296 NA
ATOM      5  N   UNL     1      -6.517 -10.362   7.977  0.00  0.00    -0.286 NA
ATOM      6  N   UNL     1      -7.872  -6.940   7.713  0.00  0.00    -0.312 N 
ATOM      8  C   UNL     1      -8.608  -9.817   6.871  0.00  0.00    +0.084 C 
ATOM      9  C   UNL     1      -7.219  -9.257   7.298  0.00  0.00    +0.161 C 
ATOM     10  C   UNL     1      -8.619 -11.199   7.551  0.00  0.00    +0.036 C 
ATOM     11  C   UNL     1      -7.160 -11.601   7.553  0.00  0.00    +0.087 C 
ATOM     12  C   UNL     1      -9.852  -7.697   6.431  0.00  0.00    +0.074 C 
ATOM     13  C   UNL     1      -7.268  -8.062   8.248  0.00  0.00    +0.232 C 
ATOM     14  C   UNL     1      -8.519  -6.922   6.416  0.00  0.00    +0.123 C 
ATOM     17  C   UNL     1     -11.038  -9.771   6.880  0.00  0.00    +0.105 C 
ATOM     32  H   UNL     1      -7.868  -6.088   8.265  0.00  0.00    +0.149 HD
ENDROOT
BRANCH  12  15
ATOM     15  C   UNL     1     -10.920  -6.772   7.051  0.00  0.00    +0.029 C 
BRANCH  15  18
ATOM     18  C   UNL     1     -10.854  -6.765   8.565  0.00  0.00    +0.097 C 
BRANCH  18  20
ATOM      2  O   UNL     1      -9.785  -4.669   8.838  0.00  0.00    -0.276 OA
ATOM      7  N   UNL     1     -11.847  -4.922   9.878  0.00  0.00    -0.301 N 
ATOM     20  C   UNL     1     -10.773  -5.357   9.101  0.00  0.00    +0.216 C 
ATOM     21  C   UNL     1     -13.036  -5.720  10.206  0.00  0.00    +0.110 C 
ATOM     22  C   UNL     1     -11.863  -3.552  10.396  0.00  0.00    +0.110 C 
ATOM     23  C   UNL     1     -13.267  -5.749  11.715  0.00  0.00    +0.050 C 
ATOM     24  C   UNL     1     -12.072  -3.544  11.907  0.00  0.00    +0.050 C 
ATOM     25  C   UNL     1     -13.320  -4.336  12.296  0.00  0.00    +0.118 C 
BRANCH  25   3
ATOM      3  O   UNL     1     -13.412  -4.427  13.713  0.00  0.00    -0.392 OA
ATOM     33  H   UNL     1     -12.540  -4.699  14.045  0.00  0.00    +0.210 HD
ENDBRANCH  25   3
ENDBRANCH  18  20
ENDBRANCH  15  18
ENDBRANCH  12  15
BRANCH   5  16
ATOM     16  C   UNL     1      -5.081 -10.374   7.725  0.00  0.00    +0.120 C 
BRANCH  16  19
ATOM     19  C   UNL     1      -4.289 -10.454   9.003  0.00  0.00    -0.033 A 
ATOM     26  C   UNL     1      -4.140 -11.679   9.656  0.00  0.00    +0.005 A 
ATOM     27  C   UNL     1      -3.707  -9.305   9.536  0.00  0.00    +0.005 A 
ATOM     28  C   UNL     1      -3.409 -11.752  10.841  0.00  0.00    +0.003 A 
ATOM     29  C   UNL     1      -2.975  -9.378  10.722  0.00  0.00    +0.003 A 
ATOM     30  C   UNL     1      -2.826 -10.602  11.374  0.00  0.00    -0.050 A 
ATOM     31  C   UNL     1      -2.045 -10.681  12.642  0.00  0.00    +0.044 C 
ENDBRANCH  16  19
ENDBRANCH   5  16
TORSDOF 6
ENDMDL
MODEL 10
REMARK VINA RESULT:      -6.7     27.113     32.333
REMARK  Name = 45361209
REMARK  8 active torsions:
REMARK  status: ('A' for Active; 'I' for Inactive)
REMARK    1  A    between atoms: O_3  and  C_25
REMARK    2  A    between atoms: N_4  and  C_17
REMARK    3  A    between atoms: N_5  and  C_16
REMARK    4  A    between atoms: C_12  and  C_15
REMARK    5  A    between atoms: C_15  and  C_18
REMARK    6  A    between atoms: C_16  and  C_19
REMARK    7  A    between atoms: C_18  and  C_20
REMARK    8  A    between atoms: C_30  and  C_31
REMARK                            x       y       z     vdW  Elec       q    Type
REMARK                         _______ _______ _______ _____ _____    ______ ____
ROOT
ATOM      1  O   UNL     1      -6.693 -13.493  16.669  0.00  0.00    -0.274 OA
ATOM      4  N   UNL     1      -9.130 -11.073  18.457  0.00  0.00    -0.296 NA
ATOM      5  N   UNL     1      -5.824 -10.946  16.894  0.00  0.00    -0.286 NA
ATOM      6  N   UNL     1      -7.680 -13.553  18.733  0.00  0.00    -0.312 N 
ATOM      8  C   UNL     1      -7.778 -10.504  18.265  0.00  0.00    +0.084 C 
ATOM      9  C   UNL     1      -6.588 -11.482  18.037  0.00  0.00    +0.161 C 
ATOM     10  C   UNL     1      -7.661  -9.568  17.047  0.00  0.00    +0.036 C 
ATOM     11  C   UNL     1      -6.174  -9.536  16.769  0.00  0.00    +0.087 C 
ATOM     12  C   UNL     1      -9.278 -11.912  19.678  0.00  0.00    +0.074 C 
ATOM     13  C   UNL     1      -6.986 -12.921  17.718  0.00  0.00    +0.232 C 
ATOM     14  C   UNL     1      -8.110 -12.883  19.945  0.00  0.00    +0.123 C 
ATOM     17  C   UNL     1     -10.152 -10.012  18.440  0.00  0.00    +0.105 C 
ATOM     32  H   UNL     1      -7.906 -14.535  18.615  0.00  0.00    +0.149 HD
ENDROOT
BRANCH  12  15
ATOM     15  C   UNL     1     -10.570 -12.752  19.604  0.00  0.00    +0.029 C 
BRANCH  15  18
ATOM     18  C   UNL     1     -11.085 -13.125  20.980  0.00  0.00    +0.097 C 
BRANCH  18  20
ATOM      2  O   UNL     1     -12.732 -11.455  20.653  0.00  0.00    -0.276 OA
ATOM      7  N   UNL     1     -13.232 -13.113  22.201  0.00  0.00    -0.301 N 
ATOM     20  C   UNL     1     -12.421 -12.484  21.257  0.00  0.00    +0.216 C 
ATOM     21  C   UNL     1     -12.888 -14.338  22.935  0.00  0.00    +0.110 C 
ATOM     22  C   UNL     1     -14.565 -12.576  22.491  0.00  0.00    +0.110 C 
ATOM     23  C   UNL     1     -13.037 -14.126  24.439  0.00  0.00    +0.050 C 
ATOM     24  C   UNL     1     -14.740 -12.331  23.986  0.00  0.00    +0.050 C 
ATOM     25  C   UNL     1     -14.425 -13.592  24.791  0.00  0.00    +0.118 C 
BRANCH  25   3
ATOM      3  O   UNL     1     -14.462 -13.297  26.183  0.00  0.00    -0.392 OA
ATOM     33  H   UNL     1     -15.391 -13.349  26.468  0.00  0.00    +0.210 HD
ENDBRANCH  25   3
ENDBRANCH  18  20
ENDBRANCH  15  18
ENDBRANCH  12  15
BRANCH   5  16
ATOM     16  C   UNL     1      -4.385 -11.146  17.018  0.00  0.00    +0.120 C 
BRANCH  16  19
ATOM     19  C   UNL     1      -3.674 -10.926  15.709  0.00  0.00    -0.033 A 
ATOM     26  C   UNL     1      -2.348 -10.493  15.699  0.00  0.00    +0.005 A 
ATOM     27  C   UNL     1      -4.342 -11.154  14.506  0.00  0.00    +0.005 A 
ATOM     28  C   UNL     1      -1.691 -10.287  14.487  0.00  0.00    +0.003 A 
ATOM     29  C   UNL     1      -3.684 -10.948  13.293  0.00  0.00    +0.003 A 
ATOM     30  C   UNL     1      -2.359 -10.514  13.284  0.00  0.00    -0.050 A 
ATOM     31  C   UNL     1      -1.655 -10.293  11.987  0.00  0.00    +0.044 C 
ENDBRANCH  16  19
ENDBRANCH   5  16
TORSDOF 6
ENDMDL
