REMARK  Name = 40587816
REMARK  4 active torsions:
REMARK  status: ('A' for Active; 'I' for Inactive)
REMARK    1  A    between atoms: S_1  and  C_27
REMARK    2  A    between atoms: S_1  and  C_31
REMARK    3  A    between atoms: N_6  and  C_20
REMARK    4  A    between atoms: C_17  and  C_19
REMARK                            x       y       z     vdW  Elec       q    Type
REMARK                         _______ _______ _______ _____ _____    ______ ____
ROOT
ATOM      2  O   UNL     1      -1.107  -0.699   1.886  0.00  0.00    -0.267 OA
ATOM      3  O   UNL     1       2.991   0.474  -2.055  0.00  0.00    -0.252 OA
ATOM      4  N   UNL     1       3.404  -0.978  -0.301  0.00  0.00    -0.284 N 
ATOM      5  N   UNL     1       0.524  -1.899   0.731  0.00  0.00    -0.311 N 
ATOM      6  N   UNL     1       3.458   1.357   0.038  0.00  0.00    -0.269 N 
ATOM      7  C   UNL     1       2.842  -2.366   1.709  0.00  0.00    +0.027 C 
ATOM      8  C   UNL     1       2.280  -3.187  -0.537  0.00  0.00    +0.054 C 
ATOM      9  C   UNL     1       2.818  -3.608   0.828  0.00  0.00    +0.018 C 
ATOM     10  C   UNL     1       1.402  -1.877   1.908  0.00  0.00    +0.130 C 
ATOM     11  C   UNL     1       3.742  -1.271   1.101  0.00  0.00    +0.114 C 
ATOM     12  C   UNL     1       3.237  -2.156  -1.160  0.00  0.00    +0.119 C 
ATOM     13  C   UNL     1       0.888  -2.594  -0.426  0.00  0.00    +0.027 A 
ATOM     14  C   UNL     1       0.021  -2.705  -1.445  0.00  0.00    +0.022 A 
ATOM     15  C   UNL     1      -0.737  -1.287   0.869  0.00  0.00    +0.259 A 
ATOM     16  C   UNL     1       3.256   0.311  -0.862  0.00  0.00    +0.306 C 
ATOM     17  C   UNL     1      -1.671  -1.393  -0.306  0.00  0.00    +0.047 A 
ATOM     18  C   UNL     1      -1.274  -2.089  -1.382  0.00  0.00    +0.015 A 
ATOM     32  H   UNL     1       4.112   1.211   0.801  0.00  0.00    +0.156 HD
ENDROOT
BRANCH  17  19
ATOM     19  C   UNL     1      -2.993  -0.743  -0.291  0.00  0.00    -0.013 A 
ATOM     21  C   UNL     1      -4.149  -1.510  -0.435  0.00  0.00    +0.010 A 
ATOM     22  C   UNL     1      -3.089   0.639  -0.131  0.00  0.00    +0.010 A 
ATOM     23  C   UNL     1      -5.401  -0.895  -0.419  0.00  0.00    +0.015 A 
ATOM     24  C   UNL     1      -4.340   1.255  -0.115  0.00  0.00    +0.015 A 
ATOM     27  C   UNL     1      -5.496   0.488  -0.259  0.00  0.00    +0.008 A 
BRANCH  27   1
ATOM      1  S   UNL     1      -7.096   1.273  -0.239  0.00  0.00    -0.129 S 
ATOM     31  C   UNL     1      -7.107   2.045   1.404  0.00  0.00    +0.090 C 
ENDBRANCH  27   1
ENDBRANCH  17  19
BRANCH   6  20
ATOM     20  C   UNL     1       2.857   2.639   0.009  0.00  0.00    +0.035 A 
ATOM     25  C   UNL     1       3.230   3.604   0.945  0.00  0.00    +0.023 A 
ATOM     26  C   UNL     1       1.894   2.937  -0.954  0.00  0.00    +0.023 A 
ATOM     28  C   UNL     1       2.639   4.867   0.917  0.00  0.00    +0.002 A 
ATOM     29  C   UNL     1       1.302   4.200  -0.982  0.00  0.00    +0.002 A 
ATOM     30  C   UNL     1       1.675   5.165  -0.046  0.00  0.00    +0.000 A 
ENDBRANCH   6  20
TORSDOF 3
