MODEL 1
REMARK VINA RESULT:      -6.2      0.000      0.000
REMARK  Name = 26742418
REMARK  10 active torsions:
REMARK  status: ('A' for Active; 'I' for Inactive)
REMARK    1  A    between atoms: N_4  and  C_14
REMARK    2  A    between atoms: C_8  and  C_15
REMARK    3  A    between atoms: C_9  and  C_14
REMARK    4  A    between atoms: C_17  and  C_19
REMARK    5  A    between atoms: C_18  and  C_23
REMARK    6  A    between atoms: C_19  and  C_21
REMARK    7  A    between atoms: C_19  and  C_22
REMARK    8  A    between atoms: C_20  and  C_24
REMARK    9  A    between atoms: C_21  and  C_25
REMARK   10  A    between atoms: C_22  and  C_26
REMARK                            x       y       z     vdW  Elec       q    Type
REMARK                         _______ _______ _______ _____ _____    ______ ____
ROOT
ATOM      3  N   UNL     1      11.019   7.547  20.705  0.00  0.00    -0.297 NA
ATOM      7  C   UNL     1      12.189   9.307  22.226  0.00  0.00    +0.002 C 
ATOM      8  C   UNL     1      11.772   9.949  20.873  0.00  0.00    +0.055 C 
ATOM      9  C   UNL     1      12.301   7.000  21.222  0.00  0.00    +0.074 C 
ATOM     10  C   UNL     1      13.105   8.096  21.954  0.00  0.00    +0.024 C 
ATOM     11  C   UNL     1      10.900   8.764  22.878  0.00  0.00    +0.019 C 
ATOM     12  C   UNL     1      11.271   8.801  19.951  0.00  0.00    +0.094 C 
ATOM     13  C   UNL     1      10.160   7.870  21.869  0.00  0.00    +0.085 C 
ENDROOT
BRANCH   8  15
ATOM      5  N   UNL     1      13.165  11.959  20.846  0.00  0.00    -0.237 NA
ATOM      6  N   UNL     1      14.557  12.530  18.962  0.00  0.00    -0.229 NA
ATOM     15  C   UNL     1      12.769  10.859  20.172  0.00  0.00    +0.050 A 
ATOM     16  C   UNL     1      13.215  10.533  18.907  0.00  0.00    +0.055 A 
ATOM     18  C   UNL     1      14.117  11.413  18.346  0.00  0.00    +0.110 A 
ATOM     20  C   UNL     1      14.047  12.739  20.191  0.00  0.00    +0.127 A 
ATOM     24  C   UNL     1      14.511  13.963  20.906  0.00  0.00    +0.088 C 
BRANCH  18  23
ATOM      2  O   UNL     1      14.152  10.130  16.359  0.00  0.00    -0.461 OA
ATOM     23  C   UNL     1      14.661  11.196  17.032  0.00  0.00    +0.153 A 
ATOM     27  C   UNL     1      15.609  11.839  16.271  0.00  0.00    +0.051 A 
ATOM     28  C   UNL     1      15.688  11.123  15.053  0.00  0.00    +0.042 A 
ATOM     29  C   UNL     1      14.783  10.093  15.156  0.00  0.00    +0.196 A 
ENDBRANCH  18  23
ENDBRANCH   8  15
BRANCH   9  14
ATOM     14  C   UNL     1      13.129   6.318  20.130  0.00  0.00    +0.123 C 
BRANCH  14   4
ATOM      1  O   UNL     1      14.900   7.540  18.226  0.00  0.00    -0.276 OA
ATOM      4  N   UNL     1      14.523   6.583  20.306  0.00  0.00    -0.314 N 
ATOM     17  C   UNL     1      15.315   7.183  19.327  0.00  0.00    +0.216 C 
ATOM     30  H   UNL     1      14.941   6.314  21.190  0.00  0.00    +0.149 HD
BRANCH  17  19
ATOM     19  C   UNL     1      16.778   7.341  19.753  0.00  0.00    +0.074 C 
BRANCH  19  21
ATOM     21  C   UNL     1      17.480   5.984  19.936  0.00  0.00    +0.009 C 
ATOM     25  C   UNL     1      18.930   6.134  20.381  0.00  0.00    +0.004 C 
ENDBRANCH  19  21
BRANCH  19  22
ATOM     22  C   UNL     1      16.870   8.213  21.022  0.00  0.00    +0.009 C 
ATOM     26  C   UNL     1      16.362   9.640  20.853  0.00  0.00    +0.004 C 
ENDBRANCH  19  22
ENDBRANCH  17  19
ENDBRANCH  14   4
ENDBRANCH   9  14
TORSDOF 7
ENDMDL
MODEL 2
REMARK VINA RESULT:      -5.8     26.049     28.817
REMARK  Name = 26742418
REMARK  10 active torsions:
REMARK  status: ('A' for Active; 'I' for Inactive)
REMARK    1  A    between atoms: N_4  and  C_14
REMARK    2  A    between atoms: C_8  and  C_15
REMARK    3  A    between atoms: C_9  and  C_14
REMARK    4  A    between atoms: C_17  and  C_19
REMARK    5  A    between atoms: C_18  and  C_23
REMARK    6  A    between atoms: C_19  and  C_21
REMARK    7  A    between atoms: C_19  and  C_22
REMARK    8  A    between atoms: C_20  and  C_24
REMARK    9  A    between atoms: C_21  and  C_25
REMARK   10  A    between atoms: C_22  and  C_26
REMARK                            x       y       z     vdW  Elec       q    Type
REMARK                         _______ _______ _______ _____ _____    ______ ____
ROOT
ATOM      3  N   UNL     1      -7.371 -11.917  17.580  0.00  0.00    -0.297 NA
ATOM      7  C   UNL     1      -4.930 -11.463  18.364  0.00  0.00    +0.002 C 
ATOM      8  C   UNL     1      -5.256 -10.632  17.092  0.00  0.00    +0.055 C 
ATOM      9  C   UNL     1      -6.662 -13.204  17.804  0.00  0.00    +0.074 C 
ATOM     10  C   UNL     1      -5.161 -12.960  18.068  0.00  0.00    +0.024 C 
ATOM     11  C   UNL     1      -5.956 -11.050  19.441  0.00  0.00    +0.019 C 
ATOM     12  C   UNL     1      -6.643 -11.105  16.573  0.00  0.00    +0.094 C 
ATOM     13  C   UNL     1      -7.375 -11.171  18.861  0.00  0.00    +0.085 C 
ENDROOT
BRANCH   8  15
ATOM      5  N   UNL     1      -2.922 -10.523  16.369  0.00  0.00    -0.237 NA
ATOM      6  N   UNL     1      -2.300 -10.470  14.041  0.00  0.00    -0.229 NA
ATOM     15  C   UNL     1      -4.214 -10.575  15.985  0.00  0.00    +0.050 A 
ATOM     16  C   UNL     1      -4.622 -10.577  14.666  0.00  0.00    +0.055 A 
ATOM     18  C   UNL     1      -3.611 -10.522  13.728  0.00  0.00    +0.110 A 
ATOM     20  C   UNL     1      -2.030 -10.473  15.361  0.00  0.00    +0.127 A 
ATOM     24  C   UNL     1      -0.591 -10.418  15.747  0.00  0.00    +0.088 C 
BRANCH  18  23
ATOM      2  O   UNL     1      -5.211 -10.438  11.988  0.00  0.00    -0.461 OA
ATOM     23  C   UNL     1      -3.895 -10.516  12.317  0.00  0.00    +0.153 A 
ATOM     27  C   UNL     1      -3.116 -10.570  11.185  0.00  0.00    +0.051 A 
ATOM     28  C   UNL     1      -4.011 -10.523  10.090  0.00  0.00    +0.042 A 
ATOM     29  C   UNL     1      -5.273 -10.443  10.631  0.00  0.00    +0.196 A 
ENDBRANCH  18  23
ENDBRANCH   8  15
BRANCH   9  14
ATOM     14  C   UNL     1      -6.886 -14.201  16.665  0.00  0.00    +0.123 C 
BRANCH  14   4
ATOM      1  O   UNL     1      -5.836 -13.848  14.014  0.00  0.00    -0.276 OA
ATOM      4  N   UNL     1      -5.640 -14.694  16.166  0.00  0.00    -0.314 N 
ATOM     17  C   UNL     1      -5.203 -14.476  14.859  0.00  0.00    +0.216 C 
ATOM     30  H   UNL     1      -5.060 -15.227  16.804  0.00  0.00    +0.149 HD
BRANCH  17  19
ATOM     19  C   UNL     1      -3.844 -15.122  14.567  0.00  0.00    +0.074 C 
BRANCH  19  21
ATOM     21  C   UNL     1      -3.426 -16.116  15.665  0.00  0.00    +0.009 C 
ATOM     25  C   UNL     1      -2.064 -16.745  15.392  0.00  0.00    +0.004 C 
ENDBRANCH  19  21
BRANCH  19  22
ATOM     22  C   UNL     1      -2.777 -14.033  14.339  0.00  0.00    +0.009 C 
ATOM     26  C   UNL     1      -2.277 -13.921  12.903  0.00  0.00    +0.004 C 
ENDBRANCH  19  22
ENDBRANCH  17  19
ENDBRANCH  14   4
ENDBRANCH   9  14
TORSDOF 7
ENDMDL
MODEL 3
REMARK VINA RESULT:      -5.8     26.072     29.113
REMARK  Name = 26742418
REMARK  10 active torsions:
REMARK  status: ('A' for Active; 'I' for Inactive)
REMARK    1  A    between atoms: N_4  and  C_14
REMARK    2  A    between atoms: C_8  and  C_15
REMARK    3  A    between atoms: C_9  and  C_14
REMARK    4  A    between atoms: C_17  and  C_19
REMARK    5  A    between atoms: C_18  and  C_23
REMARK    6  A    between atoms: C_19  and  C_21
REMARK    7  A    between atoms: C_19  and  C_22
REMARK    8  A    between atoms: C_20  and  C_24
REMARK    9  A    between atoms: C_21  and  C_25
REMARK   10  A    between atoms: C_22  and  C_26
REMARK                            x       y       z     vdW  Elec       q    Type
REMARK                         _______ _______ _______ _____ _____    ______ ____
ROOT
ATOM      3  N   UNL     1      -5.498 -10.858   9.579  0.00  0.00    -0.297 NA
ATOM      7  C   UNL     1      -3.811  -9.268  10.765  0.00  0.00    +0.002 C 
ATOM      8  C   UNL     1      -3.289 -10.731  10.789  0.00  0.00    +0.055 C 
ATOM      9  C   UNL     1      -6.210 -10.013  10.573  0.00  0.00    +0.074 C 
ATOM     10  C   UNL     1      -5.203  -9.214  11.429  0.00  0.00    +0.024 C 
ATOM     11  C   UNL     1      -4.000  -8.886   9.282  0.00  0.00    +0.019 C 
ATOM     12  C   UNL     1      -4.429 -11.640  10.250  0.00  0.00    +0.094 C 
ATOM     13  C   UNL     1      -4.860  -9.957   8.589  0.00  0.00    +0.085 C 
ENDROOT
BRANCH   8  15
ATOM      5  N   UNL     1      -2.295 -10.342  12.990  0.00  0.00    -0.237 NA
ATOM      6  N   UNL     1      -1.615 -12.152  14.429  0.00  0.00    -0.229 NA
ATOM     15  C   UNL     1      -2.692 -11.261  12.085  0.00  0.00    +0.050 A 
ATOM     16  C   UNL     1      -2.585 -12.623  12.278  0.00  0.00    +0.055 A 
ATOM     18  C   UNL     1      -2.033 -13.015  13.480  0.00  0.00    +0.110 A 
ATOM     20  C   UNL     1      -1.772 -10.850  14.123  0.00  0.00    +0.127 A 
ATOM     24  C   UNL     1      -1.323  -9.865  15.149  0.00  0.00    +0.088 C 
BRANCH  18  23
ATOM      2  O   UNL     1      -0.683 -14.956  13.413  0.00  0.00    -0.461 OA
ATOM     23  C   UNL     1      -1.860 -14.405  13.810  0.00  0.00    +0.153 A 
ATOM     27  C   UNL     1      -2.635 -15.337  14.459  0.00  0.00    +0.051 A 
ATOM     28  C   UNL     1      -1.887 -16.538  14.460  0.00  0.00    +0.042 A 
ATOM     29  C   UNL     1      -0.708 -16.254  13.812  0.00  0.00    +0.196 A 
ENDBRANCH  18  23
ENDBRANCH   8  15
BRANCH   9  14
ATOM     14  C   UNL     1      -7.180 -10.820  11.439  0.00  0.00    +0.123 C 
BRANCH  14   4
ATOM      1  O   UNL     1      -6.119 -13.019  12.954  0.00  0.00    -0.276 OA
ATOM      4  N   UNL     1      -6.779 -10.798  12.811  0.00  0.00    -0.314 N 
ATOM     17  C   UNL     1      -6.271 -11.916  13.474  0.00  0.00    +0.216 C 
ATOM     30  H   UNL     1      -6.878  -9.922  13.312  0.00  0.00    +0.149 HD
BRANCH  17  19
ATOM     19  C   UNL     1      -5.932 -11.637  14.943  0.00  0.00    +0.074 C 
BRANCH  19  21
ATOM     21  C   UNL     1      -5.286 -10.254  15.137  0.00  0.00    +0.009 C 
ATOM     25  C   UNL     1      -4.819 -10.027  16.570  0.00  0.00    +0.004 C 
ENDBRANCH  19  21
BRANCH  19  22
ATOM     22  C   UNL     1      -5.052 -12.769  15.508  0.00  0.00    +0.009 C 
ATOM     26  C   UNL     1      -5.742 -13.663  16.532  0.00  0.00    +0.004 C 
ENDBRANCH  19  22
ENDBRANCH  17  19
ENDBRANCH  14   4
ENDBRANCH   9  14
TORSDOF 7
ENDMDL
MODEL 4
REMARK VINA RESULT:      -5.7     12.861     16.426
REMARK  Name = 26742418
REMARK  10 active torsions:
REMARK  status: ('A' for Active; 'I' for Inactive)
REMARK    1  A    between atoms: N_4  and  C_14
REMARK    2  A    between atoms: C_8  and  C_15
REMARK    3  A    between atoms: C_9  and  C_14
REMARK    4  A    between atoms: C_17  and  C_19
REMARK    5  A    between atoms: C_18  and  C_23
REMARK    6  A    between atoms: C_19  and  C_21
REMARK    7  A    between atoms: C_19  and  C_22
REMARK    8  A    between atoms: C_20  and  C_24
REMARK    9  A    between atoms: C_21  and  C_25
REMARK   10  A    between atoms: C_22  and  C_26
REMARK                            x       y       z     vdW  Elec       q    Type
REMARK                         _______ _______ _______ _____ _____    ______ ____
ROOT
ATOM      3  N   UNL     1      11.671   6.347   0.613  0.00  0.00    -0.297 NA
ATOM      7  C   UNL     1      10.672   4.701   2.367  0.00  0.00    +0.002 C 
ATOM      8  C   UNL     1      10.076   6.124   2.554  0.00  0.00    +0.055 C 
ATOM      9  C   UNL     1      12.764   5.601   1.290  0.00  0.00    +0.074 C 
ATOM     10  C   UNL     1      12.210   4.775   2.471  0.00  0.00    +0.024 C 
ATOM     11  C   UNL     1      10.336   4.263   0.925  0.00  0.00    +0.019 C 
ATOM     12  C   UNL     1      10.861   7.083   1.616  0.00  0.00    +0.094 C 
ATOM     13  C   UNL     1      10.792   5.357  -0.055  0.00  0.00    +0.085 C 
ENDROOT
BRANCH   8  15
ATOM      5  N   UNL     1       9.978   8.013   4.105  0.00  0.00    -0.237 NA
ATOM      6  N   UNL     1       9.740   7.709   6.484  0.00  0.00    -0.229 NA
ATOM     15  C   UNL     1       9.954   6.671   3.969  0.00  0.00    +0.050 A 
ATOM     16  C   UNL     1       9.829   5.795   5.028  0.00  0.00    +0.055 A 
ATOM     18  C   UNL     1       9.724   6.376   6.275  0.00  0.00    +0.110 A 
ATOM     20  C   UNL     1       9.868   8.458   5.372  0.00  0.00    +0.127 A 
ATOM     24  C   UNL     1       9.888   9.937   5.562  0.00  0.00    +0.088 C 
BRANCH  18  23
ATOM      2  O   UNL     1       9.134   6.244   8.562  0.00  0.00    -0.461 OA
ATOM     23  C   UNL     1       9.590   5.581   7.467  0.00  0.00    +0.153 A 
ATOM     27  C   UNL     1       9.822   4.258   7.764  0.00  0.00    +0.051 A 
ATOM     28  C   UNL     1       9.489   4.098   9.130  0.00  0.00    +0.042 A 
ATOM     29  C   UNL     1       9.076   5.334   9.570  0.00  0.00    +0.196 A 
ENDBRANCH  18  23
ENDBRANCH   8  15
BRANCH   9  14
ATOM     14  C   UNL     1      13.914   6.514   1.722  0.00  0.00    +0.123 C 
BRANCH  14   4
ATOM      1  O   UNL     1      15.223   8.525   3.303  0.00  0.00    -0.276 OA
ATOM      4  N   UNL     1      14.045   6.531   3.146  0.00  0.00    -0.314 N 
ATOM     17  C   UNL     1      14.698   7.550   3.839  0.00  0.00    +0.216 C 
ATOM     30  H   UNL     1      13.640   5.757   3.661  0.00  0.00    +0.149 HD
BRANCH  17  19
ATOM     19  C   UNL     1      14.717   7.327   5.355  0.00  0.00    +0.074 C 
BRANCH  19  21
ATOM     21  C   UNL     1      13.302   7.335   5.961  0.00  0.00    +0.009 C 
ATOM     25  C   UNL     1      13.231   6.578   7.281  0.00  0.00    +0.004 C 
ENDBRANCH  19  21
BRANCH  19  22
ATOM     22  C   UNL     1      15.640   8.359   6.032  0.00  0.00    +0.009 C 
ATOM     26  C   UNL     1      14.953   9.657   6.442  0.00  0.00    +0.004 C 
ENDBRANCH  19  22
ENDBRANCH  17  19
ENDBRANCH  14   4
ENDBRANCH   9  14
TORSDOF 7
ENDMDL
MODEL 5
REMARK VINA RESULT:      -5.7     27.449     29.171
REMARK  Name = 26742418
REMARK  10 active torsions:
REMARK  status: ('A' for Active; 'I' for Inactive)
REMARK    1  A    between atoms: N_4  and  C_14
REMARK    2  A    between atoms: C_8  and  C_15
REMARK    3  A    between atoms: C_9  and  C_14
REMARK    4  A    between atoms: C_17  and  C_19
REMARK    5  A    between atoms: C_18  and  C_23
REMARK    6  A    between atoms: C_19  and  C_21
REMARK    7  A    between atoms: C_19  and  C_22
REMARK    8  A    between atoms: C_20  and  C_24
REMARK    9  A    between atoms: C_21  and  C_25
REMARK   10  A    between atoms: C_22  and  C_26
REMARK                            x       y       z     vdW  Elec       q    Type
REMARK                         _______ _______ _______ _____ _____    ______ ____
ROOT
ATOM      3  N   UNL     1      -6.091 -10.235  17.603  0.00  0.00    -0.297 NA
ATOM      7  C   UNL     1      -4.764 -12.451  17.263  0.00  0.00    +0.002 C 
ATOM      8  C   UNL     1      -4.055 -11.275  16.535  0.00  0.00    +0.055 C 
ATOM      9  C   UNL     1      -7.008 -11.312  17.148  0.00  0.00    +0.074 C 
ATOM     10  C   UNL     1      -6.212 -12.572  16.744  0.00  0.00    +0.024 C 
ATOM     11  C   UNL     1      -4.848 -12.065  18.755  0.00  0.00    +0.019 C 
ATOM     12  C   UNL     1      -5.002 -10.044  16.611  0.00  0.00    +0.094 C 
ATOM     13  C   UNL     1      -5.481 -10.668  18.883  0.00  0.00    +0.085 C 
ENDROOT
BRANCH   8  15
ATOM      5  N   UNL     1      -2.729 -12.584  14.951  0.00  0.00    -0.237 NA
ATOM      6  N   UNL     1      -2.560 -11.992  12.621  0.00  0.00    -0.229 NA
ATOM     15  C   UNL     1      -3.531 -11.514  15.127  0.00  0.00    +0.050 A 
ATOM     16  C   UNL     1      -3.887 -10.648  14.113  0.00  0.00    +0.055 A 
ATOM     18  C   UNL     1      -3.367 -10.939  12.868  0.00  0.00    +0.110 A 
ATOM     20  C   UNL     1      -2.285 -12.761  13.691  0.00  0.00    +0.127 A 
ATOM     24  C   UNL     1      -1.397 -13.936  13.457  0.00  0.00    +0.088 C 
BRANCH  18  23
ATOM      2  O   UNL     1      -4.878  -9.524  11.724  0.00  0.00    -0.461 OA
ATOM     23  C   UNL     1      -3.656 -10.118  11.722  0.00  0.00    +0.153 A 
ATOM     27  C   UNL     1      -2.956  -9.781  10.587  0.00  0.00    +0.051 A 
ATOM     28  C   UNL     1      -3.804  -8.926   9.842  0.00  0.00    +0.042 A 
ATOM     29  C   UNL     1      -4.960  -8.801  10.576  0.00  0.00    +0.196 A 
ENDBRANCH  18  23
ENDBRANCH   8  15
BRANCH   9  14
ATOM     14  C   UNL     1      -7.946 -10.848  16.031  0.00  0.00    +0.123 C 
BRANCH  14   4
ATOM      1  O   UNL     1      -9.461  -8.791  14.716  0.00  0.00    -0.276 OA
ATOM      4  N   UNL     1      -9.065 -10.137  16.565  0.00  0.00    -0.314 N 
ATOM     17  C   UNL     1      -9.748  -9.148  15.857  0.00  0.00    +0.216 C 
ATOM     30  H   UNL     1      -9.362 -10.373  17.505  0.00  0.00    +0.149 HD
BRANCH  17  19
ATOM     19  C   UNL     1     -10.899  -8.527  16.656  0.00  0.00    +0.074 C 
BRANCH  19  21
ATOM     21  C   UNL     1     -10.728  -7.008  16.835  0.00  0.00    +0.009 C 
ATOM     25  C   UNL     1     -11.785  -6.211  16.078  0.00  0.00    +0.004 C 
ENDBRANCH  19  21
BRANCH  19  22
ATOM     22  C   UNL     1     -11.058  -9.252  18.007  0.00  0.00    +0.009 C 
ATOM     26  C   UNL     1     -12.498  -9.575  18.392  0.00  0.00    +0.004 C 
ENDBRANCH  19  22
ENDBRANCH  17  19
ENDBRANCH  14   4
ENDBRANCH   9  14
TORSDOF 7
ENDMDL
MODEL 6
REMARK VINA RESULT:      -5.7     26.284     29.117
REMARK  Name = 26742418
REMARK  10 active torsions:
REMARK  status: ('A' for Active; 'I' for Inactive)
REMARK    1  A    between atoms: N_4  and  C_14
REMARK    2  A    between atoms: C_8  and  C_15
REMARK    3  A    between atoms: C_9  and  C_14
REMARK    4  A    between atoms: C_17  and  C_19
REMARK    5  A    between atoms: C_18  and  C_23
REMARK    6  A    between atoms: C_19  and  C_21
REMARK    7  A    between atoms: C_19  and  C_22
REMARK    8  A    between atoms: C_20  and  C_24
REMARK    9  A    between atoms: C_21  and  C_25
REMARK   10  A    between atoms: C_22  and  C_26
REMARK                            x       y       z     vdW  Elec       q    Type
REMARK                         _______ _______ _______ _____ _____    ______ ____
ROOT
ATOM      3  N   UNL     1      -2.687 -16.564  14.648  0.00  0.00    -0.297 NA
ATOM      7  C   UNL     1      -3.703 -15.281  12.621  0.00  0.00    +0.002 C 
ATOM      8  C   UNL     1      -2.404 -14.582  13.112  0.00  0.00    +0.055 C 
ATOM      9  C   UNL     1      -4.133 -16.310  14.880  0.00  0.00    +0.074 C 
ATOM     10  C   UNL     1      -4.704 -15.375  13.792  0.00  0.00    +0.024 C 
ATOM     11  C   UNL     1      -3.314 -16.725  12.240  0.00  0.00    +0.019 C 
ATOM     12  C   UNL     1      -1.974 -15.279  14.434  0.00  0.00    +0.094 C 
ATOM     13  C   UNL     1      -2.560 -17.374  13.413  0.00  0.00    +0.085 C 
ENDROOT
BRANCH   8  15
ATOM      5  N   UNL     1      -1.813 -12.542  14.326  0.00  0.00    -0.237 NA
ATOM      6  N   UNL     1      -2.381 -10.349  13.504  0.00  0.00    -0.229 NA
ATOM     15  C   UNL     1      -2.406 -13.065  13.233  0.00  0.00    +0.050 A 
ATOM     16  C   UNL     1      -3.001 -12.306  12.246  0.00  0.00    +0.055 A 
ATOM     18  C   UNL     1      -2.957 -10.940  12.436  0.00  0.00    +0.110 A 
ATOM     20  C   UNL     1      -1.837 -11.197  14.397  0.00  0.00    +0.127 A 
ATOM     24  C   UNL     1      -1.188 -10.582  15.590  0.00  0.00    +0.088 C 
BRANCH  18  23
ATOM      2  O   UNL     1      -4.785  -9.582  11.796  0.00  0.00    -0.461 OA
ATOM     23  C   UNL     1      -3.540 -10.030  11.485  0.00  0.00    +0.153 A 
ATOM     27  C   UNL     1      -3.114  -9.488  10.295  0.00  0.00    +0.051 A 
ATOM     28  C   UNL     1      -4.165  -8.654   9.845  0.00  0.00    +0.042 A 
ATOM     29  C   UNL     1      -5.158  -8.745  10.792  0.00  0.00    +0.196 A 
ENDBRANCH  18  23
ENDBRANCH   8  15
BRANCH   9  14
ATOM     14  C   UNL     1      -4.414 -15.782  16.289  0.00  0.00    +0.123 C 
BRANCH  14   4
ATOM      1  O   UNL     1      -6.143 -13.735  17.327  0.00  0.00    -0.276 OA
ATOM      4  N   UNL     1      -4.127 -14.385  16.379  0.00  0.00    -0.314 N 
ATOM     17  C   UNL     1      -5.025 -13.453  16.899  0.00  0.00    +0.216 C 
ATOM     30  H   UNL     1      -3.223 -14.072  16.042  0.00  0.00    +0.149 HD
BRANCH  17  19
ATOM     19  C   UNL     1      -4.485 -12.019  16.869  0.00  0.00    +0.074 C 
BRANCH  19  21
ATOM     21  C   UNL     1      -4.567 -11.338  18.246  0.00  0.00    +0.009 C 
ATOM     25  C   UNL     1      -3.769 -12.083  19.311  0.00  0.00    +0.004 C 
ENDBRANCH  19  21
BRANCH  19  22
ATOM     22  C   UNL     1      -5.208 -11.203  15.779  0.00  0.00    +0.009 C 
ATOM     26  C   UNL     1      -5.628  -9.801  16.205  0.00  0.00    +0.004 C 
ENDBRANCH  19  22
ENDBRANCH  17  19
ENDBRANCH  14   4
ENDBRANCH   9  14
TORSDOF 7
ENDMDL
MODEL 7
REMARK VINA RESULT:      -5.7      1.925      2.722
REMARK  Name = 26742418
REMARK  10 active torsions:
REMARK  status: ('A' for Active; 'I' for Inactive)
REMARK    1  A    between atoms: N_4  and  C_14
REMARK    2  A    between atoms: C_8  and  C_15
REMARK    3  A    between atoms: C_9  and  C_14
REMARK    4  A    between atoms: C_17  and  C_19
REMARK    5  A    between atoms: C_18  and  C_23
REMARK    6  A    between atoms: C_19  and  C_21
REMARK    7  A    between atoms: C_19  and  C_22
REMARK    8  A    between atoms: C_20  and  C_24
REMARK    9  A    between atoms: C_21  and  C_25
REMARK   10  A    between atoms: C_22  and  C_26
REMARK                            x       y       z     vdW  Elec       q    Type
REMARK                         _______ _______ _______ _____ _____    ______ ____
ROOT
ATOM      3  N   UNL     1      11.077   8.247  21.234  0.00  0.00    -0.297 NA
ATOM      7  C   UNL     1      12.562  10.304  21.823  0.00  0.00    +0.002 C 
ATOM      8  C   UNL     1      12.160  10.335  20.322  0.00  0.00    +0.055 C 
ATOM      9  C   UNL     1      12.299   7.803  21.954  0.00  0.00    +0.074 C 
ATOM     10  C   UNL     1      13.286   8.977  22.129  0.00  0.00    +0.024 C 
ATOM     11  C   UNL     1      11.250  10.303  22.635  0.00  0.00    +0.019 C 
ATOM     12  C   UNL     1      11.454   8.987  20.003  0.00  0.00    +0.094 C 
ATOM     13  C   UNL     1      10.338   9.175  22.123  0.00  0.00    +0.085 C 
ENDROOT
BRANCH   8  15
ATOM      5  N   UNL     1      12.973  10.355  18.015  0.00  0.00    -0.237 NA
ATOM      6  N   UNL     1      15.117  11.281  17.417  0.00  0.00    -0.229 NA
ATOM     15  C   UNL     1      13.231  10.682  19.298  0.00  0.00    +0.050 A 
ATOM     16  C   UNL     1      14.393  11.301  19.713  0.00  0.00    +0.055 A 
ATOM     18  C   UNL     1      15.309  11.580  18.719  0.00  0.00    +0.110 A 
ATOM     20  C   UNL     1      13.945  10.678  17.140  0.00  0.00    +0.127 A 
ATOM     24  C   UNL     1      13.695  10.334  15.710  0.00  0.00    +0.088 C 
BRANCH  18  23
ATOM      2  O   UNL     1      16.963  12.154  20.309  0.00  0.00    -0.461 OA
ATOM     23  C   UNL     1      16.563  12.221  19.012  0.00  0.00    +0.153 A 
ATOM     27  C   UNL     1      17.485  12.908  18.257  0.00  0.00    +0.051 A 
ATOM     28  C   UNL     1      18.517  13.289  19.148  0.00  0.00    +0.042 A 
ATOM     29  C   UNL     1      18.153  12.807  20.383  0.00  0.00    +0.196 A 
ENDBRANCH  18  23
ENDBRANCH   8  15
BRANCH   9  14
ATOM     14  C   UNL     1      12.962   6.594  21.289  0.00  0.00    +0.123 C 
BRANCH  14   4
ATOM      1  O   UNL     1      14.157   7.274  18.766  0.00  0.00    -0.276 OA
ATOM      4  N   UNL     1      14.347   6.845  21.039  0.00  0.00    -0.314 N 
ATOM     17  C   UNL     1      14.847   7.171  19.778  0.00  0.00    +0.216 C 
ATOM     30  H   UNL     1      14.983   6.776  21.826  0.00  0.00    +0.149 HD
BRANCH  17  19
ATOM     19  C   UNL     1      16.366   7.374  19.771  0.00  0.00    +0.074 C 
BRANCH  19  21
ATOM     21  C   UNL     1      17.121   6.130  20.271  0.00  0.00    +0.009 C 
ATOM     25  C   UNL     1      18.058   5.556  19.215  0.00  0.00    +0.004 C 
ENDBRANCH  19  21
BRANCH  19  22
ATOM     22  C   UNL     1      16.736   8.636  20.576  0.00  0.00    +0.009 C 
ATOM     26  C   UNL     1      18.019   8.518  21.392  0.00  0.00    +0.004 C 
ENDBRANCH  19  22
ENDBRANCH  17  19
ENDBRANCH  14   4
ENDBRANCH   9  14
TORSDOF 7
ENDMDL
MODEL 8
REMARK VINA RESULT:      -5.6     12.775     15.991
REMARK  Name = 26742418
REMARK  10 active torsions:
REMARK  status: ('A' for Active; 'I' for Inactive)
REMARK    1  A    between atoms: N_4  and  C_14
REMARK    2  A    between atoms: C_8  and  C_15
REMARK    3  A    between atoms: C_9  and  C_14
REMARK    4  A    between atoms: C_17  and  C_19
REMARK    5  A    between atoms: C_18  and  C_23
REMARK    6  A    between atoms: C_19  and  C_21
REMARK    7  A    between atoms: C_19  and  C_22
REMARK    8  A    between atoms: C_20  and  C_24
REMARK    9  A    between atoms: C_21  and  C_25
REMARK   10  A    between atoms: C_22  and  C_26
REMARK                            x       y       z     vdW  Elec       q    Type
REMARK                         _______ _______ _______ _____ _____    ______ ____
ROOT
ATOM      3  N   UNL     1      12.095  10.836   6.629  0.00  0.00    -0.297 NA
ATOM      7  C   UNL     1      13.722   8.948   5.872  0.00  0.00    +0.002 C 
ATOM      8  C   UNL     1      12.867   9.443   4.672  0.00  0.00    +0.055 C 
ATOM      9  C   UNL     1      11.987   9.672   7.548  0.00  0.00    +0.074 C 
ATOM     10  C   UNL     1      12.786   8.470   7.001  0.00  0.00    +0.024 C 
ATOM     11  C   UNL     1      14.490  10.175   6.408  0.00  0.00    +0.019 C 
ATOM     12  C   UNL     1      11.792  10.413   5.238  0.00  0.00    +0.094 C 
ATOM     13  C   UNL     1      13.496  11.319   6.671  0.00  0.00    +0.085 C 
ENDROOT
BRANCH   8  15
ATOM      5  N   UNL     1      11.007   8.618   3.314  0.00  0.00    -0.237 NA
ATOM      6  N   UNL     1      11.146   6.566   2.058  0.00  0.00    -0.229 NA
ATOM     15  C   UNL     1      12.270   8.401   3.737  0.00  0.00    +0.050 A 
ATOM     16  C   UNL     1      13.024   7.305   3.371  0.00  0.00    +0.055 A 
ATOM     18  C   UNL     1      12.405   6.411   2.521  0.00  0.00    +0.110 A 
ATOM     20  C   UNL     1      10.514   7.674   2.489  0.00  0.00    +0.127 A 
ATOM     24  C   UNL     1       9.122   7.880   1.997  0.00  0.00    +0.088 C 
BRANCH  18  23
ATOM      2  O   UNL     1      12.299   4.112   1.978  0.00  0.00    -0.461 OA
ATOM     23  C   UNL     1      13.075   5.224   2.061  0.00  0.00    +0.153 A 
ATOM     27  C   UNL     1      14.364   4.944   1.670  0.00  0.00    +0.051 A 
ATOM     28  C   UNL     1      14.381   3.571   1.326  0.00  0.00    +0.042 A 
ATOM     29  C   UNL     1      13.101   3.111   1.530  0.00  0.00    +0.196 A 
ENDBRANCH  18  23
ENDBRANCH   8  15
BRANCH   9  14
ATOM     14  C   UNL     1      10.534   9.300   7.852  0.00  0.00    +0.123 C 
BRANCH  14   4
ATOM      1  O   UNL     1       8.056   8.175   6.930  0.00  0.00    -0.276 OA
ATOM      4  N   UNL     1      10.282   7.928   7.540  0.00  0.00    -0.314 N 
ATOM     17  C   UNL     1       9.044   7.462   7.095  0.00  0.00    +0.216 C 
ATOM     30  H   UNL     1      11.049   7.275   7.655  0.00  0.00    +0.149 HD
BRANCH  17  19
ATOM     19  C   UNL     1       9.028   5.950   6.847  0.00  0.00    +0.074 C 
BRANCH  19  21
ATOM     21  C   UNL     1      10.132   5.220   7.633  0.00  0.00    +0.009 C 
ATOM     25  C   UNL     1       9.576   4.404   8.794  0.00  0.00    +0.004 C 
ENDBRANCH  19  21
BRANCH  19  22
ATOM     22  C   UNL     1       9.109   5.660   5.335  0.00  0.00    +0.009 C 
ATOM     26  C   UNL     1      10.222   4.700   4.929  0.00  0.00    +0.004 C 
ENDBRANCH  19  22
ENDBRANCH  17  19
ENDBRANCH  14   4
ENDBRANCH   9  14
TORSDOF 7
ENDMDL
MODEL 9
REMARK VINA RESULT:      -5.4     12.975     16.608
REMARK  Name = 26742418
REMARK  10 active torsions:
REMARK  status: ('A' for Active; 'I' for Inactive)
REMARK    1  A    between atoms: N_4  and  C_14
REMARK    2  A    between atoms: C_8  and  C_15
REMARK    3  A    between atoms: C_9  and  C_14
REMARK    4  A    between atoms: C_17  and  C_19
REMARK    5  A    between atoms: C_18  and  C_23
REMARK    6  A    between atoms: C_19  and  C_21
REMARK    7  A    between atoms: C_19  and  C_22
REMARK    8  A    between atoms: C_20  and  C_24
REMARK    9  A    between atoms: C_21  and  C_25
REMARK   10  A    between atoms: C_22  and  C_26
REMARK                            x       y       z     vdW  Elec       q    Type
REMARK                         _______ _______ _______ _____ _____    ______ ____
ROOT
ATOM      3  N   UNL     1      18.259  -2.925  22.902  0.00  0.00    -0.297 NA
ATOM      7  C   UNL     1      16.715  -2.073  24.819  0.00  0.00    +0.002 C 
ATOM      8  C   UNL     1      18.190  -2.155  25.303  0.00  0.00    +0.055 C 
ATOM      9  C   UNL     1      17.086  -3.826  23.047  0.00  0.00    +0.074 C 
ATOM     10  C   UNL     1      16.270  -3.459  24.306  0.00  0.00    +0.024 C 
ATOM     11  C   UNL     1      16.696  -1.115  23.609  0.00  0.00    +0.019 C 
ATOM     12  C   UNL     1      19.008  -2.856  24.182  0.00  0.00    +0.094 C 
ATOM     13  C   UNL     1      17.753  -1.567  22.587  0.00  0.00    +0.085 C 
ENDROOT
BRANCH   8  15
ATOM      5  N   UNL     1      19.577  -3.503  26.801  0.00  0.00    -0.237 NA
ATOM      6  N   UNL     1      19.004  -3.847  29.116  0.00  0.00    -0.229 NA
ATOM     15  C   UNL     1      18.463  -2.752  26.676  0.00  0.00    +0.050 A 
ATOM     16  C   UNL     1      17.583  -2.507  27.711  0.00  0.00    +0.055 A 
ATOM     18  C   UNL     1      17.908  -3.086  28.921  0.00  0.00    +0.110 A 
ATOM     20  C   UNL     1      19.783  -4.014  28.030  0.00  0.00    +0.127 A 
ATOM     24  C   UNL     1      21.006  -4.848  28.208  0.00  0.00    +0.088 C 
BRANCH  18  23
ATOM      2  O   UNL     1      17.327  -1.799  30.818  0.00  0.00    -0.461 OA
ATOM     23  C   UNL     1      17.077  -2.914  30.083  0.00  0.00    +0.153 A 
ATOM     27  C   UNL     1      16.052  -3.641  30.641  0.00  0.00    +0.051 A 
ATOM     28  C   UNL     1      15.646  -2.927  31.794  0.00  0.00    +0.042 A 
ATOM     29  C   UNL     1      16.451  -1.814  31.857  0.00  0.00    +0.196 A 
ENDBRANCH  18  23
ENDBRANCH   8  15
BRANCH   9  14
ATOM     14  C   UNL     1      17.479  -5.304  23.034  0.00  0.00    +0.123 C 
BRANCH  14   4
ATOM      1  O   UNL     1      18.826  -7.483  24.336  0.00  0.00    -0.276 OA
ATOM      4  N   UNL     1      17.087  -5.949  24.249  0.00  0.00    -0.314 N 
ATOM     17  C   UNL     1      17.801  -7.004  24.817  0.00  0.00    +0.216 C 
ATOM     30  H   UNL     1      16.246  -5.611  24.705  0.00  0.00    +0.149 HD
BRANCH  17  19
ATOM     19  C   UNL     1      17.165  -7.531  26.108  0.00  0.00    +0.074 C 
BRANCH  19  21
ATOM     21  C   UNL     1      15.734  -8.050  25.881  0.00  0.00    +0.009 C 
ATOM     25  C   UNL     1      15.667  -9.572  25.847  0.00  0.00    +0.004 C 
ENDBRANCH  19  21
BRANCH  19  22
ATOM     22  C   UNL     1      17.218  -6.449  27.205  0.00  0.00    +0.009 C 
ATOM     26  C   UNL     1      15.990  -6.394  28.107  0.00  0.00    +0.004 C 
ENDBRANCH  19  22
ENDBRANCH  17  19
ENDBRANCH  14   4
ENDBRANCH   9  14
TORSDOF 7
ENDMDL
MODEL 10
REMARK VINA RESULT:      -5.4     22.486     26.022
REMARK  Name = 26742418
REMARK  10 active torsions:
REMARK  status: ('A' for Active; 'I' for Inactive)
REMARK    1  A    between atoms: N_4  and  C_14
REMARK    2  A    between atoms: C_8  and  C_15
REMARK    3  A    between atoms: C_9  and  C_14
REMARK    4  A    between atoms: C_17  and  C_19
REMARK    5  A    between atoms: C_18  and  C_23
REMARK    6  A    between atoms: C_19  and  C_21
REMARK    7  A    between atoms: C_19  and  C_22
REMARK    8  A    between atoms: C_20  and  C_24
REMARK    9  A    between atoms: C_21  and  C_25
REMARK   10  A    between atoms: C_22  and  C_26
REMARK                            x       y       z     vdW  Elec       q    Type
REMARK                         _______ _______ _______ _____ _____    ______ ____
ROOT
ATOM      3  N   UNL     1     -11.314  10.714  16.027  0.00  0.00    -0.297 NA
ATOM      7  C   UNL     1     -10.832   8.415  17.154  0.00  0.00    +0.002 C 
ATOM      8  C   UNL     1     -12.209   8.970  17.615  0.00  0.00    +0.055 C 
ATOM      9  C   UNL     1      -9.956  10.719  16.633  0.00  0.00    +0.074 C 
ATOM     10  C   UNL     1      -9.733   9.447  17.480  0.00  0.00    +0.024 C 
ATOM     11  C   UNL     1     -10.895   8.290  15.617  0.00  0.00    +0.019 C 
ATOM     12  C   UNL     1     -12.332  10.419  17.067  0.00  0.00    +0.094 C 
ATOM     13  C   UNL     1     -11.356   9.629  15.017  0.00  0.00    +0.085 C 
ENDROOT
BRANCH   8  15
ATOM      5  N   UNL     1     -12.277   9.959  19.852  0.00  0.00    -0.237 NA
ATOM      6  N   UNL     1     -13.171   8.775  21.751  0.00  0.00    -0.229 NA
ATOM     15  C   UNL     1     -12.561   8.880  19.093  0.00  0.00    +0.050 A 
ATOM     16  C   UNL     1     -13.141   7.728  19.585  0.00  0.00    +0.055 A 
ATOM     18  C   UNL     1     -13.427   7.732  20.934  0.00  0.00    +0.110 A 
ATOM     20  C   UNL     1     -12.603   9.840  21.153  0.00  0.00    +0.127 A 
ATOM     24  C   UNL     1     -12.307  11.013  22.024  0.00  0.00    +0.088 C 
BRANCH  18  23
ATOM      2  O   UNL     1     -15.381   6.655  21.720  0.00  0.00    -0.461 OA
ATOM     23  C   UNL     1     -14.031   6.596  21.578  0.00  0.00    +0.153 A 
ATOM     27  C   UNL     1     -13.542   5.421  22.100  0.00  0.00    +0.051 A 
ATOM     28  C   UNL     1     -14.663   4.714  22.595  0.00  0.00    +0.042 A 
ATOM     29  C   UNL     1     -15.758   5.506  22.340  0.00  0.00    +0.196 A 
ENDBRANCH  18  23
ENDBRANCH   8  15
BRANCH   9  14
ATOM     14  C   UNL     1      -9.679  11.993  17.434  0.00  0.00    +0.123 C 
BRANCH  14   4
ATOM      1  O   UNL     1      -9.267  14.834  17.549  0.00  0.00    -0.276 OA
ATOM      4  N   UNL     1      -8.585  12.722  16.873  0.00  0.00    -0.314 N 
ATOM     17  C   UNL     1      -8.459  14.108  16.975  0.00  0.00    +0.216 C 
ATOM     30  H   UNL     1      -7.876  12.191  16.378  0.00  0.00    +0.149 HD
BRANCH  17  19
ATOM     19  C   UNL     1      -7.208  14.648  16.274  0.00  0.00    +0.074 C 
BRANCH  19  21
ATOM     21  C   UNL     1      -7.043  14.076  14.856  0.00  0.00    +0.009 C 
ATOM     25  C   UNL     1      -5.613  13.632  14.571  0.00  0.00    +0.004 C 
ENDBRANCH  19  21
BRANCH  19  22
ATOM     22  C   UNL     1      -5.962  14.397  17.146  0.00  0.00    +0.009 C 
ATOM     26  C   UNL     1      -5.934  15.173  18.459  0.00  0.00    +0.004 C 
ENDBRANCH  19  22
ENDBRANCH  17  19
ENDBRANCH  14   4
ENDBRANCH   9  14
TORSDOF 7
ENDMDL
