REMARK  Name = 75536918
REMARK  6 active torsions:
REMARK  status: ('A' for Active; 'I' for Inactive)
REMARK    1  A    between atoms: O_2  and  C_7
REMARK    2  A    between atoms: O_2  and  C_13
REMARK    3  A    between atoms: O_3  and  C_19
REMARK    4  A    between atoms: O_3  and  C_23
REMARK    5  A    between atoms: N_4  and  C_10
REMARK    6  A    between atoms: C_10  and  C_12
REMARK                            x       y       z     vdW  Elec       q    Type
REMARK                         _______ _______ _______ _____ _____    ______ ____
ROOT
ATOM      1  O   UNL     1       3.270  -2.063  -1.312  0.00  0.00    -0.375 OA
ATOM      4  N   UNL     1       0.738  -2.399   0.014  0.00  0.00    -0.292 NA
ATOM      6  C   UNL     1       1.319  -1.360   0.864  0.00  0.00    +0.131 C 
ATOM      7  C   UNL     1       2.111  -0.347   0.028  0.00  0.00    +0.213 C 
ATOM      8  C   UNL     1       1.629  -3.532  -0.257  0.00  0.00    +0.113 C 
ATOM      9  C   UNL     1       3.421  -0.863  -0.563  0.00  0.00    +0.205 C 
ATOM     11  C   UNL     1       3.104  -3.203  -0.478  0.00  0.00    +0.175 C 
ENDROOT
BRANCH   7   2
ATOM      2  O   UNL     1       2.403   0.777   0.860  0.00  0.00    -0.485 OA
BRANCH   2  13
ATOM     13  C   UNL     1       1.858   1.974   0.484  0.00  0.00    +0.121 A 
ATOM     17  C   UNL     1       0.473   2.111   0.391  0.00  0.00    +0.045 A 
ATOM     18  C   UNL     1       2.687   3.057   0.193  0.00  0.00    +0.045 A 
ATOM     20  C   UNL     1      -0.083   3.332   0.007  0.00  0.00    +0.004 A 
ATOM     21  C   UNL     1       2.132   4.277  -0.191  0.00  0.00    +0.004 A 
ATOM     22  C   UNL     1       0.747   4.415  -0.284  0.00  0.00    +0.000 A 
ENDBRANCH   2  13
ENDBRANCH   7   2
BRANCH   4  10
ATOM     10  C   UNL     1      -0.535  -2.881   0.551  0.00  0.00    +0.121 C 
BRANCH  10  12
ATOM      5  N   UNL     1      -2.962  -0.464  -1.061  0.00  0.00    -0.221 NA
ATOM     12  C   UNL     1      -1.631  -1.861   0.397  0.00  0.00    -0.015 A 
ATOM     14  C   UNL     1      -2.317  -1.372   1.503  0.00  0.00    +0.011 A 
ATOM     15  C   UNL     1      -1.989  -1.379  -0.853  0.00  0.00    +0.119 A 
ATOM     16  C   UNL     1      -3.325  -0.431   1.329  0.00  0.00    +0.067 A 
ATOM     19  C   UNL     1      -3.607  -0.013   0.038  0.00  0.00    +0.214 A 
BRANCH  19   3
ATOM      3  O   UNL     1      -4.596   0.915  -0.159  0.00  0.00    -0.480 OA
ATOM     23  C   UNL     1      -4.845   1.310  -1.503  0.00  0.00    +0.279 C 
ENDBRANCH  19   3
ENDBRANCH  10  12
ENDBRANCH   4  10
TORSDOF 5
