REMARK  Name = 40533466
REMARK  3 active torsions:
REMARK  status: ('A' for Active; 'I' for Inactive)
REMARK    1  A    between atoms: N_5  and  C_20
REMARK    2  A    between atoms: C_17  and  C_19
REMARK    3  A    between atoms: C_29  and  C_30
REMARK                            x       y       z     vdW  Elec       q    Type
REMARK                         _______ _______ _______ _____ _____    ______ ____
ROOT
ATOM      1  O   UNL     1      -1.739   0.108   1.982  0.00  0.00    -0.267 OA
ATOM      2  O   UNL     1       2.241  -0.931  -2.115  0.00  0.00    -0.252 OA
ATOM      3  N   UNL     1       1.853  -2.453  -0.416  0.00  0.00    -0.284 N 
ATOM      4  N   UNL     1      -1.042  -1.729   0.725  0.00  0.00    -0.311 N 
ATOM      5  N   UNL     1       3.164  -0.531  -0.025  0.00  0.00    -0.269 N 
ATOM      7  C   UNL     1       0.685  -3.410   1.585  0.00  0.00    +0.027 C 
ATOM      8  C   UNL     1      -0.290  -3.699  -0.651  0.00  0.00    +0.054 C 
ATOM      9  C   UNL     1      -0.027  -4.404   0.677  0.00  0.00    +0.018 C 
ATOM     10  C   UNL     1       2.016  -2.944   0.962  0.00  0.00    +0.114 C 
ATOM     11  C   UNL     1      -0.260  -2.233   1.861  0.00  0.00    +0.130 C 
ATOM     12  C   UNL     1       1.056  -3.318  -1.294  0.00  0.00    +0.119 C 
ATOM     13  C   UNL     1      -1.140  -2.457  -0.463  0.00  0.00    +0.027 A 
ATOM     14  C   UNL     1      -1.956  -2.040  -1.443  0.00  0.00    +0.022 A 
ATOM     15  C   UNL     1      -1.770  -0.541   0.935  0.00  0.00    +0.259 A 
ATOM     16  C   UNL     1       2.408  -1.264  -0.939  0.00  0.00    +0.306 C 
ATOM     17  C   UNL     1      -2.646  -0.077  -0.198  0.00  0.00    +0.048 A 
ATOM     18  C   UNL     1      -2.714  -0.829  -1.307  0.00  0.00    +0.015 A 
ATOM     31  H   UNL     1       3.658  -1.039   0.702  0.00  0.00    +0.156 HD
ENDROOT
BRANCH   5  20
ATOM     20  C   UNL     1       3.348   0.873   0.003  0.00  0.00    +0.035 A 
ATOM     23  C   UNL     1       4.211   1.445   0.938  0.00  0.00    +0.023 A 
ATOM     24  C   UNL     1       2.666   1.684  -0.903  0.00  0.00    +0.023 A 
ATOM     26  C   UNL     1       4.392   2.828   0.966  0.00  0.00    +0.005 A 
ATOM     27  C   UNL     1       2.846   3.067  -0.875  0.00  0.00    +0.005 A 
ATOM     29  C   UNL     1       3.710   3.639   0.059  0.00  0.00    -0.050 A 
ATOM     30  C   UNL     1       3.904   5.117   0.089  0.00  0.00    +0.044 C 
ENDBRANCH   5  20
BRANCH  17  19
ATOM      6  N   UNL     1      -5.550   2.302  -0.138  0.00  0.00    -0.263 NA
ATOM     19  C   UNL     1      -3.409   1.180  -0.107  0.00  0.00    +0.005 A 
ATOM     21  C   UNL     1      -2.765   2.397   0.087  0.00  0.00    +0.011 A 
ATOM     22  C   UNL     1      -4.790   1.186  -0.212  0.00  0.00    +0.119 A 
ATOM     25  C   UNL     1      -3.512   3.567   0.169  0.00  0.00    +0.020 A 
ATOM     28  C   UNL     1      -4.889   3.467   0.051  0.00  0.00    +0.111 A 
ENDBRANCH  17  19
TORSDOF 2
