MODEL 1
REMARK VINA RESULT:      -7.3      0.000      0.000
REMARK  Name = 26762309
REMARK  7 active torsions:
REMARK  status: ('A' for Active; 'I' for Inactive)
REMARK    1  A    between atoms: N_6  and  C_11
REMARK    2  A    between atoms: N_7  and  C_21
REMARK    3  A    between atoms: N_8  and  C_20
REMARK    4  A    between atoms: C_10  and  C_16
REMARK    5  A    between atoms: C_16  and  C_17
REMARK    6  A    between atoms: C_17  and  C_19
REMARK    7  A    between atoms: C_20  and  C_22
REMARK                            x       y       z     vdW  Elec       q    Type
REMARK                         _______ _______ _______ _____ _____    ______ ____
ROOT
ATOM      1  O   UNL     1      -7.748 -13.007  19.220  0.00  0.00    -0.274 OA
ATOM      4  N   UNL     1      -5.959 -11.069  16.866  0.00  0.00    -0.285 NA
ATOM      5  N   UNL     1      -5.921 -13.577  17.953  0.00  0.00    -0.313 N 
ATOM      9  C   UNL     1      -6.486 -11.221  18.224  0.00  0.00    +0.145 C 
ATOM     10  C   UNL     1      -4.673 -11.759  16.745  0.00  0.00    +0.075 C 
ATOM     11  C   UNL     1      -7.277  -9.171  17.234  0.00  0.00    +0.090 C 
ATOM     12  C   UNL     1      -7.675 -10.273  18.224  0.00  0.00    +0.052 C 
ATOM     13  C   UNL     1      -5.938  -9.624  16.642  0.00  0.00    +0.107 C 
ATOM     14  C   UNL     1      -4.959 -13.259  16.907  0.00  0.00    +0.123 C 
ATOM     15  C   UNL     1      -6.816 -12.672  18.490  0.00  0.00    +0.230 C 
ATOM     33  H   UNL     1      -6.062 -14.559  18.170  0.00  0.00    +0.149 HD
ENDROOT
BRANCH  11   6
ATOM      2  O   UNL     1      -9.708  -7.675  17.465  0.00  0.00    -0.253 OA
ATOM      6  N   UNL     1      -8.283  -8.999  16.216  0.00  0.00    -0.295 N 
ATOM      7  N   UNL     1     -10.233  -8.258  15.252  0.00  0.00    -0.269 N 
ATOM     18  C   UNL     1      -9.448  -8.247  16.410  0.00  0.00    +0.304 C 
ATOM     34  H   UNL     1      -8.176  -9.504  15.341  0.00  0.00    +0.151 HD
ATOM     35  H   UNL     1      -9.871  -8.783  14.461  0.00  0.00    +0.156 HD
BRANCH   7  21
ATOM     21  C   UNL     1     -11.479  -7.622  15.043  0.00  0.00    +0.035 A 
ATOM     23  C   UNL     1     -12.660  -8.358  15.131  0.00  0.00    +0.023 A 
ATOM     24  C   UNL     1     -11.526  -6.260  14.748  0.00  0.00    +0.023 A 
ATOM     27  C   UNL     1     -13.889  -7.732  14.924  0.00  0.00    +0.002 A 
ATOM     28  C   UNL     1     -12.755  -5.633  14.541  0.00  0.00    +0.002 A 
ATOM     29  C   UNL     1     -13.937  -6.369  14.629  0.00  0.00    +0.000 A 
ENDBRANCH   7  21
ENDBRANCH  11   6
BRANCH  10  16
ATOM     16  C   UNL     1      -3.984 -11.513  15.401  0.00  0.00    +0.029 C 
BRANCH  16  17
ATOM     17  C   UNL     1      -2.537 -11.084  15.596  0.00  0.00    +0.097 C 
BRANCH  17  19
ATOM      3  O   UNL     1      -1.083  -9.547  14.419  0.00  0.00    -0.276 OA
ATOM      8  N   UNL     1      -2.602 -10.817  13.207  0.00  0.00    -0.311 N 
ATOM     19  C   UNL     1      -1.977 -10.387  14.369  0.00  0.00    +0.213 C 
ATOM     36  H   UNL     1      -3.322 -11.532  13.260  0.00  0.00    +0.149 HD
BRANCH   8  20
ATOM     20  C   UNL     1      -2.248 -10.302  11.906  0.00  0.00    +0.139 C 
BRANCH  20  22
ATOM     22  C   UNL     1      -3.440  -9.753  11.176  0.00  0.00    -0.030 A 
ATOM     25  C   UNL     1      -3.307  -9.306   9.861  0.00  0.00    +0.005 A 
ATOM     26  C   UNL     1      -4.680  -9.690  11.812  0.00  0.00    +0.005 A 
ATOM     30  C   UNL     1      -4.414  -8.796   9.183  0.00  0.00    +0.000 A 
ATOM     31  C   UNL     1      -5.787  -9.180  11.134  0.00  0.00    +0.000 A 
ATOM     32  C   UNL     1      -5.654  -8.733   9.819  0.00  0.00    +0.000 A 
ENDBRANCH  20  22
ENDBRANCH   8  20
ENDBRANCH  17  19
ENDBRANCH  16  17
ENDBRANCH  10  16
TORSDOF 7
ENDMDL
MODEL 2
REMARK VINA RESULT:      -7.2     27.676     30.372
REMARK  Name = 26762309
REMARK  7 active torsions:
REMARK  status: ('A' for Active; 'I' for Inactive)
REMARK    1  A    between atoms: N_6  and  C_11
REMARK    2  A    between atoms: N_7  and  C_21
REMARK    3  A    between atoms: N_8  and  C_20
REMARK    4  A    between atoms: C_10  and  C_16
REMARK    5  A    between atoms: C_16  and  C_17
REMARK    6  A    between atoms: C_17  and  C_19
REMARK    7  A    between atoms: C_20  and  C_22
REMARK                            x       y       z     vdW  Elec       q    Type
REMARK                         _______ _______ _______ _____ _____    ______ ____
ROOT
ATOM      1  O   UNL     1      20.613   9.616  22.974  0.00  0.00    -0.274 OA
ATOM      4  N   UNL     1      17.403   8.850  21.705  0.00  0.00    -0.285 NA
ATOM      5  N   UNL     1      19.814   7.635  22.135  0.00  0.00    -0.313 N 
ATOM      9  C   UNL     1      18.599   9.696  21.666  0.00  0.00    +0.145 C 
ATOM     10  C   UNL     1      17.618   7.638  20.912  0.00  0.00    +0.075 C 
ATOM     11  C   UNL     1      16.625  11.037  21.997  0.00  0.00    +0.090 C 
ATOM     12  C   UNL     1      18.120  10.975  22.333  0.00  0.00    +0.052 C 
ATOM     13  C   UNL     1      16.321   9.728  21.261  0.00  0.00    +0.107 C 
ATOM     14  C   UNL     1      18.713   6.831  21.623  0.00  0.00    +0.123 C 
ATOM     15  C   UNL     1      19.748   8.997  22.356  0.00  0.00    +0.230 C 
ATOM     33  H   UNL     1      20.613   7.137  22.519  0.00  0.00    +0.149 HD
ENDROOT
BRANCH  11   6
ATOM      2  O   UNL     1      14.284  12.655  22.309  0.00  0.00    -0.253 OA
ATOM      6  N   UNL     1      15.829  11.178  23.190  0.00  0.00    -0.295 N 
ATOM      7  N   UNL     1      14.127  11.932  24.538  0.00  0.00    -0.269 N 
ATOM     18  C   UNL     1      14.692  11.994  23.260  0.00  0.00    +0.304 C 
ATOM     34  H   UNL     1      16.147  10.722  24.040  0.00  0.00    +0.151 HD
ATOM     35  H   UNL     1      14.592  11.332  25.214  0.00  0.00    +0.156 HD
BRANCH   7  21
ATOM     21  C   UNL     1      12.977  12.607  25.011  0.00  0.00    +0.035 A 
ATOM     23  C   UNL     1      11.709  12.185  24.614  0.00  0.00    +0.023 A 
ATOM     24  C   UNL     1      13.113  13.693  25.875  0.00  0.00    +0.023 A 
ATOM     27  C   UNL     1      10.575  12.849  25.081  0.00  0.00    +0.002 A 
ATOM     28  C   UNL     1      11.979  14.359  26.341  0.00  0.00    +0.002 A 
ATOM     29  C   UNL     1      10.709  13.936  25.945  0.00  0.00    +0.000 A 
ENDBRANCH   7  21
ENDBRANCH  11   6
BRANCH  10  16
ATOM     16  C   UNL     1      16.358   6.780  20.775  0.00  0.00    +0.029 C 
BRANCH  16  17
ATOM     17  C   UNL     1      16.069   6.457  19.316  0.00  0.00    +0.097 C 
BRANCH  17  19
ATOM      3  O   UNL     1      14.618   7.794  17.912  0.00  0.00    -0.276 OA
ATOM      8  N   UNL     1      13.689   6.556  19.643  0.00  0.00    -0.311 N 
ATOM     19  C   UNL     1      14.735   7.021  18.860  0.00  0.00    +0.213 C 
ATOM     36  H   UNL     1      13.879   5.902  20.397  0.00  0.00    +0.149 HD
BRANCH   8  20
ATOM     20  C   UNL     1      12.319   6.949  19.411  0.00  0.00    +0.139 C 
BRANCH  20  22
ATOM     22  C   UNL     1      11.803   7.852  20.494  0.00  0.00    -0.030 A 
ATOM     25  C   UNL     1      11.010   7.332  21.516  0.00  0.00    +0.005 A 
ATOM     26  C   UNL     1      12.118   9.211  20.478  0.00  0.00    +0.005 A 
ATOM     30  C   UNL     1      10.529   8.171  22.522  0.00  0.00    +0.000 A 
ATOM     31  C   UNL     1      11.639  10.050  21.484  0.00  0.00    +0.000 A 
ATOM     32  C   UNL     1      10.845   9.530  22.506  0.00  0.00    +0.000 A 
ENDBRANCH  20  22
ENDBRANCH   8  20
ENDBRANCH  17  19
ENDBRANCH  16  17
ENDBRANCH  10  16
TORSDOF 7
ENDMDL
MODEL 3
REMARK VINA RESULT:      -7.1     18.780     22.597
REMARK  Name = 26762309
REMARK  7 active torsions:
REMARK  status: ('A' for Active; 'I' for Inactive)
REMARK    1  A    between atoms: N_6  and  C_11
REMARK    2  A    between atoms: N_7  and  C_21
REMARK    3  A    between atoms: N_8  and  C_20
REMARK    4  A    between atoms: C_10  and  C_16
REMARK    5  A    between atoms: C_16  and  C_17
REMARK    6  A    between atoms: C_17  and  C_19
REMARK    7  A    between atoms: C_20  and  C_22
REMARK                            x       y       z     vdW  Elec       q    Type
REMARK                         _______ _______ _______ _____ _____    ______ ____
ROOT
ATOM      1  O   UNL     1     -14.154  -0.631  29.092  0.00  0.00    -0.274 OA
ATOM      4  N   UNL     1     -15.525   2.461  30.122  0.00  0.00    -0.285 NA
ATOM      5  N   UNL     1     -13.875   0.498  31.071  0.00  0.00    -0.313 N 
ATOM      9  C   UNL     1     -15.734   1.102  29.614  0.00  0.00    +0.145 C 
ATOM     10  C   UNL     1     -15.392   2.437  31.580  0.00  0.00    +0.075 C 
ATOM     11  C   UNL     1     -16.752   2.720  28.147  0.00  0.00    +0.090 C 
ATOM     12  C   UNL     1     -16.072   1.346  28.151  0.00  0.00    +0.052 C 
ATOM     13  C   UNL     1     -16.651   3.226  29.590  0.00  0.00    +0.107 C 
ATOM     14  C   UNL     1     -14.095   1.678  31.895  0.00  0.00    +0.123 C 
ATOM     15  C   UNL     1     -14.502   0.263  29.862  0.00  0.00    +0.230 C 
ATOM     33  H   UNL     1     -13.087  -0.096  31.312  0.00  0.00    +0.149 HD
ENDROOT
BRANCH  11   6
ATOM      2  O   UNL     1     -17.196   2.865  25.322  0.00  0.00    -0.253 OA
ATOM      6  N   UNL     1     -16.109   3.617  27.219  0.00  0.00    -0.295 N 
ATOM      7  N   UNL     1     -15.613   4.595  25.200  0.00  0.00    -0.269 N 
ATOM     18  C   UNL     1     -16.384   3.624  25.846  0.00  0.00    +0.304 C 
ATOM     34  H   UNL     1     -15.370   4.221  27.565  0.00  0.00    +0.151 HD
ATOM     35  H   UNL     1     -14.986   5.142  25.784  0.00  0.00    +0.156 HD
BRANCH   7  21
ATOM     21  C   UNL     1     -15.597   4.916  23.822  0.00  0.00    +0.035 A 
ATOM     23  C   UNL     1     -16.793   5.174  23.153  0.00  0.00    +0.023 A 
ATOM     24  C   UNL     1     -14.386   4.974  23.134  0.00  0.00    +0.023 A 
ATOM     27  C   UNL     1     -16.778   5.490  21.795  0.00  0.00    +0.002 A 
ATOM     28  C   UNL     1     -14.370   5.289  21.775  0.00  0.00    +0.002 A 
ATOM     29  C   UNL     1     -15.567   5.548  21.105  0.00  0.00    +0.000 A 
ENDBRANCH   7  21
ENDBRANCH  11   6
BRANCH  10  16
ATOM     16  C   UNL     1     -15.329   3.835  32.199  0.00  0.00    +0.029 C 
BRANCH  16  17
ATOM     17  C   UNL     1     -14.497   3.835  33.473  0.00  0.00    +0.097 C 
BRANCH  17  19
ATOM      3  O   UNL     1     -13.947   5.449  35.193  0.00  0.00    -0.276 OA
ATOM      8  N   UNL     1     -14.663   6.208  33.119  0.00  0.00    -0.311 N 
ATOM     19  C   UNL     1     -14.330   5.231  34.046  0.00  0.00    +0.213 C 
ATOM     36  H   UNL     1     -14.954   5.934  32.184  0.00  0.00    +0.149 HD
BRANCH   8  20
ATOM     20  C   UNL     1     -14.589   7.617  33.424  0.00  0.00    +0.139 C 
BRANCH  20  22
ATOM     22  C   UNL     1     -13.655   8.343  32.499  0.00  0.00    -0.030 A 
ATOM     25  C   UNL     1     -12.282   8.109  32.569  0.00  0.00    +0.005 A 
ATOM     26  C   UNL     1     -14.161   9.252  31.569  0.00  0.00    +0.005 A 
ATOM     30  C   UNL     1     -11.414   8.783  31.710  0.00  0.00    +0.000 A 
ATOM     31  C   UNL     1     -13.294   9.927  30.710  0.00  0.00    +0.000 A 
ATOM     32  C   UNL     1     -11.920   9.692  30.780  0.00  0.00    +0.000 A 
ENDBRANCH  20  22
ENDBRANCH   8  20
ENDBRANCH  17  19
ENDBRANCH  16  17
ENDBRANCH  10  16
TORSDOF 7
ENDMDL
MODEL 4
REMARK VINA RESULT:      -7.1     27.145     30.592
REMARK  Name = 26762309
REMARK  7 active torsions:
REMARK  status: ('A' for Active; 'I' for Inactive)
REMARK    1  A    between atoms: N_6  and  C_11
REMARK    2  A    between atoms: N_7  and  C_21
REMARK    3  A    between atoms: N_8  and  C_20
REMARK    4  A    between atoms: C_10  and  C_16
REMARK    5  A    between atoms: C_16  and  C_17
REMARK    6  A    between atoms: C_17  and  C_19
REMARK    7  A    between atoms: C_20  and  C_22
REMARK                            x       y       z     vdW  Elec       q    Type
REMARK                         _______ _______ _______ _____ _____    ______ ____
ROOT
ATOM      1  O   UNL     1      11.068   5.553  21.765  0.00  0.00    -0.274 OA
ATOM      4  N   UNL     1      12.505   8.657  20.871  0.00  0.00    -0.285 NA
ATOM      5  N   UNL     1      10.344   7.680  22.232  0.00  0.00    -0.313 N 
ATOM      9  C   UNL     1      11.986   7.349  20.461  0.00  0.00    +0.145 C 
ATOM     10  C   UNL     1      11.404   9.611  21.020  0.00  0.00    +0.075 C 
ATOM     11  C   UNL     1      14.241   7.652  19.667  0.00  0.00    +0.090 C 
ATOM     12  C   UNL     1      13.256   6.577  20.141  0.00  0.00    +0.052 C 
ATOM     13  C   UNL     1      13.509   8.984  19.860  0.00  0.00    +0.107 C 
ATOM     14  C   UNL     1      10.549   9.122  22.197  0.00  0.00    +0.123 C 
ATOM     15  C   UNL     1      11.132   6.764  21.562  0.00  0.00    +0.230 C 
ATOM     33  H   UNL     1       9.699   7.320  22.930  0.00  0.00    +0.149 HD
ENDROOT
BRANCH  11   6
ATOM      2  O   UNL     1      16.722   6.503  18.818  0.00  0.00    -0.253 OA
ATOM      6  N   UNL     1      15.470   7.601  20.420  0.00  0.00    -0.295 N 
ATOM      7  N   UNL     1      17.669   7.117  20.877  0.00  0.00    -0.269 N 
ATOM     18  C   UNL     1      16.645   7.019  19.930  0.00  0.00    +0.304 C 
ATOM     34  H   UNL     1      15.463   7.939  21.378  0.00  0.00    +0.151 HD
ATOM     35  H   UNL     1      17.437   7.577  21.753  0.00  0.00    +0.156 HD
BRANCH   7  21
ATOM     21  C   UNL     1      19.000   6.653  20.767  0.00  0.00    +0.035 A 
ATOM     23  C   UNL     1      19.248   5.317  20.452  0.00  0.00    +0.023 A 
ATOM     24  C   UNL     1      20.064   7.531  20.973  0.00  0.00    +0.023 A 
ATOM     27  C   UNL     1      20.561   4.859  20.343  0.00  0.00    +0.002 A 
ATOM     28  C   UNL     1      21.377   7.072  20.865  0.00  0.00    +0.002 A 
ATOM     29  C   UNL     1      21.626   5.736  20.550  0.00  0.00    +0.000 A 
ENDBRANCH   7  21
ENDBRANCH  11   6
BRANCH  10  16
ATOM     16  C   UNL     1      11.881  11.039  21.293  0.00  0.00    +0.029 C 
BRANCH  16  17
ATOM     17  C   UNL     1      11.487  11.492  22.691  0.00  0.00    +0.097 C 
BRANCH  17  19
ATOM      3  O   UNL     1      12.645  11.719  24.806  0.00  0.00    -0.276 OA
ATOM      8  N   UNL     1      13.846  11.935  22.831  0.00  0.00    -0.311 N 
ATOM     19  C   UNL     1      12.697  11.722  23.579  0.00  0.00    +0.213 C 
ATOM     36  H   UNL     1      13.798  11.902  21.816  0.00  0.00    +0.149 HD
BRANCH   8  20
ATOM     20  C   UNL     1      15.130  12.180  23.444  0.00  0.00    +0.139 C 
BRANCH  20  22
ATOM     22  C   UNL     1      16.265  11.726  22.572  0.00  0.00    -0.030 A 
ATOM     25  C   UNL     1      16.003  11.182  21.315  0.00  0.00    +0.005 A 
ATOM     26  C   UNL     1      17.581  11.850  23.018  0.00  0.00    +0.005 A 
ATOM     30  C   UNL     1      17.057  10.760  20.504  0.00  0.00    +0.000 A 
ATOM     31  C   UNL     1      18.635  11.429  22.207  0.00  0.00    +0.000 A 
ATOM     32  C   UNL     1      18.373  10.884  20.950  0.00  0.00    +0.000 A 
ENDBRANCH  20  22
ENDBRANCH   8  20
ENDBRANCH  17  19
ENDBRANCH  16  17
ENDBRANCH  10  16
TORSDOF 7
ENDMDL
MODEL 5
REMARK VINA RESULT:      -7.0      1.759      2.606
REMARK  Name = 26762309
REMARK  7 active torsions:
REMARK  status: ('A' for Active; 'I' for Inactive)
REMARK    1  A    between atoms: N_6  and  C_11
REMARK    2  A    between atoms: N_7  and  C_21
REMARK    3  A    between atoms: N_8  and  C_20
REMARK    4  A    between atoms: C_10  and  C_16
REMARK    5  A    between atoms: C_16  and  C_17
REMARK    6  A    between atoms: C_17  and  C_19
REMARK    7  A    between atoms: C_20  and  C_22
REMARK                            x       y       z     vdW  Elec       q    Type
REMARK                         _______ _______ _______ _____ _____    ______ ____
ROOT
ATOM      1  O   UNL     1      -5.464 -14.495  16.315  0.00  0.00    -0.274 OA
ATOM      4  N   UNL     1      -4.134 -11.323  15.498  0.00  0.00    -0.285 NA
ATOM      5  N   UNL     1      -3.648 -13.969  15.014  0.00  0.00    -0.313 N 
ATOM      9  C   UNL     1      -4.552 -12.282  16.524  0.00  0.00    +0.145 C 
ATOM     10  C   UNL     1      -2.767 -11.615  15.063  0.00  0.00    +0.075 C 
ATOM     11  C   UNL     1      -5.705 -10.185  16.807  0.00  0.00    +0.090 C 
ATOM     12  C   UNL     1      -5.870 -11.697  17.006  0.00  0.00    +0.052 C 
ATOM     13  C   UNL     1      -4.349 -10.014  16.114  0.00  0.00    +0.107 C 
ATOM     14  C   UNL     1      -2.809 -12.977  14.357  0.00  0.00    +0.123 C 
ATOM     15  C   UNL     1      -4.639 -13.669  15.929  0.00  0.00    +0.230 C 
ATOM     33  H   UNL     1      -3.624 -14.915  14.645  0.00  0.00    +0.149 HD
ENDROOT
BRANCH  11   6
ATOM      2  O   UNL     1      -8.139  -9.043  17.793  0.00  0.00    -0.253 OA
ATOM      6  N   UNL     1      -6.783  -9.642  16.019  0.00  0.00    -0.295 N 
ATOM      7  N   UNL     1      -8.808  -8.653  15.576  0.00  0.00    -0.269 N 
ATOM     18  C   UNL     1      -7.944  -9.099  16.581  0.00  0.00    +0.304 C 
ATOM     34  H   UNL     1      -6.729  -9.723  15.008  0.00  0.00    +0.151 HD
ATOM     35  H   UNL     1      -8.494  -8.774  14.617  0.00  0.00    +0.156 HD
BRANCH   7  21
ATOM     21  C   UNL     1     -10.077  -8.046  15.729  0.00  0.00    +0.035 A 
ATOM     23  C   UNL     1     -10.200  -6.659  15.656  0.00  0.00    +0.023 A 
ATOM     24  C   UNL     1     -11.205  -8.836  15.953  0.00  0.00    +0.023 A 
ATOM     27  C   UNL     1     -11.451  -6.061  15.806  0.00  0.00    +0.002 A 
ATOM     28  C   UNL     1     -12.456  -8.238  16.105  0.00  0.00    +0.002 A 
ATOM     29  C   UNL     1     -12.579  -6.850  16.031  0.00  0.00    +0.000 A 
ENDBRANCH   7  21
ENDBRANCH  11   6
BRANCH  10  16
ATOM     16  C   UNL     1      -2.204 -10.561  14.107  0.00  0.00    +0.029 C 
BRANCH  16  17
ATOM     17  C   UNL     1      -1.960 -11.147  12.724  0.00  0.00    +0.097 C 
BRANCH  17  19
ATOM      3  O   UNL     1      -0.964  -9.345  11.450  0.00  0.00    -0.276 OA
ATOM      8  N   UNL     1      -3.119 -10.037  10.934  0.00  0.00    -0.311 N 
ATOM     19  C   UNL     1      -1.930 -10.077  11.648  0.00  0.00    +0.213 C 
ATOM     36  H   UNL     1      -3.861 -10.695  11.156  0.00  0.00    +0.149 HD
BRANCH   8  20
ATOM     20  C   UNL     1      -3.340  -9.102   9.856  0.00  0.00    +0.139 C 
BRANCH  20  22
ATOM     22  C   UNL     1      -4.763  -9.121   9.378  0.00  0.00    -0.030 A 
ATOM     25  C   UNL     1      -5.062  -9.582   8.096  0.00  0.00    +0.005 A 
ATOM     26  C   UNL     1      -5.787  -8.678  10.216  0.00  0.00    +0.005 A 
ATOM     30  C   UNL     1      -6.384  -9.600   7.652  0.00  0.00    +0.000 A 
ATOM     31  C   UNL     1      -7.108  -8.696   9.772  0.00  0.00    +0.000 A 
ATOM     32  C   UNL     1      -7.408  -9.157   8.490  0.00  0.00    +0.000 A 
ENDBRANCH  20  22
ENDBRANCH   8  20
ENDBRANCH  17  19
ENDBRANCH  16  17
ENDBRANCH  10  16
TORSDOF 7
ENDMDL
MODEL 6
REMARK VINA RESULT:      -7.0     18.339     22.333
REMARK  Name = 26762309
REMARK  7 active torsions:
REMARK  status: ('A' for Active; 'I' for Inactive)
REMARK    1  A    between atoms: N_6  and  C_11
REMARK    2  A    between atoms: N_7  and  C_21
REMARK    3  A    between atoms: N_8  and  C_20
REMARK    4  A    between atoms: C_10  and  C_16
REMARK    5  A    between atoms: C_16  and  C_17
REMARK    6  A    between atoms: C_17  and  C_19
REMARK    7  A    between atoms: C_20  and  C_22
REMARK                            x       y       z     vdW  Elec       q    Type
REMARK                         _______ _______ _______ _____ _____    ______ ____
ROOT
ATOM      1  O   UNL     1     -16.719   0.195  25.119  0.00  0.00    -0.274 OA
ATOM      4  N   UNL     1     -16.752   3.266  26.872  0.00  0.00    -0.285 NA
ATOM      5  N   UNL     1     -16.673   0.581  27.382  0.00  0.00    -0.313 N 
ATOM      9  C   UNL     1     -17.373   2.376  25.888  0.00  0.00    +0.145 C 
ATOM     10  C   UNL     1     -17.176   2.896  28.224  0.00  0.00    +0.075 C 
ATOM     11  C   UNL     1     -16.916   4.530  24.910  0.00  0.00    +0.090 C 
ATOM     12  C   UNL     1     -17.010   3.038  24.568  0.00  0.00    +0.052 C 
ATOM     13  C   UNL     1     -17.115   4.611  26.428  0.00  0.00    +0.107 C 
ATOM     14  C   UNL     1     -16.594   1.504  28.505  0.00  0.00    +0.123 C 
ATOM     15  C   UNL     1     -16.857   0.966  26.068  0.00  0.00    +0.230 C 
ATOM     33  H   UNL     1     -16.399  -0.382  27.552  0.00  0.00    +0.149 HD
ENDROOT
BRANCH  11   6
ATOM      2  O   UNL     1     -16.325   5.827  22.427  0.00  0.00    -0.253 OA
ATOM      6  N   UNL     1     -15.646   5.079  24.506  0.00  0.00    -0.295 N 
ATOM      7  N   UNL     1     -14.114   6.132  23.156  0.00  0.00    -0.269 N 
ATOM     18  C   UNL     1     -15.439   5.701  23.268  0.00  0.00    +0.304 C 
ATOM     34  H   UNL     1     -14.845   4.944  25.117  0.00  0.00    +0.151 HD
ATOM     35  H   UNL     1     -13.506   5.948  23.949  0.00  0.00    +0.156 HD
BRANCH   7  21
ATOM     21  C   UNL     1     -13.509   6.801  22.066  0.00  0.00    +0.035 A 
ATOM     23  C   UNL     1     -12.494   6.176  21.342  0.00  0.00    +0.023 A 
ATOM     24  C   UNL     1     -13.927   8.084  21.716  0.00  0.00    +0.023 A 
ATOM     27  C   UNL     1     -11.898   6.834  20.267  0.00  0.00    +0.002 A 
ATOM     28  C   UNL     1     -13.330   8.744  20.641  0.00  0.00    +0.002 A 
ATOM     29  C   UNL     1     -12.315   8.118  19.916  0.00  0.00    +0.000 A 
ENDBRANCH   7  21
ENDBRANCH  11   6
BRANCH  10  16
ATOM     16  C   UNL     1     -16.694   3.878  29.294  0.00  0.00    +0.029 C 
BRANCH  16  17
ATOM     17  C   UNL     1     -15.276   3.552  29.739  0.00  0.00    +0.097 C 
BRANCH  17  19
ATOM      3  O   UNL     1     -15.508   2.374  31.842  0.00  0.00    -0.276 OA
ATOM      8  N   UNL     1     -14.661   4.536  31.845  0.00  0.00    -0.311 N 
ATOM     19  C   UNL     1     -15.172   3.394  31.246  0.00  0.00    +0.213 C 
ATOM     36  H   UNL     1     -14.392   5.329  31.268  0.00  0.00    +0.149 HD
BRANCH   8  20
ATOM     20  C   UNL     1     -14.467   4.636  33.273  0.00  0.00    +0.139 C 
BRANCH  20  22
ATOM     22  C   UNL     1     -13.866   5.954  33.667  0.00  0.00    -0.030 A 
ATOM     25  C   UNL     1     -13.503   6.876  32.685  0.00  0.00    +0.005 A 
ATOM     26  C   UNL     1     -13.669   6.257  35.014  0.00  0.00    +0.005 A 
ATOM     30  C   UNL     1     -12.943   8.100  33.050  0.00  0.00    +0.000 A 
ATOM     31  C   UNL     1     -13.110   7.481  35.380  0.00  0.00    +0.000 A 
ATOM     32  C   UNL     1     -12.747   8.403  34.398  0.00  0.00    +0.000 A 
ENDBRANCH  20  22
ENDBRANCH   8  20
ENDBRANCH  17  19
ENDBRANCH  16  17
ENDBRANCH  10  16
TORSDOF 7
ENDMDL
MODEL 7
REMARK VINA RESULT:      -6.9     18.710     20.528
REMARK  Name = 26762309
REMARK  7 active torsions:
REMARK  status: ('A' for Active; 'I' for Inactive)
REMARK    1  A    between atoms: N_6  and  C_11
REMARK    2  A    between atoms: N_7  and  C_21
REMARK    3  A    between atoms: N_8  and  C_20
REMARK    4  A    between atoms: C_10  and  C_16
REMARK    5  A    between atoms: C_16  and  C_17
REMARK    6  A    between atoms: C_17  and  C_19
REMARK    7  A    between atoms: C_20  and  C_22
REMARK                            x       y       z     vdW  Elec       q    Type
REMARK                         _______ _______ _______ _____ _____    ______ ____
ROOT
ATOM      1  O   UNL     1     -19.026   7.231  25.046  0.00  0.00    -0.274 OA
ATOM      4  N   UNL     1     -16.277   5.380  23.814  0.00  0.00    -0.285 NA
ATOM      5  N   UNL     1     -17.573   7.741  23.344  0.00  0.00    -0.313 N 
ATOM      9  C   UNL     1     -17.705   5.441  24.140  0.00  0.00    +0.145 C 
ATOM     10  C   UNL     1     -16.041   5.943  22.484  0.00  0.00    +0.075 C 
ATOM     11  C   UNL     1     -16.653   3.600  25.285  0.00  0.00    +0.090 C 
ATOM     12  C   UNL     1     -17.786   4.625  25.421  0.00  0.00    +0.052 C 
ATOM     13  C   UNL     1     -15.923   3.972  23.991  0.00  0.00    +0.107 C 
ATOM     14  C   UNL     1     -16.378   7.438  22.569  0.00  0.00    +0.123 C 
ATOM     15  C   UNL     1     -18.146   6.881  24.261  0.00  0.00    +0.230 C 
ATOM     33  H   UNL     1     -17.896   8.704  23.341  0.00  0.00    +0.149 HD
ENDROOT
BRANCH  11   6
ATOM      2  O   UNL     1     -17.046   2.277  27.794  0.00  0.00    -0.253 OA
ATOM      6  N   UNL     1     -15.775   3.640  26.427  0.00  0.00    -0.295 N 
ATOM      7  N   UNL     1     -15.016   3.184  28.548  0.00  0.00    -0.269 N 
ATOM     18  C   UNL     1     -16.040   2.961  27.623  0.00  0.00    +0.304 C 
ATOM     34  H   UNL     1     -14.961   4.247  26.389  0.00  0.00    +0.151 HD
ATOM     35  H   UNL     1     -14.250   3.780  28.245  0.00  0.00    +0.156 HD
BRANCH   7  21
ATOM     21  C   UNL     1     -14.911   2.679  29.865  0.00  0.00    +0.035 A 
ATOM     23  C   UNL     1     -14.913   3.556  30.949  0.00  0.00    +0.023 A 
ATOM     24  C   UNL     1     -14.805   1.305  30.078  0.00  0.00    +0.023 A 
ATOM     27  C   UNL     1     -14.809   3.058  32.248  0.00  0.00    +0.002 A 
ATOM     28  C   UNL     1     -14.701   0.807  31.377  0.00  0.00    +0.002 A 
ATOM     29  C   UNL     1     -14.703   1.684  32.463  0.00  0.00    +0.000 A 
ENDBRANCH   7  21
ENDBRANCH  11   6
BRANCH  10  16
ATOM     16  C   UNL     1     -14.596   5.771  22.008  0.00  0.00    +0.029 C 
BRANCH  16  17
ATOM     17  C   UNL     1     -14.135   6.978  21.204  0.00  0.00    +0.097 C 
BRANCH  17  19
ATOM      3  O   UNL     1     -11.904   6.042  21.308  0.00  0.00    -0.276 OA
ATOM      8  N   UNL     1     -12.207   8.138  20.358  0.00  0.00    -0.311 N 
ATOM     19  C   UNL     1     -12.634   6.973  20.976  0.00  0.00    +0.213 C 
ATOM     36  H   UNL     1     -12.886   8.849  20.102  0.00  0.00    +0.149 HD
BRANCH   8  20
ATOM     20  C   UNL     1     -10.819   8.375  20.034  0.00  0.00    +0.139 C 
BRANCH  20  22
ATOM     22  C   UNL     1     -10.653   8.943  18.654  0.00  0.00    -0.030 A 
ATOM     25  C   UNL     1     -10.808   8.120  17.539  0.00  0.00    +0.005 A 
ATOM     26  C   UNL     1     -10.345  10.293  18.487  0.00  0.00    +0.005 A 
ATOM     30  C   UNL     1     -10.654   8.646  16.256  0.00  0.00    +0.000 A 
ATOM     31  C   UNL     1     -10.191  10.820  17.205  0.00  0.00    +0.000 A 
ATOM     32  C   UNL     1     -10.345   9.996  16.089  0.00  0.00    +0.000 A 
ENDBRANCH  20  22
ENDBRANCH   8  20
ENDBRANCH  17  19
ENDBRANCH  16  17
ENDBRANCH  10  16
TORSDOF 7
ENDMDL
MODEL 8
REMARK VINA RESULT:      -6.9      2.705      6.244
REMARK  Name = 26762309
REMARK  7 active torsions:
REMARK  status: ('A' for Active; 'I' for Inactive)
REMARK    1  A    between atoms: N_6  and  C_11
REMARK    2  A    between atoms: N_7  and  C_21
REMARK    3  A    between atoms: N_8  and  C_20
REMARK    4  A    between atoms: C_10  and  C_16
REMARK    5  A    between atoms: C_16  and  C_17
REMARK    6  A    between atoms: C_17  and  C_19
REMARK    7  A    between atoms: C_20  and  C_22
REMARK                            x       y       z     vdW  Elec       q    Type
REMARK                         _______ _______ _______ _____ _____    ______ ____
ROOT
ATOM      1  O   UNL     1      -6.886  -7.758   8.855  0.00  0.00    -0.274 OA
ATOM      4  N   UNL     1      -5.493 -10.310  10.867  0.00  0.00    -0.285 NA
ATOM      5  N   UNL     1      -4.726  -8.532   8.937  0.00  0.00    -0.313 N 
ATOM      9  C   UNL     1      -6.509  -9.889   9.898  0.00  0.00    +0.145 C 
ATOM     10  C   UNL     1      -4.255 -10.669  10.174  0.00  0.00    +0.075 C 
ATOM     11  C   UNL     1      -7.547 -10.824  11.862  0.00  0.00    +0.090 C 
ATOM     12  C   UNL     1      -7.759  -9.781  10.758  0.00  0.00    +0.052 C 
ATOM     13  C   UNL     1      -6.137 -11.378  11.631  0.00  0.00    +0.107 C 
ATOM     14  C   UNL     1      -3.710  -9.381   9.543  0.00  0.00    +0.123 C 
ATOM     15  C   UNL     1      -6.076  -8.610   9.220  0.00  0.00    +0.230 C 
ATOM     33  H   UNL     1      -4.404  -7.722   8.415  0.00  0.00    +0.149 HD
ENDROOT
BRANCH  11   6
ATOM      2  O   UNL     1      -9.879 -10.866  13.523  0.00  0.00    -0.253 OA
ATOM      6  N   UNL     1      -7.684 -10.233  13.170  0.00  0.00    -0.295 N 
ATOM      7  N   UNL     1      -8.701  -9.640  15.143  0.00  0.00    -0.269 N 
ATOM     18  C   UNL     1      -8.864 -10.299  13.921  0.00  0.00    +0.304 C 
ATOM     34  H   UNL     1      -6.912  -9.681  13.533  0.00  0.00    +0.151 HD
ATOM     35  H   UNL     1      -7.791  -9.222  15.317  0.00  0.00    +0.156 HD
BRANCH   7  21
ATOM     21  C   UNL     1      -9.653  -9.482  16.177  0.00  0.00    +0.035 A 
ATOM     23  C   UNL     1     -10.643  -8.506  16.070  0.00  0.00    +0.023 A 
ATOM     24  C   UNL     1      -9.600 -10.303  17.304  0.00  0.00    +0.023 A 
ATOM     27  C   UNL     1     -11.582  -8.351  17.090  0.00  0.00    +0.002 A 
ATOM     28  C   UNL     1     -10.538 -10.147  18.325  0.00  0.00    +0.002 A 
ATOM     29  C   UNL     1     -11.530  -9.171  18.218  0.00  0.00    +0.000 A 
ENDBRANCH   7  21
ENDBRANCH  11   6
BRANCH  10  16
ATOM     16  C   UNL     1      -3.198 -11.270  11.104  0.00  0.00    +0.029 C 
BRANCH  16  17
ATOM     17  C   UNL     1      -2.817 -10.291  12.206  0.00  0.00    +0.097 C 
BRANCH  17  19
ATOM      3  O   UNL     1      -1.782 -12.068  13.485  0.00  0.00    -0.276 OA
ATOM      8  N   UNL     1      -2.777 -10.298  14.610  0.00  0.00    -0.311 N 
ATOM     19  C   UNL     1      -2.391 -11.001  13.478  0.00  0.00    +0.213 C 
ATOM     36  H   UNL     1      -3.264  -9.411  14.508  0.00  0.00    +0.149 HD
BRANCH   8  20
ATOM     20  C   UNL     1      -2.490 -10.768  15.945  0.00  0.00    +0.139 C 
BRANCH  20  22
ATOM     22  C   UNL     1      -3.708 -10.739  16.824  0.00  0.00    -0.030 A 
ATOM     25  C   UNL     1      -4.828 -10.003  16.439  0.00  0.00    +0.005 A 
ATOM     26  C   UNL     1      -3.718 -11.448  18.025  0.00  0.00    +0.005 A 
ATOM     30  C   UNL     1      -5.959  -9.976  17.255  0.00  0.00    +0.000 A 
ATOM     31  C   UNL     1      -4.848 -11.422  18.841  0.00  0.00    +0.000 A 
ATOM     32  C   UNL     1      -5.970 -10.685  18.456  0.00  0.00    +0.000 A 
ENDBRANCH  20  22
ENDBRANCH   8  20
ENDBRANCH  17  19
ENDBRANCH  16  17
ENDBRANCH  10  16
TORSDOF 7
ENDMDL
MODEL 9
REMARK VINA RESULT:      -6.8     25.277     28.896
REMARK  Name = 26762309
REMARK  7 active torsions:
REMARK  status: ('A' for Active; 'I' for Inactive)
REMARK    1  A    between atoms: N_6  and  C_11
REMARK    2  A    between atoms: N_7  and  C_21
REMARK    3  A    between atoms: N_8  and  C_20
REMARK    4  A    between atoms: C_10  and  C_16
REMARK    5  A    between atoms: C_16  and  C_17
REMARK    6  A    between atoms: C_17  and  C_19
REMARK    7  A    between atoms: C_20  and  C_22
REMARK                            x       y       z     vdW  Elec       q    Type
REMARK                         _______ _______ _______ _____ _____    ______ ____
ROOT
ATOM      1  O   UNL     1       8.607  10.039   6.409  0.00  0.00    -0.274 OA
ATOM      4  N   UNL     1      10.532   7.148   5.742  0.00  0.00    -0.285 NA
ATOM      5  N   UNL     1       8.036   8.147   5.243  0.00  0.00    -0.313 N 
ATOM      9  C   UNL     1       9.974   8.087   6.720  0.00  0.00    +0.145 C 
ATOM     10  C   UNL     1       9.535   6.134   5.394  0.00  0.00    +0.075 C 
ATOM     11  C   UNL     1      12.366   7.932   6.964  0.00  0.00    +0.090 C 
ATOM     12  C   UNL     1      11.191   8.904   7.123  0.00  0.00    +0.052 C 
ATOM     13  C   UNL     1      11.760   6.658   6.366  0.00  0.00    +0.107 C 
ATOM     14  C   UNL     1       8.399   6.862   4.661  0.00  0.00    +0.123 C 
ATOM     15  C   UNL     1       8.845   8.873   6.095  0.00  0.00    +0.230 C 
ATOM     33  H   UNL     1       7.221   8.616   4.858  0.00  0.00    +0.149 HD
ENDROOT
BRANCH  11   6
ATOM      2  O   UNL     1      15.118   7.144   6.863  0.00  0.00    -0.253 OA
ATOM      6  N   UNL     1      13.391   8.487   6.115  0.00  0.00    -0.295 N 
ATOM      7  N   UNL     1      15.481   8.763   5.202  0.00  0.00    -0.269 N 
ATOM     18  C   UNL     1      14.719   8.043   6.127  0.00  0.00    +0.304 C 
ATOM     34  H   UNL     1      13.156   9.286   5.534  0.00  0.00    +0.151 HD
ATOM     35  H   UNL     1      14.994   9.478   4.668  0.00  0.00    +0.156 HD
BRANCH   7  21
ATOM     21  C   UNL     1      16.858   8.619   4.913  0.00  0.00    +0.035 A 
ATOM     23  C   UNL     1      17.266   8.254   3.630  0.00  0.00    +0.023 A 
ATOM     24  C   UNL     1      17.807   8.841   5.911  0.00  0.00    +0.023 A 
ATOM     27  C   UNL     1      18.624   8.112   3.344  0.00  0.00    +0.002 A 
ATOM     28  C   UNL     1      19.165   8.698   5.625  0.00  0.00    +0.002 A 
ATOM     29  C   UNL     1      19.574   8.334   4.342  0.00  0.00    +0.000 A 
ENDBRANCH   7  21
ENDBRANCH  11   6
BRANCH  10  16
ATOM     16  C   UNL     1      10.094   5.027   4.498  0.00  0.00    +0.029 C 
BRANCH  16  17
ATOM     17  C   UNL     1      10.315   5.528   3.078  0.00  0.00    +0.097 C 
BRANCH  17  19
ATOM      3  O   UNL     1      10.050   3.983   1.232  0.00  0.00    -0.276 OA
ATOM      8  N   UNL     1      12.028   3.963   2.448  0.00  0.00    -0.311 N 
ATOM     19  C   UNL     1      10.753   4.416   2.142  0.00  0.00    +0.213 C 
ATOM     36  H   UNL     1      12.545   4.394   3.210  0.00  0.00    +0.149 HD
BRANCH   8  20
ATOM     20  C   UNL     1      12.670   2.906   1.702  0.00  0.00    +0.139 C 
BRANCH  20  22
ATOM     22  C   UNL     1      13.647   3.442   0.696  0.00  0.00    -0.030 A 
ATOM     25  C   UNL     1      14.942   3.778   1.091  0.00  0.00    +0.005 A 
ATOM     26  C   UNL     1      13.261   3.604  -0.635  0.00  0.00    +0.005 A 
ATOM     30  C   UNL     1      15.849   4.277   0.157  0.00  0.00    +0.000 A 
ATOM     31  C   UNL     1      14.168   4.102  -1.570  0.00  0.00    +0.000 A 
ATOM     32  C   UNL     1      15.463   4.439  -1.174  0.00  0.00    +0.000 A 
ENDBRANCH  20  22
ENDBRANCH   8  20
ENDBRANCH  17  19
ENDBRANCH  16  17
ENDBRANCH  10  16
TORSDOF 7
ENDMDL
MODEL 10
REMARK VINA RESULT:      -6.7     28.424     32.507
REMARK  Name = 26762309
REMARK  7 active torsions:
REMARK  status: ('A' for Active; 'I' for Inactive)
REMARK    1  A    between atoms: N_6  and  C_11
REMARK    2  A    between atoms: N_7  and  C_21
REMARK    3  A    between atoms: N_8  and  C_20
REMARK    4  A    between atoms: C_10  and  C_16
REMARK    5  A    between atoms: C_16  and  C_17
REMARK    6  A    between atoms: C_17  and  C_19
REMARK    7  A    between atoms: C_20  and  C_22
REMARK                            x       y       z     vdW  Elec       q    Type
REMARK                         _______ _______ _______ _____ _____    ______ ____
ROOT
ATOM      1  O   UNL     1      20.969  11.165  21.820  0.00  0.00    -0.274 OA
ATOM      4  N   UNL     1      19.543   7.945  22.142  0.00  0.00    -0.285 NA
ATOM      5  N   UNL     1      18.937  10.392  21.083  0.00  0.00    -0.313 N 
ATOM      9  C   UNL     1      20.144   9.121  22.777  0.00  0.00    +0.145 C 
ATOM     10  C   UNL     1      18.113   8.169  21.920  0.00  0.00    +0.075 C 
ATOM     11  C   UNL     1      21.356   7.125  23.372  0.00  0.00    +0.090 C 
ATOM     12  C   UNL     1      21.539   8.628  23.129  0.00  0.00    +0.052 C 
ATOM     13  C   UNL     1      19.892   6.834  23.026  0.00  0.00    +0.107 C 
ATOM     14  C   UNL     1      17.997   9.298  20.886  0.00  0.00    +0.123 C 
ATOM     15  C   UNL     1      20.094  10.300  21.833  0.00  0.00    +0.230 C 
ATOM     33  H   UNL     1      18.829  11.210  20.489  0.00  0.00    +0.149 HD
ENDROOT
BRANCH  11   6
ATOM      2  O   UNL     1      22.340   4.495  23.934  0.00  0.00    -0.253 OA
ATOM      6  N   UNL     1      22.262   6.352  22.559  0.00  0.00    -0.295 N 
ATOM      7  N   UNL     1      23.566   4.567  21.933  0.00  0.00    -0.269 N 
ATOM     18  C   UNL     1      22.696   5.067  22.907  0.00  0.00    +0.304 C 
ATOM     34  H   UNL     1      22.661   6.788  21.733  0.00  0.00    +0.151 HD
ATOM     35  H   UNL     1      23.758   5.172  21.139  0.00  0.00    +0.156 HD
BRANCH   7  21
ATOM     21  C   UNL     1      24.218   3.312  21.914  0.00  0.00    +0.035 A 
ATOM     23  C   UNL     1      25.476   3.171  22.498  0.00  0.00    +0.023 A 
ATOM     24  C   UNL     1      23.602   2.216  21.310  0.00  0.00    +0.023 A 
ATOM     27  C   UNL     1      26.119   1.933  22.479  0.00  0.00    +0.002 A 
ATOM     28  C   UNL     1      24.245   0.978  21.290  0.00  0.00    +0.002 A 
ATOM     29  C   UNL     1      25.504   0.836  21.875  0.00  0.00    +0.000 A 
ENDBRANCH   7  21
ENDBRANCH  11   6
BRANCH  10  16
ATOM     16  C   UNL     1      17.384   6.926  21.404  0.00  0.00    +0.029 C 
BRANCH  16  17
ATOM     17  C   UNL     1      17.820   6.582  19.988  0.00  0.00    +0.097 C 
BRANCH  17  19
ATOM      3  O   UNL     1      16.597   5.463  18.222  0.00  0.00    -0.276 OA
ATOM      8  N   UNL     1      15.626   7.279  19.294  0.00  0.00    -0.311 N 
ATOM     19  C   UNL     1      16.636   6.357  19.064  0.00  0.00    +0.213 C 
ATOM     36  H   UNL     1      15.739   7.975  20.027  0.00  0.00    +0.149 HD
BRANCH   8  20
ATOM     20  C   UNL     1      14.394   7.276  18.542  0.00  0.00    +0.139 C 
BRANCH  20  22
ATOM     22  C   UNL     1      13.199   7.513  19.420  0.00  0.00    -0.030 A 
ATOM     25  C   UNL     1      13.156   6.964  20.701  0.00  0.00    +0.005 A 
ATOM     26  C   UNL     1      12.132   8.282  18.954  0.00  0.00    +0.005 A 
ATOM     30  C   UNL     1      12.046   7.184  21.517  0.00  0.00    +0.000 A 
ATOM     31  C   UNL     1      11.023   8.502  19.770  0.00  0.00    +0.000 A 
ATOM     32  C   UNL     1      10.979   7.953  21.052  0.00  0.00    +0.000 A 
ENDBRANCH  20  22
ENDBRANCH   8  20
ENDBRANCH  17  19
ENDBRANCH  16  17
ENDBRANCH  10  16
TORSDOF 7
ENDMDL
