MODEL 1
REMARK VINA RESULT:      -5.9      0.000      0.000
REMARK  Name = 75367732
REMARK  6 active torsions:
REMARK  status: ('A' for Active; 'I' for Inactive)
REMARK    1  A    between atoms: O_5  and  C_9
REMARK    2  A    between atoms: O_5  and  C_17
REMARK    3  A    between atoms: O_6  and  C_20
REMARK    4  A    between atoms: O_6  and  C_21
REMARK    5  A    between atoms: N_7  and  C_11
REMARK    6  A    between atoms: C_11  and  C_14
REMARK                            x       y       z     vdW  Elec       q    Type
REMARK                         _______ _______ _______ _____ _____    ______ ____
ROOT
ATOM     14  C   UNL     1      11.210   9.840  21.687  0.00  0.00    -0.033 A 
ATOM     15  C   UNL     1      10.874   9.711  23.035  0.00  0.00    +0.008 A 
ATOM     16  C   UNL     1      11.725  11.045  21.209  0.00  0.00    +0.008 A 
ATOM     18  C   UNL     1      11.051  10.787  23.904  0.00  0.00    +0.046 A 
ATOM     19  C   UNL     1      11.903  12.122  22.078  0.00  0.00    +0.046 A 
ATOM     20  C   UNL     1      11.566  11.992  23.426  0.00  0.00    +0.130 A 
ENDROOT
BRANCH  20   6
ATOM      6  O   UNL     1      11.740  13.042  24.274  0.00  0.00    -0.406 OA
BRANCH   6  21
ATOM      1  F   UNL     1      10.231  13.196  25.985  0.00  0.00    -0.133 F 
ATOM      2  F   UNL     1      10.861  15.010  24.943  0.00  0.00    -0.133 F 
ATOM      3  F   UNL     1       9.549  13.593  23.921  0.00  0.00    -0.133 F 
ATOM     21  C   UNL     1      10.583  13.697  24.782  0.00  0.00    +0.575 C 
ENDBRANCH   6  21
ENDBRANCH  20   6
BRANCH  14  11
ATOM     11  C   UNL     1      11.019   8.679  20.748  0.00  0.00    +0.119 C 
BRANCH  11   7
ATOM      4  O   UNL     1      14.836   6.629  19.409  0.00  0.00    -0.376 OA
ATOM      7  N   UNL     1      12.280   8.262  20.133  0.00  0.00    -0.293 NA
ATOM      8  C   UNL     1      12.160   8.287  18.671  0.00  0.00    +0.118 C 
ATOM      9  C   UNL     1      13.214   7.526  17.852  0.00  0.00    +0.157 C 
ATOM     10  C   UNL     1      12.745   6.986  20.678  0.00  0.00    +0.113 C 
ATOM     12  C   UNL     1      14.629   7.620  18.408  0.00  0.00    +0.192 C 
ATOM     13  C   UNL     1      14.274   6.946  20.675  0.00  0.00    +0.175 C 
BRANCH   9   5
ATOM      5  O   UNL     1      13.224   8.066  16.529  0.00  0.00    -0.376 OA
ATOM     17  C   UNL     1      12.565   9.321  16.480  0.00  0.00    +0.194 C 
ENDBRANCH   9   5
ENDBRANCH  11   7
ENDBRANCH  14  11
TORSDOF 5
ENDMDL
MODEL 2
REMARK VINA RESULT:      -5.9      6.280      8.416
REMARK  Name = 75367732
REMARK  6 active torsions:
REMARK  status: ('A' for Active; 'I' for Inactive)
REMARK    1  A    between atoms: O_5  and  C_9
REMARK    2  A    between atoms: O_5  and  C_17
REMARK    3  A    between atoms: O_6  and  C_20
REMARK    4  A    between atoms: O_6  and  C_21
REMARK    5  A    between atoms: N_7  and  C_11
REMARK    6  A    between atoms: C_11  and  C_14
REMARK                            x       y       z     vdW  Elec       q    Type
REMARK                         _______ _______ _______ _____ _____    ______ ____
ROOT
ATOM     14  C   UNL     1      16.473   6.685  19.446  0.00  0.00    -0.033 A 
ATOM     15  C   UNL     1      16.743   7.417  20.603  0.00  0.00    +0.008 A 
ATOM     16  C   UNL     1      17.393   5.742  18.988  0.00  0.00    +0.008 A 
ATOM     18  C   UNL     1      17.932   7.208  21.299  0.00  0.00    +0.046 A 
ATOM     19  C   UNL     1      18.583   5.532  19.685  0.00  0.00    +0.046 A 
ATOM     20  C   UNL     1      18.852   6.265  20.841  0.00  0.00    +0.130 A 
ENDROOT
BRANCH  20   6
ATOM      6  O   UNL     1      20.013   6.060  21.522  0.00  0.00    -0.406 OA
BRANCH   6  21
ATOM      1  F   UNL     1      22.177   6.724  21.849  0.00  0.00    -0.133 F 
ATOM      2  F   UNL     1      21.684   5.486  20.117  0.00  0.00    -0.133 F 
ATOM      3  F   UNL     1      21.044   7.575  20.153  0.00  0.00    -0.133 F 
ATOM     21  C   UNL     1      21.232   6.478  20.917  0.00  0.00    +0.575 C 
ENDBRANCH   6  21
ENDBRANCH  20   6
BRANCH  14  11
ATOM     11  C   UNL     1      15.190   6.911  18.693  0.00  0.00    +0.119 C 
BRANCH  11   7
ATOM      4  O   UNL     1      12.509  10.231  20.228  0.00  0.00    -0.376 OA
ATOM      7  N   UNL     1      14.276   7.791  19.423  0.00  0.00    -0.293 NA
ATOM      8  C   UNL     1      13.033   7.078  19.738  0.00  0.00    +0.118 C 
ATOM      9  C   UNL     1      11.810   7.915  20.145  0.00  0.00    +0.157 C 
ATOM     10  C   UNL     1      14.083   9.061  18.723  0.00  0.00    +0.113 C 
ATOM     12  C   UNL     1      12.134   9.114  21.026  0.00  0.00    +0.192 C 
ATOM     13  C   UNL     1      13.840  10.182  19.735  0.00  0.00    +0.175 C 
BRANCH   9   5
ATOM      5  O   UNL     1      10.912   7.069  20.865  0.00  0.00    -0.376 OA
ATOM     17  C   UNL     1      10.577   7.627  22.125  0.00  0.00    +0.194 C 
ENDBRANCH   9   5
ENDBRANCH  11   7
ENDBRANCH  14  11
TORSDOF 5
ENDMDL
MODEL 3
REMARK VINA RESULT:      -5.8     14.159     17.538
REMARK  Name = 75367732
REMARK  6 active torsions:
REMARK  status: ('A' for Active; 'I' for Inactive)
REMARK    1  A    between atoms: O_5  and  C_9
REMARK    2  A    between atoms: O_5  and  C_17
REMARK    3  A    between atoms: O_6  and  C_20
REMARK    4  A    between atoms: O_6  and  C_21
REMARK    5  A    between atoms: N_7  and  C_11
REMARK    6  A    between atoms: C_11  and  C_14
REMARK                            x       y       z     vdW  Elec       q    Type
REMARK                         _______ _______ _______ _____ _____    ______ ____
ROOT
ATOM     14  C   UNL     1      10.693   5.955   5.192  0.00  0.00    -0.033 A 
ATOM     15  C   UNL     1       9.917   4.797   5.208  0.00  0.00    +0.008 A 
ATOM     16  C   UNL     1      11.205   6.468   6.385  0.00  0.00    +0.008 A 
ATOM     18  C   UNL     1       9.650   4.152   6.415  0.00  0.00    +0.046 A 
ATOM     19  C   UNL     1      10.938   5.823   7.593  0.00  0.00    +0.046 A 
ATOM     20  C   UNL     1      10.161   4.665   7.608  0.00  0.00    +0.130 A 
ENDROOT
BRANCH  20   6
ATOM      6  O   UNL     1       9.901   4.036   8.787  0.00  0.00    -0.406 OA
BRANCH   6  21
ATOM      1  F   UNL     1       8.409   4.018  10.519  0.00  0.00    -0.133 F 
ATOM      2  F   UNL     1      10.233   5.210  10.685  0.00  0.00    -0.133 F 
ATOM      3  F   UNL     1       8.647   5.868   9.334  0.00  0.00    -0.133 F 
ATOM     21  C   UNL     1       9.280   4.782   9.827  0.00  0.00    +0.575 C 
ENDBRANCH   6  21
ENDBRANCH  20   6
BRANCH  14  11
ATOM     11  C   UNL     1      10.982   6.652   3.890  0.00  0.00    +0.119 C 
BRANCH  11   7
ATOM      4  O   UNL     1      11.228   4.127   0.131  0.00  0.00    -0.376 OA
ATOM      7  N   UNL     1      11.296   5.702   2.821  0.00  0.00    -0.293 NA
ATOM      8  C   UNL     1      12.717   5.791   2.469  0.00  0.00    +0.118 C 
ATOM      9  C   UNL     1      13.165   5.177   1.133  0.00  0.00    +0.157 C 
ATOM     10  C   UNL     1      10.383   5.850   1.687  0.00  0.00    +0.113 C 
ATOM     12  C   UNL     1      12.470   3.870   0.778  0.00  0.00    +0.192 C 
ATOM     13  C   UNL     1      10.173   4.497   1.007  0.00  0.00    +0.175 C 
BRANCH   9   5
ATOM      5  O   UNL     1      14.569   4.924   1.209  0.00  0.00    -0.376 OA
ATOM     17  C   UNL     1      14.830   3.603   1.658  0.00  0.00    +0.194 C 
ENDBRANCH   9   5
ENDBRANCH  11   7
ENDBRANCH  14  11
TORSDOF 5
ENDMDL
MODEL 4
REMARK VINA RESULT:      -5.8      6.547      8.490
REMARK  Name = 75367732
REMARK  6 active torsions:
REMARK  status: ('A' for Active; 'I' for Inactive)
REMARK    1  A    between atoms: O_5  and  C_9
REMARK    2  A    between atoms: O_5  and  C_17
REMARK    3  A    between atoms: O_6  and  C_20
REMARK    4  A    between atoms: O_6  and  C_21
REMARK    5  A    between atoms: N_7  and  C_11
REMARK    6  A    between atoms: C_11  and  C_14
REMARK                            x       y       z     vdW  Elec       q    Type
REMARK                         _______ _______ _______ _____ _____    ______ ____
ROOT
ATOM     14  C   UNL     1      17.116   7.734  21.119  0.00  0.00    -0.033 A 
ATOM     15  C   UNL     1      17.238   6.569  20.361  0.00  0.00    +0.008 A 
ATOM     16  C   UNL     1      18.257   8.361  21.622  0.00  0.00    +0.008 A 
ATOM     18  C   UNL     1      18.498   6.029  20.109  0.00  0.00    +0.046 A 
ATOM     19  C   UNL     1      19.518   7.821  21.369  0.00  0.00    +0.046 A 
ATOM     20  C   UNL     1      19.638   6.655  20.612  0.00  0.00    +0.130 A 
ENDROOT
BRANCH  20   6
ATOM      6  O   UNL     1      20.869   6.129  20.365  0.00  0.00    -0.406 OA
BRANCH   6  21
ATOM      1  F   UNL     1      20.778   3.853  20.567  0.00  0.00    -0.133 F 
ATOM      2  F   UNL     1      22.624   4.903  21.081  0.00  0.00    -0.133 F 
ATOM      3  F   UNL     1      20.890   5.084  22.400  0.00  0.00    -0.133 F 
ATOM     21  C   UNL     1      21.274   4.985  21.109  0.00  0.00    +0.575 C 
ENDBRANCH   6  21
ENDBRANCH  20   6
BRANCH  14  11
ATOM     11  C   UNL     1      15.756   8.318  21.392  0.00  0.00    +0.119 C 
BRANCH  11   7
ATOM      4  O   UNL     1      12.159   7.185  18.873  0.00  0.00    -0.376 OA
ATOM      7  N   UNL     1      14.793   7.971  20.346  0.00  0.00    -0.293 NA
ATOM      8  C   UNL     1      14.814   8.984  19.285  0.00  0.00    +0.118 C 
ATOM      9  C   UNL     1      13.629   9.022  18.306  0.00  0.00    +0.157 C 
ATOM     10  C   UNL     1      13.466   7.709  20.904  0.00  0.00    +0.113 C 
ATOM     12  C   UNL     1      13.098   7.651  17.910  0.00  0.00    +0.192 C 
ATOM     13  C   UNL     1      12.742   6.660  20.057  0.00  0.00    +0.175 C 
BRANCH   9   5
ATOM      5  O   UNL     1      14.056   9.690  17.118  0.00  0.00    -0.376 OA
ATOM     17  C   UNL     1      13.195   9.400  16.027  0.00  0.00    +0.194 C 
ENDBRANCH   9   5
ENDBRANCH  11   7
ENDBRANCH  14  11
TORSDOF 5
ENDMDL
MODEL 5
REMARK VINA RESULT:      -5.6     13.840     16.848
REMARK  Name = 75367732
REMARK  6 active torsions:
REMARK  status: ('A' for Active; 'I' for Inactive)
REMARK    1  A    between atoms: O_5  and  C_9
REMARK    2  A    between atoms: O_5  and  C_17
REMARK    3  A    between atoms: O_6  and  C_20
REMARK    4  A    between atoms: O_6  and  C_21
REMARK    5  A    between atoms: N_7  and  C_11
REMARK    6  A    between atoms: C_11  and  C_14
REMARK                            x       y       z     vdW  Elec       q    Type
REMARK                         _______ _______ _______ _____ _____    ______ ____
ROOT
ATOM     14  C   UNL     1       8.593   7.213   5.592  0.00  0.00    -0.033 A 
ATOM     15  C   UNL     1       9.308   6.019   5.499  0.00  0.00    +0.008 A 
ATOM     16  C   UNL     1       8.419   7.827   6.833  0.00  0.00    +0.008 A 
ATOM     18  C   UNL     1       9.847   5.438   6.646  0.00  0.00    +0.046 A 
ATOM     19  C   UNL     1       8.959   7.246   7.980  0.00  0.00    +0.046 A 
ATOM     20  C   UNL     1       9.673   6.052   7.887  0.00  0.00    +0.130 A 
ENDROOT
BRANCH  20   6
ATOM      6  O   UNL     1      10.200   5.485   9.007  0.00  0.00    -0.406 OA
BRANCH   6  21
ATOM      1  F   UNL     1       9.050   3.508   9.024  0.00  0.00    -0.133 F 
ATOM      2  F   UNL     1      10.083   4.165  10.834  0.00  0.00    -0.133 F 
ATOM      3  F   UNL     1       8.270   5.208  10.202  0.00  0.00    -0.133 F 
ATOM     21  C   UNL     1       9.385   4.591   9.757  0.00  0.00    +0.575 C 
ENDBRANCH   6  21
ENDBRANCH  20   6
BRANCH  14  11
ATOM     11  C   UNL     1       8.010   7.841   4.354  0.00  0.00    +0.119 C 
BRANCH  11   7
ATOM      4  O   UNL     1       8.307  12.365   4.460  0.00  0.00    -0.376 OA
ATOM      7  N   UNL     1       7.826   9.285   4.510  0.00  0.00    -0.293 NA
ATOM      8  C   UNL     1       6.566   9.702   3.885  0.00  0.00    +0.118 C 
ATOM      9  C   UNL     1       6.371  11.198   3.594  0.00  0.00    +0.157 C 
ATOM     10  C   UNL     1       9.001  10.028   4.055  0.00  0.00    +0.113 C 
ATOM     12  C   UNL     1       6.920  12.124   4.672  0.00  0.00    +0.192 C 
ATOM     13  C   UNL     1       9.159  11.308   4.878  0.00  0.00    +0.175 C 
BRANCH   9   5
ATOM      5  O   UNL     1       4.970  11.448   3.471  0.00  0.00    -0.376 OA
ATOM     17  C   UNL     1       4.370  10.568   2.533  0.00  0.00    +0.194 C 
ENDBRANCH   9   5
ENDBRANCH  11   7
ENDBRANCH  14  11
TORSDOF 5
ENDMDL
MODEL 6
REMARK VINA RESULT:      -5.5     16.487     20.146
REMARK  Name = 75367732
REMARK  6 active torsions:
REMARK  status: ('A' for Active; 'I' for Inactive)
REMARK    1  A    between atoms: O_5  and  C_9
REMARK    2  A    between atoms: O_5  and  C_17
REMARK    3  A    between atoms: O_6  and  C_20
REMARK    4  A    between atoms: O_6  and  C_21
REMARK    5  A    between atoms: N_7  and  C_11
REMARK    6  A    between atoms: C_11  and  C_14
REMARK                            x       y       z     vdW  Elec       q    Type
REMARK                         _______ _______ _______ _____ _____    ______ ____
ROOT
ATOM     14  C   UNL     1      11.769   4.773   2.555  0.00  0.00    -0.033 A 
ATOM     15  C   UNL     1      12.758   5.752   2.471  0.00  0.00    +0.008 A 
ATOM     16  C   UNL     1      12.028   3.479   2.100  0.00  0.00    +0.008 A 
ATOM     18  C   UNL     1      14.005   5.441   1.931  0.00  0.00    +0.046 A 
ATOM     19  C   UNL     1      13.276   3.167   1.560  0.00  0.00    +0.046 A 
ATOM     20  C   UNL     1      14.264   4.147   1.477  0.00  0.00    +0.130 A 
ENDROOT
BRANCH  20   6
ATOM      6  O   UNL     1      15.483   3.842   0.951  0.00  0.00    -0.406 OA
BRANCH   6  21
ATOM      1  F   UNL     1      16.841   3.591  -0.872  0.00  0.00    -0.133 F 
ATOM      2  F   UNL     1      14.696   3.891  -1.164  0.00  0.00    -0.133 F 
ATOM      3  F   UNL     1      15.925   5.566  -0.487  0.00  0.00    -0.133 F 
ATOM     21  C   UNL     1      15.753   4.230  -0.392  0.00  0.00    +0.575 C 
ENDBRANCH   6  21
ENDBRANCH  20   6
BRANCH  14  11
ATOM     11  C   UNL     1      10.422   5.108   3.137  0.00  0.00    +0.119 C 
BRANCH  11   7
ATOM      4  O   UNL     1      10.257   7.540   6.961  0.00  0.00    -0.376 OA
ATOM      7  N   UNL     1      10.534   5.662   4.487  0.00  0.00    -0.293 NA
ATOM      8  C   UNL     1      10.093   4.672   5.476  0.00  0.00    +0.118 C 
ATOM      9  C   UNL     1       9.764   5.171   6.892  0.00  0.00    +0.157 C 
ATOM     10  C   UNL     1       9.864   6.959   4.591  0.00  0.00    +0.113 C 
ATOM     12  C   UNL     1      10.695   6.261   7.407  0.00  0.00    +0.192 C 
ATOM     13  C   UNL     1      10.588   7.838   5.613  0.00  0.00    +0.175 C 
BRANCH   9   5
ATOM      5  O   UNL     1       9.850   4.060   7.786  0.00  0.00    -0.376 OA
ATOM     17  C   UNL     1       9.474   4.429   9.103  0.00  0.00    +0.194 C 
ENDBRANCH   9   5
ENDBRANCH  11   7
ENDBRANCH  14  11
TORSDOF 5
ENDMDL
MODEL 7
REMARK VINA RESULT:      -5.4     27.695     29.329
REMARK  Name = 75367732
REMARK  6 active torsions:
REMARK  status: ('A' for Active; 'I' for Inactive)
REMARK    1  A    between atoms: O_5  and  C_9
REMARK    2  A    between atoms: O_5  and  C_17
REMARK    3  A    between atoms: O_6  and  C_20
REMARK    4  A    between atoms: O_6  and  C_21
REMARK    5  A    between atoms: N_7  and  C_11
REMARK    6  A    between atoms: C_11  and  C_14
REMARK                            x       y       z     vdW  Elec       q    Type
REMARK                         _______ _______ _______ _____ _____    ______ ____
ROOT
ATOM     14  C   UNL     1     -14.687   4.928  32.003  0.00  0.00    -0.033 A 
ATOM     15  C   UNL     1     -15.290   4.576  30.796  0.00  0.00    +0.008 A 
ATOM     16  C   UNL     1     -13.659   4.141  32.524  0.00  0.00    +0.008 A 
ATOM     18  C   UNL     1     -14.868   3.438  30.110  0.00  0.00    +0.046 A 
ATOM     19  C   UNL     1     -13.236   3.002  31.838  0.00  0.00    +0.046 A 
ATOM     20  C   UNL     1     -13.840   2.651  30.631  0.00  0.00    +0.130 A 
ENDROOT
BRANCH  20   6
ATOM      6  O   UNL     1     -13.427   1.540  29.961  0.00  0.00    -0.406 OA
BRANCH   6  21
ATOM      1  F   UNL     1     -14.833   0.359  31.324  0.00  0.00    -0.133 F 
ATOM      2  F   UNL     1     -15.029   0.169  29.156  0.00  0.00    -0.133 F 
ATOM      3  F   UNL     1     -13.309  -0.736  30.156  0.00  0.00    -0.133 F 
ATOM     21  C   UNL     1     -14.142   0.326  30.165  0.00  0.00    +0.575 C 
ENDBRANCH   6  21
ENDBRANCH  20   6
BRANCH  14  11
ATOM     11  C   UNL     1     -15.142   6.156  32.744  0.00  0.00    +0.119 C 
BRANCH  11   7
ATOM      4  O   UNL     1     -12.650   9.927  32.366  0.00  0.00    -0.376 OA
ATOM      7  N   UNL     1     -14.117   7.202  32.748  0.00  0.00    -0.293 NA
ATOM      8  C   UNL     1     -13.550   7.346  34.093  0.00  0.00    +0.118 C 
ATOM      9  C   UNL     1     -12.757   8.625  34.404  0.00  0.00    +0.157 C 
ATOM     10  C   UNL     1     -14.621   8.448  32.169  0.00  0.00    +0.113 C 
ATOM     12  C   UNL     1     -11.887   9.119  33.256  0.00  0.00    +0.192 C 
ATOM     13  C   UNL     1     -13.482   9.196  31.475  0.00  0.00    +0.175 C 
BRANCH   9   5
ATOM      5  O   UNL     1     -11.905   8.361  35.520  0.00  0.00    -0.376 OA
ATOM     17  C   UNL     1     -12.504   7.438  36.417  0.00  0.00    +0.194 C 
ENDBRANCH   9   5
ENDBRANCH  11   7
ENDBRANCH  14  11
TORSDOF 5
ENDMDL
MODEL 8
REMARK VINA RESULT:      -5.4     26.363     27.846
REMARK  Name = 75367732
REMARK  6 active torsions:
REMARK  status: ('A' for Active; 'I' for Inactive)
REMARK    1  A    between atoms: O_5  and  C_9
REMARK    2  A    between atoms: O_5  and  C_17
REMARK    3  A    between atoms: O_6  and  C_20
REMARK    4  A    between atoms: O_6  and  C_21
REMARK    5  A    between atoms: N_7  and  C_11
REMARK    6  A    between atoms: C_11  and  C_14
REMARK                            x       y       z     vdW  Elec       q    Type
REMARK                         _______ _______ _______ _____ _____    ______ ____
ROOT
ATOM     14  C   UNL     1      -2.660 -10.729  13.876  0.00  0.00    -0.033 A 
ATOM     15  C   UNL     1      -1.828 -10.732  14.995  0.00  0.00    +0.008 A 
ATOM     16  C   UNL     1      -4.044 -10.659  14.036  0.00  0.00    +0.008 A 
ATOM     18  C   UNL     1      -2.378 -10.669  16.274  0.00  0.00    +0.046 A 
ATOM     19  C   UNL     1      -4.595 -10.595  15.316  0.00  0.00    +0.046 A 
ATOM     20  C   UNL     1      -3.763 -10.599  16.435  0.00  0.00    +0.130 A 
ENDROOT
BRANCH  20   6
ATOM      6  O   UNL     1      -4.300 -10.536  17.684  0.00  0.00    -0.406 OA
BRANCH   6  21
ATOM      1  F   UNL     1      -3.167 -11.820  19.199  0.00  0.00    -0.133 F 
ATOM      2  F   UNL     1      -5.342 -11.661  19.340  0.00  0.00    -0.133 F 
ATOM      3  F   UNL     1      -4.459 -12.818  17.709  0.00  0.00    -0.133 F 
ATOM     21  C   UNL     1      -4.303 -11.718  18.477  0.00  0.00    +0.575 C 
ENDBRANCH   6  21
ENDBRANCH  20   6
BRANCH  14  11
ATOM     11  C   UNL     1      -2.066 -10.797  12.494  0.00  0.00    +0.119 C 
BRANCH  11   7
ATOM      4  O   UNL     1      -4.657  -9.566   8.982  0.00  0.00    -0.376 OA
ATOM      7  N   UNL     1      -3.082 -10.629  11.454  0.00  0.00    -0.293 NA
ATOM      8  C   UNL     1      -3.315 -11.904  10.767  0.00  0.00    +0.118 C 
ATOM      9  C   UNL     1      -4.039 -11.866   9.412  0.00  0.00    +0.157 C 
ATOM     10  C   UNL     1      -2.759  -9.514  10.564  0.00  0.00    +0.113 C 
ATOM     12  C   UNL     1      -5.168 -10.848   9.331  0.00  0.00    +0.192 C 
ATOM     13  C   UNL     1      -4.047  -8.864  10.056  0.00  0.00    +0.175 C 
BRANCH   9   5
ATOM      5  O   UNL     1      -4.594 -13.160   9.168  0.00  0.00    -0.376 OA
ATOM     17  C   UNL     1      -4.197 -14.087  10.166  0.00  0.00    +0.194 C 
ENDBRANCH   9   5
ENDBRANCH  11   7
ENDBRANCH  14  11
TORSDOF 5
ENDMDL
MODEL 9
REMARK VINA RESULT:      -5.3     23.942     24.958
REMARK  Name = 75367732
REMARK  6 active torsions:
REMARK  status: ('A' for Active; 'I' for Inactive)
REMARK    1  A    between atoms: O_5  and  C_9
REMARK    2  A    between atoms: O_5  and  C_17
REMARK    3  A    between atoms: O_6  and  C_20
REMARK    4  A    between atoms: O_6  and  C_21
REMARK    5  A    between atoms: N_7  and  C_11
REMARK    6  A    between atoms: C_11  and  C_14
REMARK                            x       y       z     vdW  Elec       q    Type
REMARK                         _______ _______ _______ _____ _____    ______ ____
ROOT
ATOM     14  C   UNL     1     -11.720   8.192  19.839  0.00  0.00    -0.033 A 
ATOM     15  C   UNL     1     -13.073   8.469  19.640  0.00  0.00    +0.008 A 
ATOM     16  C   UNL     1     -11.339   7.116  20.642  0.00  0.00    +0.008 A 
ATOM     18  C   UNL     1     -14.044   7.672  20.244  0.00  0.00    +0.046 A 
ATOM     19  C   UNL     1     -12.312   6.319  21.246  0.00  0.00    +0.046 A 
ATOM     20  C   UNL     1     -13.664   6.597  21.047  0.00  0.00    +0.130 A 
ENDROOT
BRANCH  20   6
ATOM      6  O   UNL     1     -14.612   5.818  21.636  0.00  0.00    -0.406 OA
BRANCH   6  21
ATOM      1  F   UNL     1     -14.710   7.278  23.393  0.00  0.00    -0.133 F 
ATOM      2  F   UNL     1     -16.123   5.614  23.301  0.00  0.00    -0.133 F 
ATOM      3  F   UNL     1     -14.026   5.209  23.762  0.00  0.00    -0.133 F 
ATOM     21  C   UNL     1     -14.852   5.986  23.029  0.00  0.00    +0.575 C 
ENDBRANCH   6  21
ENDBRANCH  20   6
BRANCH  14  11
ATOM     11  C   UNL     1     -10.670   9.052  19.187  0.00  0.00    +0.119 C 
BRANCH  11   7
ATOM      4  O   UNL     1     -11.297  10.881  15.085  0.00  0.00    -0.376 OA
ATOM      7  N   UNL     1     -11.015   9.377  17.803  0.00  0.00    -0.293 NA
ATOM      8  C   UNL     1     -10.550   8.314  16.905  0.00  0.00    +0.118 C 
ATOM      9  C   UNL     1     -10.460   8.632  15.404  0.00  0.00    +0.157 C 
ATOM     10  C   UNL     1     -10.556  10.718  17.438  0.00  0.00    +0.113 C 
ATOM     12  C   UNL     1     -11.592   9.504  14.877  0.00  0.00    +0.192 C 
ATOM     13  C   UNL     1     -11.512  11.334  16.414  0.00  0.00    +0.175 C 
BRANCH   9   5
ATOM      5  O   UNL     1     -10.485   7.397  14.686  0.00  0.00    -0.376 OA
ATOM     17  C   UNL     1     -10.168   7.591  13.316  0.00  0.00    +0.194 C 
ENDBRANCH   9   5
ENDBRANCH  11   7
ENDBRANCH  14  11
TORSDOF 5
ENDMDL
MODEL 10
REMARK VINA RESULT:      -5.3     13.801     17.029
REMARK  Name = 75367732
REMARK  6 active torsions:
REMARK  status: ('A' for Active; 'I' for Inactive)
REMARK    1  A    between atoms: O_5  and  C_9
REMARK    2  A    between atoms: O_5  and  C_17
REMARK    3  A    between atoms: O_6  and  C_20
REMARK    4  A    between atoms: O_6  and  C_21
REMARK    5  A    between atoms: N_7  and  C_11
REMARK    6  A    between atoms: C_11  and  C_14
REMARK                            x       y       z     vdW  Elec       q    Type
REMARK                         _______ _______ _______ _____ _____    ______ ____
ROOT
ATOM     14  C   UNL     1      10.952   6.271   5.395  0.00  0.00    -0.033 A 
ATOM     15  C   UNL     1      10.050   5.211   5.292  0.00  0.00    +0.008 A 
ATOM     16  C   UNL     1      11.504   6.598   6.633  0.00  0.00    +0.008 A 
ATOM     18  C   UNL     1       9.699   4.482   6.427  0.00  0.00    +0.046 A 
ATOM     19  C   UNL     1      11.153   5.868   7.769  0.00  0.00    +0.046 A 
ATOM     20  C   UNL     1      10.251   4.810   7.665  0.00  0.00    +0.130 A 
ENDROOT
BRANCH  20   6
ATOM      6  O   UNL     1       9.909   4.097   8.773  0.00  0.00    -0.406 OA
BRANCH   6  21
ATOM      1  F   UNL     1       8.629   5.877   9.422  0.00  0.00    -0.133 F 
ATOM      2  F   UNL     1       8.407   3.963  10.453  0.00  0.00    -0.133 F 
ATOM      3  F   UNL     1      10.213   5.149  10.782  0.00  0.00    -0.133 F 
ATOM     21  C   UNL     1       9.297   4.788   9.857  0.00  0.00    +0.575 C 
ENDBRANCH   6  21
ENDBRANCH  20   6
BRANCH  14  11
ATOM     11  C   UNL     1      11.332   7.059   4.170  0.00  0.00    +0.119 C 
BRANCH  11   7
ATOM      4  O   UNL     1      13.573   4.751   0.974  0.00  0.00    -0.376 OA
ATOM      7  N   UNL     1      12.291   6.337   3.332  0.00  0.00    -0.293 NA
ATOM      8  C   UNL     1      13.505   7.141   3.151  0.00  0.00    +0.118 C 
ATOM      9  C   UNL     1      14.459   6.751   2.010  0.00  0.00    +0.157 C 
ATOM     10  C   UNL     1      11.677   5.882   2.085  0.00  0.00    +0.113 C 
ATOM     12  C   UNL     1      14.614   5.250   1.807  0.00  0.00    +0.192 C 
ATOM     13  C   UNL     1      12.327   4.573   1.632  0.00  0.00    +0.175 C 
BRANCH   9   5
ATOM      5  O   UNL     1      15.748   7.292   2.305  0.00  0.00    -0.376 OA
ATOM     17  C   UNL     1      15.644   8.561   2.929  0.00  0.00    +0.194 C 
ENDBRANCH   9   5
ENDBRANCH  11   7
ENDBRANCH  14  11
TORSDOF 5
ENDMDL
