MODEL 1
REMARK VINA RESULT:      -6.9      0.000      0.000
REMARK  Name = 71693324
REMARK  11 active torsions:
REMARK  status: ('A' for Active; 'I' for Inactive)
REMARK    1  A    between atoms: O_2  and  C_12
REMARK    2  A    between atoms: O_5  and  C_24
REMARK    3  A    between atoms: O_5  and  C_25
REMARK    4  A    between atoms: N_6  and  C_10
REMARK    5  A    between atoms: N_7  and  C_22
REMARK    6  A    between atoms: C_8  and  C_12
REMARK    7  A    between atoms: C_9  and  C_14
REMARK    8  A    between atoms: C_10  and  C_11
REMARK    9  A    between atoms: C_11  and  C_16
REMARK   10  A    between atoms: C_11  and  C_17
REMARK   11  A    between atoms: C_23  and  C_24
REMARK                            x       y       z     vdW  Elec       q    Type
REMARK                         _______ _______ _______ _____ _____    ______ ____
ROOT
ATOM      1  O   UNL     1      15.255   7.138  18.211  0.00  0.00    -0.361 OA
ATOM      3  O   UNL     1      11.739   7.372  17.690  0.00  0.00    -0.273 OA
ATOM      6  N   UNL     1      12.918   7.298  19.700  0.00  0.00    -0.291 N 
ATOM      8  C   UNL     1      14.228   7.170  20.383  0.00  0.00    +0.135 C 
ATOM      9  C   UNL     1      15.369   7.725  19.508  0.00  0.00    +0.171 C 
ATOM     13  C   UNL     1      12.804   7.390  18.311  0.00  0.00    +0.242 C 
ATOM     15  C   UNL     1      14.100   7.599  17.553  0.00  0.00    +0.256 C 
ENDROOT
BRANCH   9  14
ATOM     14  C   UNL     1      16.758   7.404  20.020  0.00  0.00    -0.017 A 
ATOM     18  C   UNL     1      17.446   8.334  20.800  0.00  0.00    +0.008 A 
ATOM     19  C   UNL     1      17.350   6.180  19.710  0.00  0.00    +0.008 A 
ATOM     20  C   UNL     1      18.725   8.039  21.270  0.00  0.00    +0.023 A 
ATOM     21  C   UNL     1      18.630   5.885  20.181  0.00  0.00    +0.023 A 
ATOM     22  C   UNL     1      19.316   6.815  20.961  0.00  0.00    +0.033 A 
BRANCH  22   7
ATOM      4  O   UNL     1      20.276   6.173  23.740  0.00  0.00    -0.273 OA
ATOM      7  N   UNL     1      20.597   6.520  21.432  0.00  0.00    -0.284 N 
ATOM     23  C   UNL     1      20.990   6.224  22.743  0.00  0.00    +0.243 C 
ATOM     27  H   UNL     1      21.331   6.522  20.726  0.00  0.00    +0.155 HD
BRANCH  23  24
ATOM     24  C   UNL     1      22.477   5.959  22.849  0.00  0.00    +0.255 C 
BRANCH  24   5
ATOM      5  O   UNL     1      22.676   4.776  23.595  0.00  0.00    -0.374 OA
ATOM     25  C   UNL     1      22.551   3.611  22.785  0.00  0.00    +0.194 C 
ENDBRANCH  24   5
ENDBRANCH  23  24
ENDBRANCH  22   7
ENDBRANCH   9  14
BRANCH   6  10
ATOM     10  C   UNL     1      11.708   7.079  20.487  0.00  0.00    +0.111 C 
BRANCH  10  11
ATOM     11  C   UNL     1      10.943   8.380  20.754  0.00  0.00    +0.000 C 
ATOM     16  C   UNL     1      11.787   9.582  20.327  0.00  0.00    +0.009 C 
ATOM     17  C   UNL     1      10.552   8.513  22.228  0.00  0.00    +0.009 C 
ENDBRANCH  10  11
ENDBRANCH   6  10
BRANCH   8  12
ATOM     12  C   UNL     1      14.237   7.833  21.767  0.00  0.00    +0.181 C 
BRANCH  12   2
ATOM      2  O   UNL     1      14.905   6.969  22.665  0.00  0.00    -0.393 OA
ATOM     26  H   UNL     1      14.450   7.038  23.521  0.00  0.00    +0.209 HD
ENDBRANCH  12   2
ENDBRANCH   8  12
TORSDOF 8
ENDMDL
MODEL 2
REMARK VINA RESULT:      -6.9      2.031      2.943
REMARK  Name = 71693324
REMARK  11 active torsions:
REMARK  status: ('A' for Active; 'I' for Inactive)
REMARK    1  A    between atoms: O_2  and  C_12
REMARK    2  A    between atoms: O_5  and  C_24
REMARK    3  A    between atoms: O_5  and  C_25
REMARK    4  A    between atoms: N_6  and  C_10
REMARK    5  A    between atoms: N_7  and  C_22
REMARK    6  A    between atoms: C_8  and  C_12
REMARK    7  A    between atoms: C_9  and  C_14
REMARK    8  A    between atoms: C_10  and  C_11
REMARK    9  A    between atoms: C_11  and  C_16
REMARK   10  A    between atoms: C_11  and  C_17
REMARK   11  A    between atoms: C_23  and  C_24
REMARK                            x       y       z     vdW  Elec       q    Type
REMARK                         _______ _______ _______ _____ _____    ______ ____
ROOT
ATOM      1  O   UNL     1      13.607   6.576  20.919  0.00  0.00    -0.361 OA
ATOM      3  O   UNL     1      10.567   8.433  20.990  0.00  0.00    -0.273 OA
ATOM      6  N   UNL     1      12.688   9.125  20.315  0.00  0.00    -0.291 N 
ATOM      8  C   UNL     1      14.125   8.794  20.155  0.00  0.00    +0.135 C 
ATOM      9  C   UNL     1      14.326   7.286  19.909  0.00  0.00    +0.171 C 
ATOM     13  C   UNL     1      11.743   8.181  20.722  0.00  0.00    +0.242 C 
ATOM     15  C   UNL     1      12.218   6.741  20.754  0.00  0.00    +0.256 C 
ENDROOT
BRANCH   9  14
ATOM     14  C   UNL     1      15.767   6.829  19.987  0.00  0.00    -0.017 A 
ATOM     18  C   UNL     1      16.361   6.205  18.890  0.00  0.00    +0.008 A 
ATOM     19  C   UNL     1      16.501   7.031  21.156  0.00  0.00    +0.008 A 
ATOM     20  C   UNL     1      17.689   5.783  18.962  0.00  0.00    +0.023 A 
ATOM     21  C   UNL     1      17.829   6.609  21.228  0.00  0.00    +0.023 A 
ATOM     22  C   UNL     1      18.422   5.985  20.130  0.00  0.00    +0.033 A 
BRANCH  22   7
ATOM      4  O   UNL     1      20.939   7.541  20.677  0.00  0.00    -0.273 OA
ATOM      7  N   UNL     1      19.750   5.563  20.202  0.00  0.00    -0.284 N 
ATOM     23  C   UNL     1      20.890   6.333  20.464  0.00  0.00    +0.243 C 
ATOM     27  H   UNL     1      19.899   4.568  20.044  0.00  0.00    +0.155 HD
BRANCH  23  24
ATOM     24  C   UNL     1      22.157   5.503  20.457  0.00  0.00    +0.255 C 
BRANCH  24   5
ATOM      5  O   UNL     1      21.833   4.177  20.819  0.00  0.00    -0.374 OA
ATOM     25  C   UNL     1      22.175   3.899  22.174  0.00  0.00    +0.194 C 
ENDBRANCH  24   5
ENDBRANCH  23  24
ENDBRANCH  22   7
ENDBRANCH   9  14
BRANCH   6  10
ATOM     10  C   UNL     1      12.299  10.532  20.279  0.00  0.00    +0.111 C 
BRANCH  10  11
ATOM     11  C   UNL     1      12.596  11.253  21.599  0.00  0.00    +0.000 C 
ATOM     16  C   UNL     1      11.297  11.776  22.214  0.00  0.00    +0.009 C 
ATOM     17  C   UNL     1      13.583  12.406  21.403  0.00  0.00    +0.009 C 
ENDBRANCH  10  11
ENDBRANCH   6  10
BRANCH   8  12
ATOM     12  C   UNL     1      14.798   9.616  19.048  0.00  0.00    +0.181 C 
BRANCH  12   2
ATOM      2  O   UNL     1      14.337   9.138  17.800  0.00  0.00    -0.393 OA
ATOM     26  H   UNL     1      13.539   9.645  17.575  0.00  0.00    +0.209 HD
ENDBRANCH  12   2
ENDBRANCH   8  12
TORSDOF 8
ENDMDL
MODEL 3
REMARK VINA RESULT:      -6.2      1.689      9.200
REMARK  Name = 71693324
REMARK  11 active torsions:
REMARK  status: ('A' for Active; 'I' for Inactive)
REMARK    1  A    between atoms: O_2  and  C_12
REMARK    2  A    between atoms: O_5  and  C_24
REMARK    3  A    between atoms: O_5  and  C_25
REMARK    4  A    between atoms: N_6  and  C_10
REMARK    5  A    between atoms: N_7  and  C_22
REMARK    6  A    between atoms: C_8  and  C_12
REMARK    7  A    between atoms: C_9  and  C_14
REMARK    8  A    between atoms: C_10  and  C_11
REMARK    9  A    between atoms: C_11  and  C_16
REMARK   10  A    between atoms: C_11  and  C_17
REMARK   11  A    between atoms: C_23  and  C_24
REMARK                            x       y       z     vdW  Elec       q    Type
REMARK                         _______ _______ _______ _____ _____    ______ ____
ROOT
ATOM      1  O   UNL     1      20.149   6.467  23.544  0.00  0.00    -0.361 OA
ATOM      3  O   UNL     1      23.251   5.299  24.850  0.00  0.00    -0.273 OA
ATOM      6  N   UNL     1      22.472   5.237  22.653  0.00  0.00    -0.291 N 
ATOM      8  C   UNL     1      21.366   5.514  21.705  0.00  0.00    +0.135 C 
ATOM      9  C   UNL     1      20.508   6.702  22.182  0.00  0.00    +0.171 C 
ATOM     13  C   UNL     1      22.419   5.615  23.997  0.00  0.00    +0.242 C 
ATOM     15  C   UNL     1      21.279   6.539  24.379  0.00  0.00    +0.256 C 
ENDROOT
BRANCH   9  14
ATOM     14  C   UNL     1      19.219   6.888  21.409  0.00  0.00    -0.017 A 
ATOM     18  C   UNL     1      18.834   5.944  20.456  0.00  0.00    +0.008 A 
ATOM     19  C   UNL     1      18.416   8.004  21.650  0.00  0.00    +0.008 A 
ATOM     20  C   UNL     1      17.648   6.116  19.744  0.00  0.00    +0.023 A 
ATOM     21  C   UNL     1      17.229   8.175  20.937  0.00  0.00    +0.023 A 
ATOM     22  C   UNL     1      16.845   7.231  19.985  0.00  0.00    +0.033 A 
BRANCH  22   7
ATOM      4  O   UNL     1      14.002   6.608  20.747  0.00  0.00    -0.273 OA
ATOM      7  N   UNL     1      15.658   7.403  19.272  0.00  0.00    -0.284 N 
ATOM     23  C   UNL     1      14.353   7.097  19.678  0.00  0.00    +0.243 C 
ATOM     27  H   UNL     1      15.764   7.803  18.341  0.00  0.00    +0.155 HD
BRANCH  23  24
ATOM     24  C   UNL     1      13.329   7.432  18.614  0.00  0.00    +0.255 C 
BRANCH  24   5
ATOM      5  O   UNL     1      12.036   7.262  19.157  0.00  0.00    -0.374 OA
ATOM     25  C   UNL     1      11.369   8.507  19.339  0.00  0.00    +0.194 C 
ENDBRANCH  24   5
ENDBRANCH  23  24
ENDBRANCH  22   7
ENDBRANCH   9  14
BRANCH   6  10
ATOM     10  C   UNL     1      23.536   4.334  22.223  0.00  0.00    +0.111 C 
BRANCH  10  11
ATOM     11  C   UNL     1      23.059   2.882  22.115  0.00  0.00    +0.000 C 
ATOM     16  C   UNL     1      23.469   2.100  23.364  0.00  0.00    +0.009 C 
ATOM     17  C   UNL     1      23.616   2.197  20.865  0.00  0.00    +0.009 C 
ENDBRANCH  10  11
ENDBRANCH   6  10
BRANCH   8  12
ATOM     12  C   UNL     1      21.865   5.749  20.272  0.00  0.00    +0.181 C 
BRANCH  12   2
ATOM      2  O   UNL     1      22.421   7.046  20.205  0.00  0.00    -0.393 OA
ATOM     26  H   UNL     1      21.776   7.612  19.750  0.00  0.00    +0.209 HD
ENDBRANCH  12   2
ENDBRANCH   8  12
TORSDOF 8
ENDMDL
MODEL 4
REMARK VINA RESULT:      -6.1      2.372      3.589
REMARK  Name = 71693324
REMARK  11 active torsions:
REMARK  status: ('A' for Active; 'I' for Inactive)
REMARK    1  A    between atoms: O_2  and  C_12
REMARK    2  A    between atoms: O_5  and  C_24
REMARK    3  A    between atoms: O_5  and  C_25
REMARK    4  A    between atoms: N_6  and  C_10
REMARK    5  A    between atoms: N_7  and  C_22
REMARK    6  A    between atoms: C_8  and  C_12
REMARK    7  A    between atoms: C_9  and  C_14
REMARK    8  A    between atoms: C_10  and  C_11
REMARK    9  A    between atoms: C_11  and  C_16
REMARK   10  A    between atoms: C_11  and  C_17
REMARK   11  A    between atoms: C_23  and  C_24
REMARK                            x       y       z     vdW  Elec       q    Type
REMARK                         _______ _______ _______ _____ _____    ______ ____
ROOT
ATOM      1  O   UNL     1      17.575   9.160  21.293  0.00  0.00    -0.361 OA
ATOM      3  O   UNL     1      14.597  11.054  20.809  0.00  0.00    -0.273 OA
ATOM      6  N   UNL     1      15.105   8.909  20.052  0.00  0.00    -0.291 N 
ATOM      8  C   UNL     1      16.103   7.816  19.952  0.00  0.00    +0.135 C 
ATOM      9  C   UNL     1      17.068   7.832  21.153  0.00  0.00    +0.171 C 
ATOM     13  C   UNL     1      15.336  10.068  20.796  0.00  0.00    +0.242 C 
ATOM     15  C   UNL     1      16.557  10.044  21.695  0.00  0.00    +0.256 C 
ENDROOT
BRANCH   9  14
ATOM     14  C   UNL     1      18.264   6.914  21.002  0.00  0.00    -0.017 A 
ATOM     18  C   UNL     1      18.265   5.927  20.016  0.00  0.00    +0.008 A 
ATOM     19  C   UNL     1      19.363   7.057  21.849  0.00  0.00    +0.008 A 
ATOM     20  C   UNL     1      19.366   5.082  19.878  0.00  0.00    +0.023 A 
ATOM     21  C   UNL     1      20.464   6.211  21.710  0.00  0.00    +0.023 A 
ATOM     22  C   UNL     1      20.465   5.224  20.724  0.00  0.00    +0.033 A 
BRANCH  22   7
ATOM      4  O   UNL     1      21.824   3.443  22.734  0.00  0.00    -0.273 OA
ATOM      7  N   UNL     1      21.567   4.378  20.586  0.00  0.00    -0.284 N 
ATOM     23  C   UNL     1      22.160   3.564  21.559  0.00  0.00    +0.243 C 
ATOM     27  H   UNL     1      21.984   4.356  19.658  0.00  0.00    +0.155 HD
BRANCH  23  24
ATOM     24  C   UNL     1      23.343   2.791  21.016  0.00  0.00    +0.255 C 
BRANCH  24   5
ATOM      5  O   UNL     1      23.749   1.843  21.981  0.00  0.00    -0.374 OA
ATOM     25  C   UNL     1      24.782   0.995  21.489  0.00  0.00    +0.194 C 
ENDBRANCH  24   5
ENDBRANCH  23  24
ENDBRANCH  22   7
ENDBRANCH   9  14
BRANCH   6  10
ATOM     10  C   UNL     1      13.955   8.874  19.153  0.00  0.00    +0.111 C 
BRANCH  10  11
ATOM     11  C   UNL     1      14.327   9.253  17.715  0.00  0.00    +0.000 C 
ATOM     16  C   UNL     1      13.600  10.534  17.305  0.00  0.00    +0.009 C 
ATOM     17  C   UNL     1      13.997   8.128  16.731  0.00  0.00    +0.009 C 
ENDBRANCH  10  11
ENDBRANCH   6  10
BRANCH   8  12
ATOM     12  C   UNL     1      15.449   6.435  19.802  0.00  0.00    +0.181 C 
BRANCH  12   2
ATOM      2  O   UNL     1      14.837   6.101  21.031  0.00  0.00    -0.393 OA
ATOM     26  H   UNL     1      15.136   6.752  21.688  0.00  0.00    +0.209 HD
ENDBRANCH  12   2
ENDBRANCH   8  12
TORSDOF 8
ENDMDL
MODEL 5
REMARK VINA RESULT:      -6.1     27.148     30.337
REMARK  Name = 71693324
REMARK  11 active torsions:
REMARK  status: ('A' for Active; 'I' for Inactive)
REMARK    1  A    between atoms: O_2  and  C_12
REMARK    2  A    between atoms: O_5  and  C_24
REMARK    3  A    between atoms: O_5  and  C_25
REMARK    4  A    between atoms: N_6  and  C_10
REMARK    5  A    between atoms: N_7  and  C_22
REMARK    6  A    between atoms: C_8  and  C_12
REMARK    7  A    between atoms: C_9  and  C_14
REMARK    8  A    between atoms: C_10  and  C_11
REMARK    9  A    between atoms: C_11  and  C_16
REMARK   10  A    between atoms: C_11  and  C_17
REMARK   11  A    between atoms: C_23  and  C_24
REMARK                            x       y       z     vdW  Elec       q    Type
REMARK                         _______ _______ _______ _____ _____    ______ ____
ROOT
ATOM      1  O   UNL     1     -10.868   8.286  20.104  0.00  0.00    -0.361 OA
ATOM      3  O   UNL     1      -9.766   9.772  17.060  0.00  0.00    -0.273 OA
ATOM      6  N   UNL     1     -11.777   8.683  17.512  0.00  0.00    -0.291 N 
ATOM      8  C   UNL     1     -12.608   7.934  18.485  0.00  0.00    +0.135 C 
ATOM      9  C   UNL     1     -12.284   8.353  19.933  0.00  0.00    +0.171 C 
ATOM     13  C   UNL     1     -10.549   9.252  17.857  0.00  0.00    +0.242 C 
ATOM     15  C   UNL     1     -10.224   9.275  19.338  0.00  0.00    +0.256 C 
ENDROOT
BRANCH   9  14
ATOM     14  C   UNL     1     -12.902   7.463  20.991  0.00  0.00    -0.017 A 
ATOM     18  C   UNL     1     -12.395   6.181  21.206  0.00  0.00    +0.008 A 
ATOM     19  C   UNL     1     -13.977   7.925  21.750  0.00  0.00    +0.008 A 
ATOM     20  C   UNL     1     -12.965   5.361  22.180  0.00  0.00    +0.023 A 
ATOM     21  C   UNL     1     -14.546   7.104  22.725  0.00  0.00    +0.023 A 
ATOM     22  C   UNL     1     -14.039   5.823  22.939  0.00  0.00    +0.033 A 
BRANCH  22   7
ATOM      4  O   UNL     1     -15.971   3.531  22.677  0.00  0.00    -0.273 OA
ATOM      7  N   UNL     1     -14.609   5.003  23.914  0.00  0.00    -0.284 N 
ATOM     23  C   UNL     1     -15.506   3.942  23.736  0.00  0.00    +0.243 C 
ATOM     27  H   UNL     1     -14.332   5.208  24.872  0.00  0.00    +0.155 HD
BRANCH  23  24
ATOM     24  C   UNL     1     -15.896   3.294  25.048  0.00  0.00    +0.255 C 
BRANCH  24   5
ATOM      5  O   UNL     1     -15.980   1.897  24.858  0.00  0.00    -0.374 OA
ATOM     25  C   UNL     1     -16.707   1.263  25.907  0.00  0.00    +0.194 C 
ENDBRANCH  24   5
ENDBRANCH  23  24
ENDBRANCH  22   7
ENDBRANCH   9  14
BRANCH   6  10
ATOM     10  C   UNL     1     -12.142   8.614  16.100  0.00  0.00    +0.111 C 
BRANCH  10  11
ATOM     11  C   UNL     1     -12.684   9.947  15.571  0.00  0.00    +0.000 C 
ATOM     16  C   UNL     1     -14.102   9.760  15.031  0.00  0.00    +0.009 C 
ATOM     17  C   UNL     1     -11.782  10.531  14.481  0.00  0.00    +0.009 C 
ENDBRANCH  10  11
ENDBRANCH   6  10
BRANCH   8  12
ATOM     12  C   UNL     1     -14.111   8.073  18.206  0.00  0.00    +0.181 C 
BRANCH  12   2
ATOM      2  O   UNL     1     -14.507   9.381  18.565  0.00  0.00    -0.393 OA
ATOM     26  H   UNL     1     -15.319   9.582  18.069  0.00  0.00    +0.209 HD
ENDBRANCH  12   2
ENDBRANCH   8  12
TORSDOF 8
ENDMDL
MODEL 6
REMARK VINA RESULT:      -6.0     26.438     29.790
REMARK  Name = 71693324
REMARK  11 active torsions:
REMARK  status: ('A' for Active; 'I' for Inactive)
REMARK    1  A    between atoms: O_2  and  C_12
REMARK    2  A    between atoms: O_5  and  C_24
REMARK    3  A    between atoms: O_5  and  C_25
REMARK    4  A    between atoms: N_6  and  C_10
REMARK    5  A    between atoms: N_7  and  C_22
REMARK    6  A    between atoms: C_8  and  C_12
REMARK    7  A    between atoms: C_9  and  C_14
REMARK    8  A    between atoms: C_10  and  C_11
REMARK    9  A    between atoms: C_11  and  C_16
REMARK   10  A    between atoms: C_11  and  C_17
REMARK   11  A    between atoms: C_23  and  C_24
REMARK                            x       y       z     vdW  Elec       q    Type
REMARK                         _______ _______ _______ _____ _____    ______ ____
ROOT
ATOM      1  O   UNL     1      -2.342  -9.994  12.874  0.00  0.00    -0.361 OA
ATOM      3  O   UNL     1      -1.854 -10.816  16.307  0.00  0.00    -0.273 OA
ATOM      6  N   UNL     1      -3.731 -11.171  14.970  0.00  0.00    -0.291 N 
ATOM      8  C   UNL     1      -4.384 -10.994  13.651  0.00  0.00    +0.135 C 
ATOM      9  C   UNL     1      -3.343 -10.947  12.515  0.00  0.00    +0.171 C 
ATOM     13  C   UNL     1      -2.402 -10.806  15.203  0.00  0.00    +0.242 C 
ATOM     15  C   UNL     1      -1.590 -10.449  13.974  0.00  0.00    +0.256 C 
ENDROOT
BRANCH   9  14
ATOM     14  C   UNL     1      -3.903 -10.519  11.175  0.00  0.00    -0.017 A 
ATOM     18  C   UNL     1      -3.863 -11.395  10.090  0.00  0.00    +0.008 A 
ATOM     19  C   UNL     1      -4.458  -9.248  11.025  0.00  0.00    +0.008 A 
ATOM     20  C   UNL     1      -4.377 -11.000   8.855  0.00  0.00    +0.023 A 
ATOM     21  C   UNL     1      -4.973  -8.853   9.789  0.00  0.00    +0.023 A 
ATOM     22  C   UNL     1      -4.933  -9.730   8.706  0.00  0.00    +0.033 A 
BRANCH  22   7
ATOM      4  O   UNL     1      -7.623 -10.238   7.458  0.00  0.00    -0.273 OA
ATOM      7  N   UNL     1      -5.448  -9.334   7.470  0.00  0.00    -0.284 N 
ATOM     23  C   UNL     1      -6.715  -9.598   6.937  0.00  0.00    +0.243 C 
ATOM     27  H   UNL     1      -4.815  -8.785   6.891  0.00  0.00    +0.155 HD
BRANCH  23  24
ATOM     24  C   UNL     1      -6.895  -8.993   5.560  0.00  0.00    +0.255 C 
BRANCH  24   5
ATOM      5  O   UNL     1      -7.650  -7.806   5.679  0.00  0.00    -0.374 OA
ATOM     25  C   UNL     1      -8.688  -7.738   4.706  0.00  0.00    +0.194 C 
ENDBRANCH  24   5
ENDBRANCH  23  24
ENDBRANCH  22   7
ENDBRANCH   9  14
BRANCH   6  10
ATOM     10  C   UNL     1      -4.573 -11.509  16.114  0.00  0.00    +0.111 C 
BRANCH  10  11
ATOM     11  C   UNL     1      -4.947 -10.279  16.947  0.00  0.00    +0.000 C 
ATOM     16  C   UNL     1      -5.164 -10.680  18.407  0.00  0.00    +0.009 C 
ATOM     17  C   UNL     1      -6.200  -9.589  16.403  0.00  0.00    +0.009 C 
ENDBRANCH  10  11
ENDBRANCH   6  10
BRANCH   8  12
ATOM     12  C   UNL     1      -5.443 -12.069  13.370  0.00  0.00    +0.181 C 
BRANCH  12   2
ATOM      2  O   UNL     1      -4.776 -13.288  13.111  0.00  0.00    -0.393 OA
ATOM     26  H   UNL     1      -4.701 -13.759  13.958  0.00  0.00    +0.209 HD
ENDBRANCH  12   2
ENDBRANCH   8  12
TORSDOF 8
ENDMDL
MODEL 7
REMARK VINA RESULT:      -5.9     21.751     26.352
REMARK  Name = 71693324
REMARK  11 active torsions:
REMARK  status: ('A' for Active; 'I' for Inactive)
REMARK    1  A    between atoms: O_2  and  C_12
REMARK    2  A    between atoms: O_5  and  C_24
REMARK    3  A    between atoms: O_5  and  C_25
REMARK    4  A    between atoms: N_6  and  C_10
REMARK    5  A    between atoms: N_7  and  C_22
REMARK    6  A    between atoms: C_8  and  C_12
REMARK    7  A    between atoms: C_9  and  C_14
REMARK    8  A    between atoms: C_10  and  C_11
REMARK    9  A    between atoms: C_11  and  C_16
REMARK   10  A    between atoms: C_11  and  C_17
REMARK   11  A    between atoms: C_23  and  C_24
REMARK                            x       y       z     vdW  Elec       q    Type
REMARK                         _______ _______ _______ _____ _____    ______ ____
ROOT
ATOM      1  O   UNL     1      -1.636   9.565   3.243  0.00  0.00    -0.361 OA
ATOM      3  O   UNL     1       1.023  11.898   3.663  0.00  0.00    -0.273 OA
ATOM      6  N   UNL     1      -0.669  11.324   5.160  0.00  0.00    -0.291 N 
ATOM      8  C   UNL     1      -1.900  10.539   5.423  0.00  0.00    +0.135 C 
ATOM      9  C   UNL     1      -1.914   9.234   4.604  0.00  0.00    +0.171 C 
ATOM     13  C   UNL     1       0.071  11.185   3.984  0.00  0.00    +0.242 C 
ATOM     15  C   UNL     1      -0.310  10.015   3.098  0.00  0.00    +0.256 C 
ENDROOT
BRANCH   9  14
ATOM     14  C   UNL     1      -3.240   8.503   4.621  0.00  0.00    -0.017 A 
ATOM     18  C   UNL     1      -3.336   7.248   5.223  0.00  0.00    +0.008 A 
ATOM     19  C   UNL     1      -4.364   9.083   4.035  0.00  0.00    +0.008 A 
ATOM     20  C   UNL     1      -4.557   6.574   5.238  0.00  0.00    +0.023 A 
ATOM     21  C   UNL     1      -5.586   8.409   4.050  0.00  0.00    +0.023 A 
ATOM     22  C   UNL     1      -5.681   7.154   4.652  0.00  0.00    +0.033 A 
BRANCH  22   7
ATOM      4  O   UNL     1      -8.216   7.738   6.166  0.00  0.00    -0.273 OA
ATOM      7  N   UNL     1      -6.903   6.480   4.667  0.00  0.00    -0.284 N 
ATOM     23  C   UNL     1      -8.058   6.798   5.392  0.00  0.00    +0.243 C 
ATOM     27  H   UNL     1      -6.951   5.655   4.072  0.00  0.00    +0.155 HD
BRANCH  23  24
ATOM     24  C   UNL     1      -9.183   5.817   5.137  0.00  0.00    +0.255 C 
BRANCH  24   5
ATOM      5  O   UNL     1      -8.716   4.806   4.268  0.00  0.00    -0.374 OA
ATOM     25  C   UNL     1      -9.609   4.590   3.179  0.00  0.00    +0.194 C 
ENDBRANCH  24   5
ENDBRANCH  23  24
ENDBRANCH  22   7
ENDBRANCH   9  14
BRANCH   6  10
ATOM     10  C   UNL     1      -0.363  12.441   6.049  0.00  0.00    +0.111 C 
BRANCH  10  11
ATOM     11  C   UNL     1       0.811  12.137   6.986  0.00  0.00    +0.000 C 
ATOM     16  C   UNL     1       0.394  12.359   8.440  0.00  0.00    +0.009 C 
ATOM     17  C   UNL     1       2.034  12.996   6.656  0.00  0.00    +0.009 C 
ENDBRANCH  10  11
ENDBRANCH   6  10
BRANCH   8  12
ATOM     12  C   UNL     1      -2.100  10.243   6.916  0.00  0.00    +0.181 C 
BRANCH  12   2
ATOM      2  O   UNL     1      -1.106   9.324   7.321  0.00  0.00    -0.393 OA
ATOM     26  H   UNL     1      -1.530   8.452   7.388  0.00  0.00    +0.209 HD
ENDBRANCH  12   2
ENDBRANCH   8  12
TORSDOF 8
ENDMDL
MODEL 8
REMARK VINA RESULT:      -5.9     27.686     29.797
REMARK  Name = 71693324
REMARK  11 active torsions:
REMARK  status: ('A' for Active; 'I' for Inactive)
REMARK    1  A    between atoms: O_2  and  C_12
REMARK    2  A    between atoms: O_5  and  C_24
REMARK    3  A    between atoms: O_5  and  C_25
REMARK    4  A    between atoms: N_6  and  C_10
REMARK    5  A    between atoms: N_7  and  C_22
REMARK    6  A    between atoms: C_8  and  C_12
REMARK    7  A    between atoms: C_9  and  C_14
REMARK    8  A    between atoms: C_10  and  C_11
REMARK    9  A    between atoms: C_11  and  C_16
REMARK   10  A    between atoms: C_11  and  C_17
REMARK   11  A    between atoms: C_23  and  C_24
REMARK                            x       y       z     vdW  Elec       q    Type
REMARK                         _______ _______ _______ _____ _____    ______ ____
ROOT
ATOM      1  O   UNL     1      -8.177  -9.618  16.301  0.00  0.00    -0.361 OA
ATOM      3  O   UNL     1     -11.171  -8.788  18.043  0.00  0.00    -0.273 OA
ATOM      6  N   UNL     1      -9.422 -10.173  18.719  0.00  0.00    -0.291 N 
ATOM      8  C   UNL     1      -8.125 -10.811  18.386  0.00  0.00    +0.135 C 
ATOM      9  C   UNL     1      -7.319  -9.950  17.394  0.00  0.00    +0.171 C 
ATOM     13  C   UNL     1     -10.041  -9.249  17.873  0.00  0.00    +0.242 C 
ATOM     15  C   UNL     1      -9.201  -8.747  16.715  0.00  0.00    +0.256 C 
ENDROOT
BRANCH   9  14
ATOM     14  C   UNL     1      -6.106 -10.643  16.811  0.00  0.00    -0.017 A 
ATOM     18  C   UNL     1      -6.264 -11.795  16.040  0.00  0.00    +0.008 A 
ATOM     19  C   UNL     1      -4.830 -10.131  17.045  0.00  0.00    +0.008 A 
ATOM     20  C   UNL     1      -5.146 -12.434  15.504  0.00  0.00    +0.023 A 
ATOM     21  C   UNL     1      -3.712 -10.770  16.508  0.00  0.00    +0.023 A 
ATOM     22  C   UNL     1      -3.871 -11.922  15.737  0.00  0.00    +0.033 A 
BRANCH  22   7
ATOM      4  O   UNL     1      -2.659 -11.759  12.987  0.00  0.00    -0.273 OA
ATOM      7  N   UNL     1      -2.752 -12.561  15.201  0.00  0.00    -0.284 N 
ATOM     23  C   UNL     1      -2.227 -12.447  13.907  0.00  0.00    +0.243 C 
ATOM     27  H   UNL     1      -2.263 -13.187  15.837  0.00  0.00    +0.155 HD
BRANCH  23  24
ATOM     24  C   UNL     1      -0.997 -13.307  13.710  0.00  0.00    +0.255 C 
BRANCH  24   5
ATOM      5  O   UNL     1      -1.392 -14.548  13.164  0.00  0.00    -0.374 OA
ATOM     25  C   UNL     1      -0.392 -15.547  13.339  0.00  0.00    +0.194 C 
ENDBRANCH  24   5
ENDBRANCH  23  24
ENDBRANCH  22   7
ENDBRANCH   9  14
BRANCH   6  10
ATOM     10  C   UNL     1     -10.183 -10.710  19.844  0.00  0.00    +0.111 C 
BRANCH  10  11
ATOM     11  C   UNL     1     -10.852 -12.047  19.510  0.00  0.00    +0.000 C 
ATOM     16  C   UNL     1     -12.374 -11.890  19.524  0.00  0.00    +0.009 C 
ATOM     17  C   UNL     1     -10.432 -13.148  20.486  0.00  0.00    +0.009 C 
ENDBRANCH  10  11
ENDBRANCH   6  10
BRANCH   8  12
ATOM     12  C   UNL     1      -7.287 -11.126  19.632  0.00  0.00    +0.181 C 
BRANCH  12   2
ATOM      2  O   UNL     1      -6.707  -9.921  20.090  0.00  0.00    -0.393 OA
ATOM     26  H   UNL     1      -7.068  -9.747  20.975  0.00  0.00    +0.209 HD
ENDBRANCH  12   2
ENDBRANCH   8  12
TORSDOF 8
ENDMDL
MODEL 9
REMARK VINA RESULT:      -5.8      2.067      2.940
REMARK  Name = 71693324
REMARK  11 active torsions:
REMARK  status: ('A' for Active; 'I' for Inactive)
REMARK    1  A    between atoms: O_2  and  C_12
REMARK    2  A    between atoms: O_5  and  C_24
REMARK    3  A    between atoms: O_5  and  C_25
REMARK    4  A    between atoms: N_6  and  C_10
REMARK    5  A    between atoms: N_7  and  C_22
REMARK    6  A    between atoms: C_8  and  C_12
REMARK    7  A    between atoms: C_9  and  C_14
REMARK    8  A    between atoms: C_10  and  C_11
REMARK    9  A    between atoms: C_11  and  C_16
REMARK   10  A    between atoms: C_11  and  C_17
REMARK   11  A    between atoms: C_23  and  C_24
REMARK                            x       y       z     vdW  Elec       q    Type
REMARK                         _______ _______ _______ _____ _____    ______ ____
ROOT
ATOM      1  O   UNL     1      16.143   9.575  21.746  0.00  0.00    -0.361 OA
ATOM      3  O   UNL     1      12.855  10.927  21.520  0.00  0.00    -0.273 OA
ATOM      6  N   UNL     1      13.756   9.081  20.418  0.00  0.00    -0.291 N 
ATOM      8  C   UNL     1      14.943   8.230  20.157  0.00  0.00    +0.135 C 
ATOM      9  C   UNL     1      15.898   8.220  21.367  0.00  0.00    +0.171 C 
ATOM     13  C   UNL     1      13.768  10.116  21.356  0.00  0.00    +0.242 C 
ATOM     15  C   UNL     1      14.978  10.167  22.268  0.00  0.00    +0.256 C 
ENDROOT
BRANCH   9  14
ATOM     14  C   UNL     1      17.245   7.585  21.091  0.00  0.00    -0.017 A 
ATOM     18  C   UNL     1      18.407   8.174  21.588  0.00  0.00    +0.008 A 
ATOM     19  C   UNL     1      17.322   6.412  20.340  0.00  0.00    +0.008 A 
ATOM     20  C   UNL     1      19.648   7.590  21.333  0.00  0.00    +0.023 A 
ATOM     21  C   UNL     1      18.564   5.828  20.086  0.00  0.00    +0.023 A 
ATOM     22  C   UNL     1      19.726   6.418  20.583  0.00  0.00    +0.033 A 
BRANCH  22   7
ATOM      4  O   UNL     1      21.418   4.603  22.287  0.00  0.00    -0.273 OA
ATOM      7  N   UNL     1      20.968   5.833  20.328  0.00  0.00    -0.284 N 
ATOM     23  C   UNL     1      21.714   4.989  21.160  0.00  0.00    +0.243 C 
ATOM     27  H   UNL     1      21.374   6.054  19.420  0.00  0.00    +0.155 HD
BRANCH  23  24
ATOM     24  C   UNL     1      23.018   4.562  20.520  0.00  0.00    +0.255 C 
BRANCH  24   5
ATOM      5  O   UNL     1      24.074   4.821  21.422  0.00  0.00    -0.374 OA
ATOM     25  C   UNL     1      24.524   6.170  21.337  0.00  0.00    +0.194 C 
ENDBRANCH  24   5
ENDBRANCH  23  24
ENDBRANCH  22   7
ENDBRANCH   9  14
BRANCH   6  10
ATOM     10  C   UNL     1      12.627   8.986  19.497  0.00  0.00    +0.111 C 
BRANCH  10  11
ATOM     11  C   UNL     1      13.039   9.231  18.042  0.00  0.00    +0.000 C 
ATOM     16  C   UNL     1      13.403  10.703  17.841  0.00  0.00    +0.009 C 
ATOM     17  C   UNL     1      11.931   8.829  17.066  0.00  0.00    +0.009 C 
ENDBRANCH  10  11
ENDBRANCH   6  10
BRANCH   8  12
ATOM     12  C   UNL     1      14.563   6.798  19.756  0.00  0.00    +0.181 C 
BRANCH  12   2
ATOM      2  O   UNL     1      13.877   6.204  20.839  0.00  0.00    -0.393 OA
ATOM     26  H   UNL     1      14.532   6.038  21.538  0.00  0.00    +0.209 HD
ENDBRANCH  12   2
ENDBRANCH   8  12
TORSDOF 8
ENDMDL
MODEL 10
REMARK VINA RESULT:      -5.8     28.582     32.110
REMARK  Name = 71693324
REMARK  11 active torsions:
REMARK  status: ('A' for Active; 'I' for Inactive)
REMARK    1  A    between atoms: O_2  and  C_12
REMARK    2  A    between atoms: O_5  and  C_24
REMARK    3  A    between atoms: O_5  and  C_25
REMARK    4  A    between atoms: N_6  and  C_10
REMARK    5  A    between atoms: N_7  and  C_22
REMARK    6  A    between atoms: C_8  and  C_12
REMARK    7  A    between atoms: C_9  and  C_14
REMARK    8  A    between atoms: C_10  and  C_11
REMARK    9  A    between atoms: C_11  and  C_16
REMARK   10  A    between atoms: C_11  and  C_17
REMARK   11  A    between atoms: C_23  and  C_24
REMARK                            x       y       z     vdW  Elec       q    Type
REMARK                         _______ _______ _______ _____ _____    ______ ____
ROOT
ATOM      1  O   UNL     1     -10.545 -10.466  18.880  0.00  0.00    -0.361 OA
ATOM      3  O   UNL     1      -7.987 -12.686  19.984  0.00  0.00    -0.273 OA
ATOM      6  N   UNL     1      -7.938 -11.157  18.225  0.00  0.00    -0.291 N 
ATOM      8  C   UNL     1      -8.666 -10.148  17.417  0.00  0.00    +0.135 C 
ATOM      9  C   UNL     1      -9.761  -9.453  18.249  0.00  0.00    +0.171 C 
ATOM     13  C   UNL     1      -8.498 -11.757  19.355  0.00  0.00    +0.242 C 
ATOM     15  C   UNL     1      -9.793 -11.147  19.855  0.00  0.00    +0.256 C 
ENDROOT
BRANCH   9  14
ATOM     14  C   UNL     1     -10.711  -8.598  17.437  0.00  0.00    -0.017 A 
ATOM     18  C   UNL     1     -10.374  -7.279  17.131  0.00  0.00    +0.008 A 
ATOM     19  C   UNL     1     -11.923  -9.129  16.996  0.00  0.00    +0.008 A 
ATOM     20  C   UNL     1     -11.250  -6.492  16.384  0.00  0.00    +0.023 A 
ATOM     21  C   UNL     1     -12.799  -8.340  16.248  0.00  0.00    +0.023 A 
ATOM     22  C   UNL     1     -12.461  -7.022  15.942  0.00  0.00    +0.033 A 
BRANCH  22   7
ATOM      4  O   UNL     1     -12.363  -6.198  13.050  0.00  0.00    -0.273 OA
ATOM      7  N   UNL     1     -13.338  -6.234  15.195  0.00  0.00    -0.284 N 
ATOM     23  C   UNL     1     -13.245  -5.882  13.843  0.00  0.00    +0.243 C 
ATOM     27  H   UNL     1     -14.142  -5.875  15.705  0.00  0.00    +0.155 HD
BRANCH  23  24
ATOM     24  C   UNL     1     -14.399  -5.008  13.398  0.00  0.00    +0.255 C 
BRANCH  24   5
ATOM      5  O   UNL     1     -13.931  -3.686  13.231  0.00  0.00    -0.374 OA
ATOM     25  C   UNL     1     -14.110  -3.225  11.895  0.00  0.00    +0.194 C 
ENDBRANCH  24   5
ENDBRANCH  23  24
ENDBRANCH  22   7
ENDBRANCH   9  14
BRANCH   6  10
ATOM     10  C   UNL     1      -6.699 -11.708  17.683  0.00  0.00    +0.111 C 
BRANCH  10  11
ATOM     11  C   UNL     1      -5.455 -11.024  18.260  0.00  0.00    +0.000 C 
ATOM     16  C   UNL     1      -4.516 -10.601  17.129  0.00  0.00    +0.009 C 
ATOM     17  C   UNL     1      -4.713 -11.936  19.240  0.00  0.00    +0.009 C 
ENDBRANCH  10  11
ENDBRANCH   6  10
BRANCH   8  12
ATOM     12  C   UNL     1      -7.728  -9.112  16.785  0.00  0.00    +0.181 C 
BRANCH  12   2
ATOM      2  O   UNL     1      -7.831  -9.223  15.379  0.00  0.00    -0.393 OA
ATOM     26  H   UNL     1      -7.211  -8.581  14.994  0.00  0.00    +0.209 HD
ENDBRANCH  12   2
ENDBRANCH   8  12
TORSDOF 8
ENDMDL
