REMARK  Name = 45783540
REMARK  11 active torsions:
REMARK  status: ('A' for Active; 'I' for Inactive)
REMARK    1  A    between atoms: O_2  and  C_22
REMARK    2  A    between atoms: O_2  and  C_27
REMARK    3  A    between atoms: O_3  and  C_26
REMARK    4  A    between atoms: O_3  and  C_28
REMARK    5  A    between atoms: O_4  and  C_29
REMARK    6  A    between atoms: O_4  and  C_30
REMARK    7  A    between atoms: N_5  and  C_13
REMARK    8  A    between atoms: C_9  and  C_14
REMARK    9  A    between atoms: C_13  and  C_15
REMARK   10  A    between atoms: C_18  and  C_21
REMARK   11  A    between atoms: C_28  and  C_29
REMARK                            x       y       z     vdW  Elec       q    Type
REMARK                         _______ _______ _______ _____ _____    ______ ____
ROOT
ATOM      1  O   UNL     1      -2.551  -1.603   1.889  0.00  0.00    -0.336 OA
ATOM      6  N   UNL     1      -1.536  -1.103  -0.045  0.00  0.00    -0.190 NA
ATOM      7  N   UNL     1      -1.175  -1.651   2.147  0.00  0.00    -0.056 NA
ATOM     14  C   UNL     1      -2.676  -1.274   0.576  0.00  0.00    +0.245 A 
ATOM     18  C   UNL     1      -0.644  -1.345   0.959  0.00  0.00    +0.204 A 
ENDROOT
BRANCH  18  21
ATOM      8  N   UNL     1       2.612  -0.874  -0.774  0.00  0.00    -0.221 NA
ATOM     21  C   UNL     1       0.772  -1.274   0.742  0.00  0.00    +0.041 A 
ATOM     23  C   UNL     1       1.668  -1.523   1.776  0.00  0.00    +0.018 A 
ATOM     24  C   UNL     1       1.290  -0.956  -0.503  0.00  0.00    +0.126 A 
ATOM     25  C   UNL     1       3.036  -1.448   1.536  0.00  0.00    +0.068 A 
ATOM     26  C   UNL     1       3.453  -1.123   0.255  0.00  0.00    +0.215 A 
BRANCH  26   3
ATOM      3  O   UNL     1       4.795  -1.042  -0.007  0.00  0.00    -0.474 OA
BRANCH   3  28
ATOM     28  C   UNL     1       5.169  -0.705  -1.338  0.00  0.00    +0.258 C 
BRANCH  28  29
ATOM     29  C   UNL     1       6.681  -0.641  -1.426  0.00  0.00    +0.200 C 
BRANCH  29   4
ATOM      4  O   UNL     1       7.156   0.364  -0.539  0.00  0.00    -0.380 OA
ATOM     30  C   UNL     1       8.574   0.453  -0.564  0.00  0.00    +0.194 C 
ENDBRANCH  29   4
ENDBRANCH  28  29
ENDBRANCH   3  28
ENDBRANCH  26   3
ENDBRANCH  18  21
BRANCH  14   9
ATOM      5  N   UNL     1      -4.187  -0.224  -1.099  0.00  0.00    -0.287 NA
ATOM      9  C   UNL     1      -4.088  -1.156   0.042  0.00  0.00    +0.146 C 
ATOM     10  C   UNL     1      -4.633  -2.492  -0.496  0.00  0.00    +0.030 C 
ATOM     11  C   UNL     1      -5.070  -2.197  -1.924  0.00  0.00    +0.017 C 
ATOM     12  C   UNL     1      -5.297  -0.699  -1.925  0.00  0.00    +0.085 C 
BRANCH   5  13
ATOM     13  C   UNL     1      -4.361   1.165  -0.693  0.00  0.00    +0.120 C 
BRANCH  13  15
ATOM     15  C   UNL     1      -3.058   1.795  -0.277  0.00  0.00    -0.033 A 
ATOM     16  C   UNL     1      -2.916   2.321   1.007  0.00  0.00    +0.008 A 
ATOM     17  C   UNL     1      -1.993   1.851  -1.176  0.00  0.00    +0.008 A 
ATOM     19  C   UNL     1      -1.709   2.905   1.391  0.00  0.00    +0.046 A 
ATOM     20  C   UNL     1      -0.786   2.434  -0.792  0.00  0.00    +0.046 A 
ATOM     22  C   UNL     1      -0.644   2.961   0.492  0.00  0.00    +0.120 A 
BRANCH  22   2
ATOM      2  O   UNL     1       0.534   3.530   0.868  0.00  0.00    -0.495 OA
ATOM     27  C   UNL     1       1.582   3.554  -0.102  0.00  0.00    +0.277 C 
ENDBRANCH  22   2
ENDBRANCH  13  15
ENDBRANCH   5  13
ENDBRANCH  14   9
TORSDOF 9
