REMARK  Name = 51138098
REMARK  11 active torsions:
REMARK  status: ('A' for Active; 'I' for Inactive)
REMARK    1  A    between atoms: N_3  and  C_20
REMARK    2  A    between atoms: N_4  and  C_25
REMARK    3  A    between atoms: N_5  and  C_28
REMARK    4  A    between atoms: C_7  and  C_12
REMARK    5  A    between atoms: C_10  and  C_18
REMARK    6  A    between atoms: C_12  and  C_15
REMARK    7  A    between atoms: C_15  and  C_22
REMARK    8  A    between atoms: C_15  and  C_23
REMARK    9  A    between atoms: C_20  and  C_24
REMARK   10  A    between atoms: C_25  and  C_26
REMARK   11  A    between atoms: C_26  and  C_30
REMARK                            x       y       z     vdW  Elec       q    Type
REMARK                         _______ _______ _______ _____ _____    ______ ____
ROOT
ATOM      2  N   UNL     1      -2.195  -0.319  -0.613  0.00  0.00    -0.299 NA
ATOM      3  N   UNL     1       2.560   0.869   0.605  0.00  0.00    -0.339 N 
ATOM      7  C   UNL     1      -1.717  -1.414   0.241  0.00  0.00    +0.085 C 
ATOM      8  C   UNL     1      -0.228  -1.383   0.599  0.00  0.00    -0.021 A 
ATOM      9  C   UNL     1       0.624  -0.248   0.469  0.00  0.00    +0.008 A 
ATOM     10  C   UNL     1      -2.103   1.004  -0.013  0.00  0.00    +0.145 C 
ATOM     11  C   UNL     1       0.425   1.105   0.026  0.00  0.00    -0.020 A 
ATOM     13  C   UNL     1      -0.838   1.736  -0.457  0.00  0.00    +0.065 C 
ATOM     14  C   UNL     1       1.968  -0.348   0.846  0.00  0.00    +0.050 A 
ATOM     16  C   UNL     1       1.642   1.751   0.118  0.00  0.00    +0.091 A 
ATOM     17  C   UNL     1       0.355  -2.538   1.180  0.00  0.00    +0.006 A 
ATOM     19  C   UNL     1       2.535  -1.510   1.372  0.00  0.00    +0.026 A 
ATOM     21  C   UNL     1       1.698  -2.605   1.546  0.00  0.00    +0.002 A 
ATOM     31  H   UNL     1      -1.738  -0.343  -1.525  0.00  0.00    +0.123 HD
ENDROOT
BRANCH  10  18
ATOM      1  O   UNL     1      -3.484   1.948  -1.716  0.00  0.00    -0.274 OA
ATOM      4  N   UNL     1      -4.124   2.177   0.510  0.00  0.00    -0.314 N 
ATOM     18  C   UNL     1      -3.302   1.748  -0.518  0.00  0.00    +0.230 C 
ATOM     32  H   UNL     1      -3.886   1.956   1.472  0.00  0.00    +0.149 HD
BRANCH   4  25
ATOM     25  C   UNL     1      -5.334   2.936   0.291  0.00  0.00    +0.104 C 
BRANCH  25  26
ATOM     26  C   UNL     1      -6.556   2.042   0.114  0.00  0.00    +0.015 C 
ATOM     30  C   UNL     1      -6.834   1.178   1.336  0.00  0.00    +0.005 C 
ENDBRANCH  25  26
ENDBRANCH   4  25
ENDBRANCH  10  18
BRANCH   7  12
ATOM     12  C   UNL     1      -2.116  -2.697  -0.510  0.00  0.00    +0.026 C 
BRANCH  12  15
ATOM     15  C   UNL     1      -3.607  -3.025  -0.384  0.00  0.00    -0.015 C 
ATOM     22  C   UNL     1      -4.504  -1.917  -0.939  0.00  0.00    +0.007 C 
ATOM     23  C   UNL     1      -3.899  -4.339  -1.112  0.00  0.00    +0.007 C 
ENDBRANCH  12  15
ENDBRANCH   7  12
BRANCH   3  20
ATOM     20  C   UNL     1       3.950   1.192   0.846  0.00  0.00    +0.196 C 
BRANCH  20  24
ATOM      5  N   UNL     1       6.236   0.664  -0.069  0.00  0.00    -0.336 N 
ATOM      6  N   UNL     1       4.518   0.198  -1.396  0.00  0.00    -0.239 NA
ATOM     24  C   UNL     1       4.878   0.678  -0.226  0.00  0.00    +0.129 A 
ATOM     27  C   UNL     1       6.776   0.142  -1.211  0.00  0.00    +0.106 A 
ATOM     28  C   UNL     1       6.981   1.113   1.083  0.00  0.00    +0.150 C 
ATOM     29  C   UNL     1       5.696  -0.137  -2.015  0.00  0.00    +0.130 A 
ENDBRANCH  20  24
ENDBRANCH   3  20
TORSDOF 7
