MODEL 1
REMARK VINA RESULT:      -6.2      0.000      0.000
REMARK  Name = 40776957
REMARK  14 active torsions:
REMARK  status: ('A' for Active; 'I' for Inactive)
REMARK    1  A    between atoms: S_1  and  C_27
REMARK    2  A    between atoms: S_1  and  C_34
REMARK    3  A    between atoms: O_3  and  C_35
REMARK    4  A    between atoms: N_6  and  C_17
REMARK    5  A    between atoms: C_11  and  C_18
REMARK    6  A    between atoms: C_12  and  C_17
REMARK    7  A    between atoms: C_20  and  C_21
REMARK    8  A    between atoms: C_21  and  C_24
REMARK    9  A    between atoms: C_21  and  C_25
REMARK   10  A    between atoms: C_22  and  C_26
REMARK   11  A    between atoms: C_23  and  C_27
REMARK   12  A    between atoms: C_24  and  C_28
REMARK   13  A    between atoms: C_25  and  C_29
REMARK   14  A    between atoms: C_34  and  C_35
REMARK                            x       y       z     vdW  Elec       q    Type
REMARK                         _______ _______ _______ _____ _____    ______ ____
ROOT
ATOM      5  N   UNL     1      -6.341 -12.135  17.405  0.00  0.00    -0.297 NA
ATOM     10  C   UNL     1      -6.880 -10.554  19.403  0.00  0.00    +0.002 C 
ATOM     11  C   UNL     1      -8.119 -11.423  19.048  0.00  0.00    +0.055 C 
ATOM     12  C   UNL     1      -5.942 -10.742  17.073  0.00  0.00    +0.074 C 
ATOM     13  C   UNL     1      -6.439  -9.760  18.155  0.00  0.00    +0.024 C 
ATOM     14  C   UNL     1      -5.735 -11.531  19.747  0.00  0.00    +0.019 C 
ATOM     15  C   UNL     1      -7.788 -12.185  17.732  0.00  0.00    +0.094 C 
ATOM     16  C   UNL     1      -5.580 -12.552  18.607  0.00  0.00    +0.085 C 
ENDROOT
BRANCH  11  18
ATOM      7  N   UNL     1      -9.660  -9.817  18.035  0.00  0.00    -0.232 NA
ATOM      8  N   UNL     1     -11.904  -9.500  18.850  0.00  0.00    -0.232 NA
ATOM     18  C   UNL     1      -9.481 -10.747  18.996  0.00  0.00    +0.050 A 
ATOM     19  C   UNL     1     -10.454 -11.103  19.908  0.00  0.00    +0.047 A 
ATOM     20  C   UNL     1     -11.658 -10.440  19.787  0.00  0.00    +0.048 A 
ATOM     22  C   UNL     1     -10.877  -9.242  18.019  0.00  0.00    +0.160 A 
BRANCH  22  26
ATOM      9  N   UNL     1     -11.544  -6.301  15.046  0.00  0.00    -0.263 NA
ATOM     26  C   UNL     1     -11.104  -8.242  17.008  0.00  0.00    +0.022 A 
ATOM     30  C   UNL     1     -10.054  -7.446  16.566  0.00  0.00    +0.031 A 
ATOM     31  C   UNL     1     -12.375  -8.069  16.472  0.00  0.00    +0.031 A 
ATOM     32  C   UNL     1     -10.323  -6.498  15.592  0.00  0.00    +0.111 A 
ATOM     33  C   UNL     1     -12.540  -7.093  15.501  0.00  0.00    +0.111 A 
ENDBRANCH  22  26
BRANCH  20  21
ATOM     21  C   UNL     1     -12.769 -10.759  20.728  0.00  0.00    +0.037 C 
BRANCH  21  24
ATOM     24  C   UNL     1     -14.173 -10.396  20.159  0.00  0.00    +0.006 C 
ATOM     28  C   UNL     1     -14.773  -9.156  20.811  0.00  0.00    +0.004 C 
ENDBRANCH  21  24
BRANCH  21  25
ATOM     25  C   UNL     1     -12.785 -12.251  21.172  0.00  0.00    +0.006 C 
ATOM     29  C   UNL     1     -14.193 -12.830  21.252  0.00  0.00    +0.004 C 
ENDBRANCH  21  25
ENDBRANCH  20  21
ENDBRANCH  11  18
BRANCH  12  17
ATOM     17  C   UNL     1      -6.394 -10.324  15.672  0.00  0.00    +0.123 C 
BRANCH  17   6
ATOM      2  O   UNL     1      -6.352  -9.426  12.920  0.00  0.00    -0.275 OA
ATOM      6  N   UNL     1      -5.336 -10.487  14.724  0.00  0.00    -0.313 N 
ATOM     23  C   UNL     1      -5.395 -10.022  13.412  0.00  0.00    +0.223 C 
ATOM     36  H   UNL     1      -4.534 -11.044  15.004  0.00  0.00    +0.149 HD
BRANCH  23  27
ATOM     27  C   UNL     1      -4.156 -10.335  12.606  0.00  0.00    +0.165 C 
BRANCH  27   1
ATOM      1  S   UNL     1      -3.148 -11.528  13.518  0.00  0.00    -0.140 S 
BRANCH   1  34
ATOM     34  C   UNL     1      -1.844 -10.406  14.077  0.00  0.00    +0.189 C 
BRANCH  34  35
ATOM      4  O   UNL     1      -2.617 -10.732  16.336  0.00  0.00    -0.250 OA
ATOM     35  C   UNL     1      -1.689 -10.523  15.566  0.00  0.00    +0.315 C 
BRANCH  35   3
ATOM      3  O   UNL     1      -0.401 -10.387  15.970  0.00  0.00    -0.480 OA
ATOM     37  H   UNL     1      -0.339 -10.035  16.884  0.00  0.00    +0.295 HD
ENDBRANCH  35   3
ENDBRANCH  34  35
ENDBRANCH   1  34
ENDBRANCH  27   1
ENDBRANCH  23  27
ENDBRANCH  17   6
ENDBRANCH  12  17
TORSDOF 12
ENDMDL
MODEL 2
REMARK VINA RESULT:      -6.2     25.735     29.417
REMARK  Name = 40776957
REMARK  14 active torsions:
REMARK  status: ('A' for Active; 'I' for Inactive)
REMARK    1  A    between atoms: S_1  and  C_27
REMARK    2  A    between atoms: S_1  and  C_34
REMARK    3  A    between atoms: O_3  and  C_35
REMARK    4  A    between atoms: N_6  and  C_17
REMARK    5  A    between atoms: C_11  and  C_18
REMARK    6  A    between atoms: C_12  and  C_17
REMARK    7  A    between atoms: C_20  and  C_21
REMARK    8  A    between atoms: C_21  and  C_24
REMARK    9  A    between atoms: C_21  and  C_25
REMARK   10  A    between atoms: C_22  and  C_26
REMARK   11  A    between atoms: C_23  and  C_27
REMARK   12  A    between atoms: C_24  and  C_28
REMARK   13  A    between atoms: C_25  and  C_29
REMARK   14  A    between atoms: C_34  and  C_35
REMARK                            x       y       z     vdW  Elec       q    Type
REMARK                         _______ _______ _______ _____ _____    ______ ____
ROOT
ATOM      5  N   UNL     1       6.949  11.028   3.907  0.00  0.00    -0.297 NA
ATOM     10  C   UNL     1       7.889   9.539   1.988  0.00  0.00    +0.002 C 
ATOM     11  C   UNL     1       7.554   8.672   3.234  0.00  0.00    +0.055 C 
ATOM     12  C   UNL     1       8.210  11.614   3.380  0.00  0.00    +0.074 C 
ATOM     13  C   UNL     1       8.889  10.644   2.389  0.00  0.00    +0.024 C 
ATOM     14  C   UNL     1       6.580  10.241   1.569  0.00  0.00    +0.019 C 
ATOM     15  C   UNL     1       7.195   9.647   4.392  0.00  0.00    +0.094 C 
ATOM     16  C   UNL     1       5.978  10.959   2.789  0.00  0.00    +0.085 C 
ENDROOT
BRANCH  11  18
ATOM      7  N   UNL     1       8.529   7.240   4.959  0.00  0.00    -0.232 NA
ATOM      8  N   UNL     1      10.328   5.708   4.491  0.00  0.00    -0.232 NA
ATOM     18  C   UNL     1       8.557   7.611   3.663  0.00  0.00    +0.050 A 
ATOM     19  C   UNL     1       9.429   7.082   2.733  0.00  0.00    +0.047 A 
ATOM     20  C   UNL     1      10.301   6.125   3.208  0.00  0.00    +0.048 A 
ATOM     22  C   UNL     1       9.429   6.298   5.301  0.00  0.00    +0.160 A 
BRANCH  22  26
ATOM      9  N   UNL     1       9.436   5.064   9.353  0.00  0.00    -0.263 NA
ATOM     26  C   UNL     1       9.431   5.879   6.678  0.00  0.00    +0.022 A 
ATOM     30  C   UNL     1       9.012   6.753   7.674  0.00  0.00    +0.031 A 
ATOM     31  C   UNL     1       9.853   4.598   7.016  0.00  0.00    +0.031 A 
ATOM     32  C   UNL     1       9.033   6.302   8.984  0.00  0.00    +0.111 A 
ATOM     33  C   UNL     1       9.836   4.243   8.356  0.00  0.00    +0.111 A 
ENDBRANCH  22  26
BRANCH  20  21
ATOM     21  C   UNL     1      11.281   5.497   2.276  0.00  0.00    +0.037 C 
BRANCH  21  24
ATOM     24  C   UNL     1      12.698   6.136   2.359  0.00  0.00    +0.006 C 
ATOM     28  C   UNL     1      12.939   7.185   1.280  0.00  0.00    +0.004 C 
ENDBRANCH  21  24
BRANCH  21  25
ATOM     25  C   UNL     1      11.417   3.959   2.479  0.00  0.00    +0.006 C 
ATOM     29  C   UNL     1      12.623   3.372   1.752  0.00  0.00    +0.004 C 
ENDBRANCH  21  25
ENDBRANCH  20  21
ENDBRANCH  11  18
BRANCH  12  17
ATOM     17  C   UNL     1       9.162  12.050   4.496  0.00  0.00    +0.123 C 
BRANCH  17   6
ATOM      2  O   UNL     1      10.082  10.001   6.321  0.00  0.00    -0.275 OA
ATOM      6  N   UNL     1      10.391  11.321   4.431  0.00  0.00    -0.313 N 
ATOM     23  C   UNL     1      10.760  10.345   5.354  0.00  0.00    +0.223 C 
ATOM     36  H   UNL     1      11.062  11.593   3.719  0.00  0.00    +0.149 HD
BRANCH  23  27
ATOM     27  C   UNL     1      12.114   9.735   5.076  0.00  0.00    +0.165 C 
BRANCH  27   1
ATOM      1  S   UNL     1      12.986   9.502   6.643  0.00  0.00    -0.140 S 
BRANCH   1  34
ATOM     34  C   UNL     1      12.560   7.769   6.934  0.00  0.00    +0.189 C 
BRANCH  34  35
ATOM      4  O   UNL     1      14.853   7.259   6.395  0.00  0.00    -0.250 OA
ATOM     35  C   UNL     1      13.815   6.945   6.962  0.00  0.00    +0.315 C 
BRANCH  35   3
ATOM      3  O   UNL     1      13.682   5.815   7.701  0.00  0.00    -0.480 OA
ATOM     37  H   UNL     1      13.386   6.009   8.617  0.00  0.00    +0.295 HD
ENDBRANCH  35   3
ENDBRANCH  34  35
ENDBRANCH   1  34
ENDBRANCH  27   1
ENDBRANCH  23  27
ENDBRANCH  17   6
ENDBRANCH  12  17
TORSDOF 12
ENDMDL
MODEL 3
REMARK VINA RESULT:      -6.2     26.018     29.290
REMARK  Name = 40776957
REMARK  14 active torsions:
REMARK  status: ('A' for Active; 'I' for Inactive)
REMARK    1  A    between atoms: S_1  and  C_27
REMARK    2  A    between atoms: S_1  and  C_34
REMARK    3  A    between atoms: O_3  and  C_35
REMARK    4  A    between atoms: N_6  and  C_17
REMARK    5  A    between atoms: C_11  and  C_18
REMARK    6  A    between atoms: C_12  and  C_17
REMARK    7  A    between atoms: C_20  and  C_21
REMARK    8  A    between atoms: C_21  and  C_24
REMARK    9  A    between atoms: C_21  and  C_25
REMARK   10  A    between atoms: C_22  and  C_26
REMARK   11  A    between atoms: C_23  and  C_27
REMARK   12  A    between atoms: C_24  and  C_28
REMARK   13  A    between atoms: C_25  and  C_29
REMARK   14  A    between atoms: C_34  and  C_35
REMARK                            x       y       z     vdW  Elec       q    Type
REMARK                         _______ _______ _______ _____ _____    ______ ____
ROOT
ATOM      5  N   UNL     1      11.534   4.307   0.044  0.00  0.00    -0.297 NA
ATOM     10  C   UNL     1      12.578   5.232   2.243  0.00  0.00    +0.002 C 
ATOM     11  C   UNL     1      11.112   4.780   2.486  0.00  0.00    +0.055 C 
ATOM     12  C   UNL     1      12.167   5.628  -0.211  0.00  0.00    +0.074 C 
ATOM     13  C   UNL     1      12.608   6.285   1.115  0.00  0.00    +0.024 C 
ATOM     14  C   UNL     1      13.346   3.995   1.729  0.00  0.00    +0.019 C 
ATOM     15  C   UNL     1      10.498   4.435   1.099  0.00  0.00    +0.094 C 
ATOM     16  C   UNL     1      12.586   3.386   0.538  0.00  0.00    +0.085 C 
ENDROOT
BRANCH  11  18
ATOM      7  N   UNL     1       9.607   6.700   2.651  0.00  0.00    -0.232 NA
ATOM      8  N   UNL     1       8.569   7.345   4.727  0.00  0.00    -0.232 NA
ATOM     18  C   UNL     1      10.207   5.687   3.308  0.00  0.00    +0.050 A 
ATOM     19  C   UNL     1      10.039   5.441   4.656  0.00  0.00    +0.047 A 
ATOM     20  C   UNL     1       9.201   6.311   5.322  0.00  0.00    +0.048 A 
ATOM     22  C   UNL     1       8.813   7.479   3.410  0.00  0.00    +0.160 A 
BRANCH  22  26
ATOM      9  N   UNL     1       6.885  10.699   1.446  0.00  0.00    -0.263 NA
ATOM     26  C   UNL     1       8.157   8.574   2.743  0.00  0.00    +0.022 A 
ATOM     30  C   UNL     1       7.230   9.353   3.425  0.00  0.00    +0.031 A 
ATOM     31  C   UNL     1       8.450   8.855   1.413  0.00  0.00    +0.031 A 
ATOM     32  C   UNL     1       6.627  10.394   2.738  0.00  0.00    +0.111 A 
ATOM     33  C   UNL     1       7.792   9.920   0.816  0.00  0.00    +0.111 A 
ENDBRANCH  22  26
BRANCH  20  21
ATOM     21  C   UNL     1       8.958   6.124   6.781  0.00  0.00    +0.037 C 
BRANCH  21  24
ATOM     24  C   UNL     1      10.019   5.210   7.463  0.00  0.00    +0.006 C 
ATOM     28  C   UNL     1       9.522   4.597   8.767  0.00  0.00    +0.004 C 
ENDBRANCH  21  24
BRANCH  21  25
ATOM     25  C   UNL     1       8.883   7.467   7.565  0.00  0.00    +0.006 C 
ATOM     29  C   UNL     1      10.250   8.112   7.766  0.00  0.00    +0.004 C 
ENDBRANCH  21  25
ENDBRANCH  20  21
ENDBRANCH  11  18
BRANCH  12  17
ATOM     17  C   UNL     1      11.272   6.554  -1.037  0.00  0.00    +0.123 C 
BRANCH  17   6
ATOM      2  O   UNL     1       8.520   6.716  -1.921  0.00  0.00    -0.275 OA
ATOM      6  N   UNL     1      10.669   5.846  -2.123  0.00  0.00    -0.313 N 
ATOM     23  C   UNL     1       9.330   5.982  -2.485  0.00  0.00    +0.223 C 
ATOM     36  H   UNL     1      11.231   5.147  -2.599  0.00  0.00    +0.149 HD
BRANCH  23  27
ATOM     27  C   UNL     1       8.932   5.112  -3.655  0.00  0.00    +0.165 C 
BRANCH  27   1
ATOM      1  S   UNL     1      10.424   4.608  -4.545  0.00  0.00    -0.140 S 
BRANCH   1  34
ATOM     34  C   UNL     1      10.091   2.833  -4.644  0.00  0.00    +0.189 C 
BRANCH  34  35
ATOM      4  O   UNL     1       9.590   1.271  -2.879  0.00  0.00    -0.250 OA
ATOM     35  C   UNL     1      10.251   2.219  -3.284  0.00  0.00    +0.315 C 
BRANCH  35   3
ATOM      3  O   UNL     1      11.223   2.818  -2.550  0.00  0.00    -0.480 OA
ATOM     37  H   UNL     1      11.533   3.652  -2.965  0.00  0.00    +0.295 HD
ENDBRANCH  35   3
ENDBRANCH  34  35
ENDBRANCH   1  34
ENDBRANCH  27   1
ENDBRANCH  23  27
ENDBRANCH  17   6
ENDBRANCH  12  17
TORSDOF 12
ENDMDL
MODEL 4
REMARK VINA RESULT:      -6.2     26.377     29.473
REMARK  Name = 40776957
REMARK  14 active torsions:
REMARK  status: ('A' for Active; 'I' for Inactive)
REMARK    1  A    between atoms: S_1  and  C_27
REMARK    2  A    between atoms: S_1  and  C_34
REMARK    3  A    between atoms: O_3  and  C_35
REMARK    4  A    between atoms: N_6  and  C_17
REMARK    5  A    between atoms: C_11  and  C_18
REMARK    6  A    between atoms: C_12  and  C_17
REMARK    7  A    between atoms: C_20  and  C_21
REMARK    8  A    between atoms: C_21  and  C_24
REMARK    9  A    between atoms: C_21  and  C_25
REMARK   10  A    between atoms: C_22  and  C_26
REMARK   11  A    between atoms: C_23  and  C_27
REMARK   12  A    between atoms: C_24  and  C_28
REMARK   13  A    between atoms: C_25  and  C_29
REMARK   14  A    between atoms: C_34  and  C_35
REMARK                            x       y       z     vdW  Elec       q    Type
REMARK                         _______ _______ _______ _____ _____    ______ ____
ROOT
ATOM      5  N   UNL     1      10.682   5.229   7.981  0.00  0.00    -0.297 NA
ATOM     10  C   UNL     1       9.223   7.224   7.160  0.00  0.00    +0.002 C 
ATOM     11  C   UNL     1       9.163   6.052   6.141  0.00  0.00    +0.055 C 
ATOM     12  C   UNL     1      11.466   6.490   8.042  0.00  0.00    +0.074 C 
ATOM     13  C   UNL     1      10.693   7.645   7.368  0.00  0.00    +0.024 C 
ATOM     14  C   UNL     1       8.714   6.669   8.507  0.00  0.00    +0.019 C 
ATOM     15  C   UNL     1      10.207   4.991   6.595  0.00  0.00    +0.094 C 
ATOM     16  C   UNL     1       9.495   5.389   8.854  0.00  0.00    +0.085 C 
ENDROOT
BRANCH  11  18
ATOM      7  N   UNL     1      10.067   5.572   3.920  0.00  0.00    -0.232 NA
ATOM      8  N   UNL     1       9.527   6.915   1.995  0.00  0.00    -0.232 NA
ATOM     18  C   UNL     1       9.280   6.380   4.659  0.00  0.00    +0.050 A 
ATOM     19  C   UNL     1       8.593   7.460   4.145  0.00  0.00    +0.047 A 
ATOM     20  C   UNL     1       8.755   7.683   2.793  0.00  0.00    +0.048 A 
ATOM     22  C   UNL     1      10.144   5.892   2.614  0.00  0.00    +0.160 A 
BRANCH  22  26
ATOM      9  N   UNL     1      12.599   3.423   0.202  0.00  0.00    -0.263 NA
ATOM     26  C   UNL     1      10.979   5.053   1.794  0.00  0.00    +0.022 A 
ATOM     30  C   UNL     1      10.996   5.221   0.415  0.00  0.00    +0.031 A 
ATOM     31  C   UNL     1      11.770   4.071   2.380  0.00  0.00    +0.031 A 
ATOM     32  C   UNL     1      11.815   4.388  -0.331  0.00  0.00    +0.111 A 
ATOM     33  C   UNL     1      12.555   3.290   1.547  0.00  0.00    +0.111 A 
ENDBRANCH  22  26
BRANCH  20  21
ATOM     21  C   UNL     1       8.050   8.828   2.148  0.00  0.00    +0.037 C 
BRANCH  21  24
ATOM     24  C   UNL     1       7.113   9.596   3.126  0.00  0.00    +0.006 C 
ATOM     28  C   UNL     1       5.795  10.010   2.483  0.00  0.00    +0.004 C 
ENDBRANCH  21  24
BRANCH  21  25
ATOM     25  C   UNL     1       9.021   9.848   1.486  0.00  0.00    +0.006 C 
ATOM     29  C   UNL     1       9.560  10.877   2.474  0.00  0.00    +0.004 C 
ENDBRANCH  21  25
ENDBRANCH  20  21
ENDBRANCH  11  18
BRANCH  12  17
ATOM     17  C   UNL     1      12.873   6.331   7.461  0.00  0.00    +0.123 C 
BRANCH  17   6
ATOM      2  O   UNL     1      15.342   7.555   6.577  0.00  0.00    -0.275 OA
ATOM      6  N   UNL     1      13.059   7.185   6.330  0.00  0.00    -0.313 N 
ATOM     23  C   UNL     1      14.287   7.736   5.971  0.00  0.00    +0.223 C 
ATOM     36  H   UNL     1      12.231   7.468   5.813  0.00  0.00    +0.149 HD
BRANCH  23  27
ATOM     27  C   UNL     1      14.216   8.618   4.746  0.00  0.00    +0.165 C 
BRANCH  27   1
ATOM      1  S   UNL     1      15.531   8.140   3.601  0.00  0.00    -0.140 S 
BRANCH   1  34
ATOM     34  C   UNL     1      14.500   7.586   2.223  0.00  0.00    +0.189 C 
BRANCH  34  35
ATOM      4  O   UNL     1      14.950   5.779   0.692  0.00  0.00    -0.250 OA
ATOM     35  C   UNL     1      14.882   6.183   1.846  0.00  0.00    +0.315 C 
BRANCH  35   3
ATOM      3  O   UNL     1      15.160   5.409   2.925  0.00  0.00    -0.480 OA
ATOM     37  H   UNL     1      14.422   5.404   3.572  0.00  0.00    +0.295 HD
ENDBRANCH  35   3
ENDBRANCH  34  35
ENDBRANCH   1  34
ENDBRANCH  27   1
ENDBRANCH  23  27
ENDBRANCH  17   6
ENDBRANCH  12  17
TORSDOF 12
ENDMDL
MODEL 5
REMARK VINA RESULT:      -6.2     25.998     29.643
REMARK  Name = 40776957
REMARK  14 active torsions:
REMARK  status: ('A' for Active; 'I' for Inactive)
REMARK    1  A    between atoms: S_1  and  C_27
REMARK    2  A    between atoms: S_1  and  C_34
REMARK    3  A    between atoms: O_3  and  C_35
REMARK    4  A    between atoms: N_6  and  C_17
REMARK    5  A    between atoms: C_11  and  C_18
REMARK    6  A    between atoms: C_12  and  C_17
REMARK    7  A    between atoms: C_20  and  C_21
REMARK    8  A    between atoms: C_21  and  C_24
REMARK    9  A    between atoms: C_21  and  C_25
REMARK   10  A    between atoms: C_22  and  C_26
REMARK   11  A    between atoms: C_23  and  C_27
REMARK   12  A    between atoms: C_24  and  C_28
REMARK   13  A    between atoms: C_25  and  C_29
REMARK   14  A    between atoms: C_34  and  C_35
REMARK                            x       y       z     vdW  Elec       q    Type
REMARK                         _______ _______ _______ _____ _____    ______ ____
ROOT
ATOM      5  N   UNL     1      14.777   7.688   5.233  0.00  0.00    -0.297 NA
ATOM     10  C   UNL     1      13.892   9.964   6.137  0.00  0.00    +0.002 C 
ATOM     11  C   UNL     1      13.359   8.791   7.005  0.00  0.00    +0.055 C 
ATOM     12  C   UNL     1      14.193   8.484   4.121  0.00  0.00    +0.074 C 
ATOM     13  C   UNL     1      13.480   9.740   4.667  0.00  0.00    +0.024 C 
ATOM     14  C   UNL     1      15.433   9.895   6.193  0.00  0.00    +0.019 C 
ATOM     15  C   UNL     1      13.759   7.468   6.290  0.00  0.00    +0.094 C 
ATOM     16  C   UNL     1      15.889   8.474   5.818  0.00  0.00    +0.085 C 
ENDROOT
BRANCH  11  18
ATOM      7  N   UNL     1      11.389   9.991   7.818  0.00  0.00    -0.232 NA
ATOM      8  N   UNL     1       9.268   8.900   8.154  0.00  0.00    -0.232 NA
ATOM     18  C   UNL     1      11.893   8.806   7.413  0.00  0.00    +0.050 A 
ATOM     19  C   UNL     1      11.156   7.641   7.352  0.00  0.00    +0.047 A 
ATOM     20  C   UNL     1       9.836   7.748   7.739  0.00  0.00    +0.048 A 
ATOM     22  C   UNL     1      10.089   9.966   8.168  0.00  0.00    +0.160 A 
BRANCH  22  26
ATOM      9  N   UNL     1       8.408  13.632   9.463  0.00  0.00    -0.263 NA
ATOM     26  C   UNL     1       9.518  11.212   8.609  0.00  0.00    +0.022 A 
ATOM     30  C   UNL     1       8.995  11.325   9.891  0.00  0.00    +0.031 A 
ATOM     31  C   UNL     1       9.487  12.307   7.752  0.00  0.00    +0.031 A 
ATOM     32  C   UNL     1       8.455  12.545  10.267  0.00  0.00    +0.111 A 
ATOM     33  C   UNL     1       8.927  13.483   8.223  0.00  0.00    +0.111 A 
ENDBRANCH  22  26
BRANCH  20  21
ATOM     21  C   UNL     1       8.962   6.541   7.705  0.00  0.00    +0.037 C 
BRANCH  21  24
ATOM     24  C   UNL     1       9.043   5.767   6.356  0.00  0.00    +0.006 C 
ATOM     28  C   UNL     1       8.199   6.402   5.257  0.00  0.00    +0.004 C 
ENDBRANCH  21  24
BRANCH  21  25
ATOM     25  C   UNL     1       9.251   5.545   8.866  0.00  0.00    +0.006 C 
ATOM     29  C   UNL     1       9.755   4.192   8.374  0.00  0.00    +0.004 C 
ENDBRANCH  21  25
ENDBRANCH  20  21
ENDBRANCH  11  18
BRANCH  12  17
ATOM     17  C   UNL     1      13.273   7.650   3.227  0.00  0.00    +0.123 C 
BRANCH  17   6
ATOM      2  O   UNL     1      14.251   6.975   0.588  0.00  0.00    -0.275 OA
ATOM      6  N   UNL     1      13.915   6.437   2.826  0.00  0.00    -0.313 N 
ATOM     23  C   UNL     1      14.358   6.190   1.528  0.00  0.00    +0.223 C 
ATOM     36  H   UNL     1      13.973   5.687   3.508  0.00  0.00    +0.149 HD
BRANCH  23  27
ATOM     27  C   UNL     1      14.987   4.827   1.356  0.00  0.00    +0.165 C 
BRANCH  27   1
ATOM      1  S   UNL     1      13.906   3.808   0.324  0.00  0.00    -0.140 S 
BRANCH   1  34
ATOM     34  C   UNL     1      12.929   3.039   1.637  0.00  0.00    +0.189 C 
BRANCH  34  35
ATOM      4  O   UNL     1      10.776   3.949   1.047  0.00  0.00    -0.250 OA
ATOM     35  C   UNL     1      11.680   3.842   1.865  0.00  0.00    +0.315 C 
BRANCH  35   3
ATOM      3  O   UNL     1      11.651   4.426   3.089  0.00  0.00    -0.480 OA
ATOM     37  H   UNL     1      11.957   5.359   3.057  0.00  0.00    +0.295 HD
ENDBRANCH  35   3
ENDBRANCH  34  35
ENDBRANCH   1  34
ENDBRANCH  27   1
ENDBRANCH  23  27
ENDBRANCH  17   6
ENDBRANCH  12  17
TORSDOF 12
ENDMDL
MODEL 6
REMARK VINA RESULT:      -6.2      3.741      9.537
REMARK  Name = 40776957
REMARK  14 active torsions:
REMARK  status: ('A' for Active; 'I' for Inactive)
REMARK    1  A    between atoms: S_1  and  C_27
REMARK    2  A    between atoms: S_1  and  C_34
REMARK    3  A    between atoms: O_3  and  C_35
REMARK    4  A    between atoms: N_6  and  C_17
REMARK    5  A    between atoms: C_11  and  C_18
REMARK    6  A    between atoms: C_12  and  C_17
REMARK    7  A    between atoms: C_20  and  C_21
REMARK    8  A    between atoms: C_21  and  C_24
REMARK    9  A    between atoms: C_21  and  C_25
REMARK   10  A    between atoms: C_22  and  C_26
REMARK   11  A    between atoms: C_23  and  C_27
REMARK   12  A    between atoms: C_24  and  C_28
REMARK   13  A    between atoms: C_25  and  C_29
REMARK   14  A    between atoms: C_34  and  C_35
REMARK                            x       y       z     vdW  Elec       q    Type
REMARK                         _______ _______ _______ _____ _____    ______ ____
ROOT
ATOM      5  N   UNL     1      -6.845 -10.257  18.040  0.00  0.00    -0.297 NA
ATOM     10  C   UNL     1      -5.189 -12.265  17.960  0.00  0.00    +0.002 C 
ATOM     11  C   UNL     1      -4.698 -11.119  17.033  0.00  0.00    +0.055 C 
ATOM     12  C   UNL     1      -7.590 -11.520  17.795  0.00  0.00    +0.074 C 
ATOM     13  C   UNL     1      -6.613 -12.687  17.539  0.00  0.00    +0.024 C 
ATOM     14  C   UNL     1      -5.293 -11.674  19.382  0.00  0.00    +0.019 C 
ATOM     15  C   UNL     1      -5.829 -10.052  16.978  0.00  0.00    +0.094 C 
ATOM     16  C   UNL     1      -6.139 -10.389  19.336  0.00  0.00    +0.085 C 
ENDROOT
BRANCH  11  18
ATOM      7  N   UNL     1      -3.540 -12.667  15.535  0.00  0.00    -0.232 NA
ATOM      8  N   UNL     1      -3.234 -12.200  13.192  0.00  0.00    -0.232 NA
ATOM     18  C   UNL     1      -4.181 -11.485  15.649  0.00  0.00    +0.050 A 
ATOM     19  C   UNL     1      -4.385 -10.619  14.594  0.00  0.00    +0.047 A 
ATOM     20  C   UNL     1      -3.884 -11.032  13.377  0.00  0.00    +0.048 A 
ATOM     22  C   UNL     1      -3.099 -12.958  14.297  0.00  0.00    +0.160 A 
BRANCH  22  26
ATOM      9  N   UNL     1      -1.064 -16.642  13.828  0.00  0.00    -0.263 NA
ATOM     26  C   UNL     1      -2.407 -14.210  14.137  0.00  0.00    +0.022 A 
ATOM     30  C   UNL     1      -1.190 -14.255  13.467  0.00  0.00    +0.031 A 
ATOM     31  C   UNL     1      -2.954 -15.379  14.654  0.00  0.00    +0.031 A 
ATOM     32  C   UNL     1      -0.564 -15.484  13.339  0.00  0.00    +0.111 A 
ATOM     33  C   UNL     1      -2.249 -16.558  14.474  0.00  0.00    +0.111 A 
ENDBRANCH  22  26
BRANCH  20  21
ATOM     21  C   UNL     1      -4.058 -10.162  12.178  0.00  0.00    +0.037 C 
BRANCH  21  24
ATOM     24  C   UNL     1      -3.027 -10.465  11.051  0.00  0.00    +0.006 C 
ATOM     28  C   UNL     1      -1.829  -9.523  11.075  0.00  0.00    +0.004 C 
ENDBRANCH  21  24
BRANCH  21  25
ATOM     25  C   UNL     1      -5.490 -10.234  11.574  0.00  0.00    +0.006 C 
ATOM     29  C   UNL     1      -6.245  -8.913  11.683  0.00  0.00    +0.004 C 
ENDBRANCH  21  25
ENDBRANCH  20  21
ENDBRANCH  11  18
BRANCH  12  17
ATOM     17  C   UNL     1      -8.620 -11.381  16.672  0.00  0.00    +0.123 C 
BRANCH  17   6
ATOM      2  O   UNL     1      -9.242  -8.606  16.133  0.00  0.00    -0.275 OA
ATOM      6  N   UNL     1      -9.765 -10.649  17.116  0.00  0.00    -0.313 N 
ATOM     23  C   UNL     1      -9.990  -9.308  16.811  0.00  0.00    +0.223 C 
ATOM     36  H   UNL     1     -10.401 -11.113  17.757  0.00  0.00    +0.149 HD
BRANCH  23  27
ATOM     27  C   UNL     1     -11.262  -8.759  17.415  0.00  0.00    +0.165 C 
BRANCH  27   1
ATOM      1  S   UNL     1     -12.336  -8.170  16.084  0.00  0.00    -0.140 S 
BRANCH   1  34
ATOM     34  C   UNL     1     -12.092  -6.392  16.309  0.00  0.00    +0.189 C 
BRANCH  34  35
ATOM      4  O   UNL     1     -11.771  -5.442  14.117  0.00  0.00    -0.250 OA
ATOM     35  C   UNL     1     -11.285  -5.850  15.164  0.00  0.00    +0.315 C 
BRANCH  35   3
ATOM      3  O   UNL     1      -9.952  -5.846  15.419  0.00  0.00    -0.480 OA
ATOM     37  H   UNL     1      -9.455  -6.396  14.776  0.00  0.00    +0.295 HD
ENDBRANCH  35   3
ENDBRANCH  34  35
ENDBRANCH   1  34
ENDBRANCH  27   1
ENDBRANCH  23  27
ENDBRANCH  17   6
ENDBRANCH  12  17
TORSDOF 12
ENDMDL
MODEL 7
REMARK VINA RESULT:      -6.2     17.063     19.953
REMARK  Name = 40776957
REMARK  14 active torsions:
REMARK  status: ('A' for Active; 'I' for Inactive)
REMARK    1  A    between atoms: S_1  and  C_27
REMARK    2  A    between atoms: S_1  and  C_34
REMARK    3  A    between atoms: O_3  and  C_35
REMARK    4  A    between atoms: N_6  and  C_17
REMARK    5  A    between atoms: C_11  and  C_18
REMARK    6  A    between atoms: C_12  and  C_17
REMARK    7  A    between atoms: C_20  and  C_21
REMARK    8  A    between atoms: C_21  and  C_24
REMARK    9  A    between atoms: C_21  and  C_25
REMARK   10  A    between atoms: C_22  and  C_26
REMARK   11  A    between atoms: C_23  and  C_27
REMARK   12  A    between atoms: C_24  and  C_28
REMARK   13  A    between atoms: C_25  and  C_29
REMARK   14  A    between atoms: C_34  and  C_35
REMARK                            x       y       z     vdW  Elec       q    Type
REMARK                         _______ _______ _______ _____ _____    ______ ____
ROOT
ATOM      5  N   UNL     1     -18.519   3.861  25.039  0.00  0.00    -0.297 NA
ATOM     10  C   UNL     1     -16.434   2.415  25.627  0.00  0.00    +0.002 C 
ATOM     11  C   UNL     1     -17.269   2.709  26.904  0.00  0.00    +0.055 C 
ATOM     12  C   UNL     1     -17.296   4.472  24.455  0.00  0.00    +0.074 C 
ATOM     13  C   UNL     1     -16.030   3.748  24.963  0.00  0.00    +0.024 C 
ATOM     14  C   UNL     1     -17.371   1.682  24.642  0.00  0.00    +0.019 C 
ATOM     15  C   UNL     1     -18.371   3.734  26.510  0.00  0.00    +0.094 C 
ATOM     16  C   UNL     1     -18.663   2.500  24.470  0.00  0.00    +0.085 C 
ENDROOT
BRANCH  11  18
ATOM      7  N   UNL     1     -16.774   4.353  28.645  0.00  0.00    -0.232 NA
ATOM      8  N   UNL     1     -15.231   3.901  30.439  0.00  0.00    -0.232 NA
ATOM     18  C   UNL     1     -16.527   3.115  28.170  0.00  0.00    +0.050 A 
ATOM     19  C   UNL     1     -15.659   2.224  28.766  0.00  0.00    +0.047 A 
ATOM     20  C   UNL     1     -15.031   2.676  29.909  0.00  0.00    +0.048 A 
ATOM     22  C   UNL     1     -16.103   4.676  29.767  0.00  0.00    +0.160 A 
BRANCH  22  26
ATOM      9  N   UNL     1     -16.796   8.547  31.340  0.00  0.00    -0.263 NA
ATOM     26  C   UNL     1     -16.338   5.992  30.302  0.00  0.00    +0.022 A 
ATOM     30  C   UNL     1     -16.137   6.242  31.654  0.00  0.00    +0.031 A 
ATOM     31  C   UNL     1     -16.769   7.017  29.467  0.00  0.00    +0.031 A 
ATOM     32  C   UNL     1     -16.378   7.524  32.120  0.00  0.00    +0.111 A 
ATOM     33  C   UNL     1     -16.982   8.265  30.031  0.00  0.00    +0.111 A 
ENDBRANCH  22  26
BRANCH  20  21
ATOM     21  C   UNL     1     -14.075   1.782  30.623  0.00  0.00    +0.037 C 
BRANCH  21  24
ATOM     24  C   UNL     1     -13.835   2.204  32.103  0.00  0.00    +0.006 C 
ATOM     28  C   UNL     1     -14.765   1.493  33.079  0.00  0.00    +0.004 C 
ENDBRANCH  21  24
BRANCH  21  25
ATOM     25  C   UNL     1     -14.501   0.285  30.597  0.00  0.00    +0.006 C 
ATOM     29  C   UNL     1     -13.585  -0.576  29.733  0.00  0.00    +0.004 C 
ENDBRANCH  21  25
ENDBRANCH  20  21
ENDBRANCH  11  18
BRANCH  12  17
ATOM     17  C   UNL     1     -17.225   5.981  24.697  0.00  0.00    +0.123 C 
BRANCH  17   6
ATOM      2  O   UNL     1     -17.010   8.702  23.734  0.00  0.00    -0.275 OA
ATOM      6  N   UNL     1     -16.132   6.562  23.981  0.00  0.00    -0.313 N 
ATOM     23  C   UNL     1     -16.107   7.887  23.551  0.00  0.00    +0.223 C 
ATOM     36  H   UNL     1     -15.373   5.948  23.702  0.00  0.00    +0.149 HD
BRANCH  23  27
ATOM     27  C   UNL     1     -14.847   8.253  22.801  0.00  0.00    +0.165 C 
BRANCH  27   1
ATOM      1  S   UNL     1     -14.811   7.343  21.238  0.00  0.00    -0.140 S 
BRANCH   1  34
ATOM     34  C   UNL     1     -13.251   6.460  21.477  0.00  0.00    +0.189 C 
BRANCH  34  35
ATOM      4  O   UNL     1     -14.610   4.526  21.949  0.00  0.00    -0.250 OA
ATOM     35  C   UNL     1     -13.530   5.095  22.038  0.00  0.00    +0.315 C 
BRANCH  35   3
ATOM      3  O   UNL     1     -12.447   4.548  22.646  0.00  0.00    -0.480 OA
ATOM     37  H   UNL     1     -11.607   4.915  22.296  0.00  0.00    +0.295 HD
ENDBRANCH  35   3
ENDBRANCH  34  35
ENDBRANCH   1  34
ENDBRANCH  27   1
ENDBRANCH  23  27
ENDBRANCH  17   6
ENDBRANCH  12  17
TORSDOF 12
ENDMDL
MODEL 8
REMARK VINA RESULT:      -6.0     17.547     20.253
REMARK  Name = 40776957
REMARK  14 active torsions:
REMARK  status: ('A' for Active; 'I' for Inactive)
REMARK    1  A    between atoms: S_1  and  C_27
REMARK    2  A    between atoms: S_1  and  C_34
REMARK    3  A    between atoms: O_3  and  C_35
REMARK    4  A    between atoms: N_6  and  C_17
REMARK    5  A    between atoms: C_11  and  C_18
REMARK    6  A    between atoms: C_12  and  C_17
REMARK    7  A    between atoms: C_20  and  C_21
REMARK    8  A    between atoms: C_21  and  C_24
REMARK    9  A    between atoms: C_21  and  C_25
REMARK   10  A    between atoms: C_22  and  C_26
REMARK   11  A    between atoms: C_23  and  C_27
REMARK   12  A    between atoms: C_24  and  C_28
REMARK   13  A    between atoms: C_25  and  C_29
REMARK   14  A    between atoms: C_34  and  C_35
REMARK                            x       y       z     vdW  Elec       q    Type
REMARK                         _______ _______ _______ _____ _____    ______ ____
ROOT
ATOM      5  N   UNL     1     -16.420   4.210  22.222  0.00  0.00    -0.297 NA
ATOM     10  C   UNL     1     -17.191   6.694  22.348  0.00  0.00    +0.002 C 
ATOM     11  C   UNL     1     -15.934   6.560  21.444  0.00  0.00    +0.055 C 
ATOM     12  C   UNL     1     -16.620   4.609  23.641  0.00  0.00    +0.074 C 
ATOM     13  C   UNL     1     -16.875   6.127  23.748  0.00  0.00    +0.024 C 
ATOM     14  C   UNL     1     -18.282   5.794  21.729  0.00  0.00    +0.019 C 
ATOM     15  C   UNL     1     -15.419   5.099  21.582  0.00  0.00    +0.094 C 
ATOM     16  C   UNL     1     -17.711   4.381  21.515  0.00  0.00    +0.085 C 
ENDROOT
BRANCH  11  18
ATOM      7  N   UNL     1     -13.920   7.665  20.605  0.00  0.00    -0.232 NA
ATOM      8  N   UNL     1     -12.797   9.402  21.840  0.00  0.00    -0.232 NA
ATOM     18  C   UNL     1     -14.818   7.583  21.608  0.00  0.00    +0.050 A 
ATOM     19  C   UNL     1     -14.774   8.367  22.742  0.00  0.00    +0.047 A 
ATOM     20  C   UNL     1     -13.731   9.268  22.806  0.00  0.00    +0.048 A 
ATOM     22  C   UNL     1     -12.950   8.582  20.783  0.00  0.00    +0.160 A 
BRANCH  22  26
ATOM      9  N   UNL     1     -10.067   8.917  17.699  0.00  0.00    -0.263 NA
ATOM     26  C   UNL     1     -11.970   8.696  19.735  0.00  0.00    +0.022 A 
ATOM     30  C   UNL     1     -11.958   7.780  18.689  0.00  0.00    +0.031 A 
ATOM     31  C   UNL     1     -11.033   9.722  19.765  0.00  0.00    +0.031 A 
ATOM     32  C   UNL     1     -10.995   7.932  17.704  0.00  0.00    +0.111 A 
ATOM     33  C   UNL     1     -10.111   9.787  18.732  0.00  0.00    +0.111 A 
ENDBRANCH  22  26
BRANCH  20  21
ATOM     21  C   UNL     1     -13.601  10.158  23.995  0.00  0.00    +0.037 C 
BRANCH  21  24
ATOM     24  C   UNL     1     -12.347  11.080  23.932  0.00  0.00    +0.006 C 
ATOM     28  C   UNL     1     -11.722  11.324  25.301  0.00  0.00    +0.004 C 
ENDBRANCH  21  24
BRANCH  21  25
ATOM     25  C   UNL     1     -14.857  11.045  24.234  0.00  0.00    +0.006 C 
ATOM     29  C   UNL     1     -15.399  10.934  25.655  0.00  0.00    +0.004 C 
ENDBRANCH  21  25
ENDBRANCH  20  21
ENDBRANCH  11  18
BRANCH  12  17
ATOM     17  C   UNL     1     -15.468   4.158  24.542  0.00  0.00    +0.123 C 
BRANCH  17   6
ATOM      2  O   UNL     1     -16.439   1.636  25.577  0.00  0.00    -0.275 OA
ATOM      6  N   UNL     1     -15.933   3.888  25.867  0.00  0.00    -0.313 N 
ATOM     23  C   UNL     1     -16.385   2.639  26.287  0.00  0.00    +0.223 C 
ATOM     36  H   UNL     1     -16.012   4.672  26.507  0.00  0.00    +0.149 HD
BRANCH  23  27
ATOM     27  C   UNL     1     -16.839   2.616  27.728  0.00  0.00    +0.165 C 
BRANCH  27   1
ATOM      1  S   UNL     1     -15.400   2.846  28.800  0.00  0.00    -0.140 S 
BRANCH   1  34
ATOM     34  C   UNL     1     -15.312   1.177  29.493  0.00  0.00    +0.189 C 
BRANCH  34  35
ATOM      4  O   UNL     1     -13.472  -0.253  30.107  0.00  0.00    -0.250 OA
ATOM     35  C   UNL     1     -13.895   0.875  29.886  0.00  0.00    +0.315 C 
BRANCH  35   3
ATOM      3  O   UNL     1     -13.122   1.988  29.956  0.00  0.00    -0.480 OA
ATOM     37  H   UNL     1     -13.601   2.786  29.645  0.00  0.00    +0.295 HD
ENDBRANCH  35   3
ENDBRANCH  34  35
ENDBRANCH   1  34
ENDBRANCH  27   1
ENDBRANCH  23  27
ENDBRANCH  17   6
ENDBRANCH  12  17
TORSDOF 12
ENDMDL
MODEL 9
REMARK VINA RESULT:      -6.0      3.729      8.583
REMARK  Name = 40776957
REMARK  14 active torsions:
REMARK  status: ('A' for Active; 'I' for Inactive)
REMARK    1  A    between atoms: S_1  and  C_27
REMARK    2  A    between atoms: S_1  and  C_34
REMARK    3  A    between atoms: O_3  and  C_35
REMARK    4  A    between atoms: N_6  and  C_17
REMARK    5  A    between atoms: C_11  and  C_18
REMARK    6  A    between atoms: C_12  and  C_17
REMARK    7  A    between atoms: C_20  and  C_21
REMARK    8  A    between atoms: C_21  and  C_24
REMARK    9  A    between atoms: C_21  and  C_25
REMARK   10  A    between atoms: C_22  and  C_26
REMARK   11  A    between atoms: C_23  and  C_27
REMARK   12  A    between atoms: C_24  and  C_28
REMARK   13  A    between atoms: C_25  and  C_29
REMARK   14  A    between atoms: C_34  and  C_35
REMARK                            x       y       z     vdW  Elec       q    Type
REMARK                         _______ _______ _______ _____ _____    ______ ____
ROOT
ATOM      5  N   UNL     1      -7.350 -10.914  18.453  0.00  0.00    -0.297 NA
ATOM     10  C   UNL     1      -4.919 -11.677  17.911  0.00  0.00    +0.002 C 
ATOM     11  C   UNL     1      -5.293 -10.423  17.075  0.00  0.00    +0.055 C 
ATOM     12  C   UNL     1      -7.329 -12.370  18.156  0.00  0.00    +0.074 C 
ATOM     13  C   UNL     1      -5.941 -12.800  17.634  0.00  0.00    +0.024 C 
ATOM     14  C   UNL     1      -5.071 -11.283  19.396  0.00  0.00    +0.019 C 
ATOM     15  C   UNL     1      -6.809 -10.153  17.299  0.00  0.00    +0.094 C 
ATOM     16  C   UNL     1      -6.466 -10.675  19.619  0.00  0.00    +0.085 C 
ENDROOT
BRANCH  11  18
ATOM      7  N   UNL     1      -5.899 -10.105  14.727  0.00  0.00    -0.232 NA
ATOM      8  N   UNL     1      -4.298 -10.347  12.943  0.00  0.00    -0.232 NA
ATOM     18  C   UNL     1      -4.915 -10.403  15.600  0.00  0.00    +0.050 A 
ATOM     19  C   UNL     1      -3.616 -10.680  15.227  0.00  0.00    +0.047 A 
ATOM     20  C   UNL     1      -3.363 -10.638  13.871  0.00  0.00    +0.048 A 
ATOM     22  C   UNL     1      -5.526 -10.094  13.433  0.00  0.00    +0.160 A 
BRANCH  22  26
ATOM      9  N   UNL     1      -8.541  -9.179  10.603  0.00  0.00    -0.263 NA
ATOM     26  C   UNL     1      -6.551  -9.783  12.470  0.00  0.00    +0.022 A 
ATOM     30  C   UNL     1      -6.217  -9.171  11.268  0.00  0.00    +0.031 A 
ATOM     31  C   UNL     1      -7.879 -10.094  12.741  0.00  0.00    +0.031 A 
ATOM     32  C   UNL     1      -7.240  -8.892  10.376  0.00  0.00    +0.111 A 
ATOM     33  C   UNL     1      -8.827  -9.774  11.782  0.00  0.00    +0.111 A 
ENDBRANCH  22  26
BRANCH  20  21
ATOM     21  C   UNL     1      -1.986 -10.923  13.373  0.00  0.00    +0.037 C 
BRANCH  21  24
ATOM     24  C   UNL     1      -1.504 -12.366  13.707  0.00  0.00    +0.006 C 
ATOM     28  C   UNL     1      -2.288 -13.440  12.962  0.00  0.00    +0.004 C 
ENDBRANCH  21  24
BRANCH  21  25
ATOM     25  C   UNL     1      -1.831 -10.691  11.841  0.00  0.00    +0.006 C 
ATOM     29  C   UNL     1      -1.083  -9.403  11.511  0.00  0.00    +0.004 C 
ENDBRANCH  21  25
ENDBRANCH  20  21
ENDBRANCH  11  18
BRANCH  12  17
ATOM     17  C   UNL     1      -8.451 -12.788  17.203  0.00  0.00    +0.123 C 
BRANCH  17   6
ATOM      2  O   UNL     1     -10.427 -14.204  18.774  0.00  0.00    -0.275 OA
ATOM      6  N   UNL     1      -9.714 -12.293  17.655  0.00  0.00    -0.313 N 
ATOM     23  C   UNL     1     -10.612 -13.043  18.412  0.00  0.00    +0.223 C 
ATOM     36  H   UNL     1     -10.002 -11.373  17.335  0.00  0.00    +0.149 HD
BRANCH  23  27
ATOM     27  C   UNL     1     -11.884 -12.300  18.749  0.00  0.00    +0.165 C 
BRANCH  27   1
ATOM      1  S   UNL     1     -11.535 -11.106  20.062  0.00  0.00    -0.140 S 
BRANCH   1  34
ATOM     34  C   UNL     1     -12.187  -9.623  19.257  0.00  0.00    +0.189 C 
BRANCH  34  35
ATOM      4  O   UNL     1     -11.581  -8.750  17.094  0.00  0.00    -0.250 OA
ATOM     35  C   UNL     1     -11.233  -9.174  18.188  0.00  0.00    +0.315 C 
BRANCH  35   3
ATOM      3  O   UNL     1      -9.935  -9.274  18.571  0.00  0.00    -0.480 OA
ATOM     37  H   UNL     1      -9.431  -8.454  18.376  0.00  0.00    +0.295 HD
ENDBRANCH  35   3
ENDBRANCH  34  35
ENDBRANCH   1  34
ENDBRANCH  27   1
ENDBRANCH  23  27
ENDBRANCH  17   6
ENDBRANCH  12  17
TORSDOF 12
ENDMDL
MODEL 10
REMARK VINA RESULT:      -5.9      5.496     10.138
REMARK  Name = 40776957
REMARK  14 active torsions:
REMARK  status: ('A' for Active; 'I' for Inactive)
REMARK    1  A    between atoms: S_1  and  C_27
REMARK    2  A    between atoms: S_1  and  C_34
REMARK    3  A    between atoms: O_3  and  C_35
REMARK    4  A    between atoms: N_6  and  C_17
REMARK    5  A    between atoms: C_11  and  C_18
REMARK    6  A    between atoms: C_12  and  C_17
REMARK    7  A    between atoms: C_20  and  C_21
REMARK    8  A    between atoms: C_21  and  C_24
REMARK    9  A    between atoms: C_21  and  C_25
REMARK   10  A    between atoms: C_22  and  C_26
REMARK   11  A    between atoms: C_23  and  C_27
REMARK   12  A    between atoms: C_24  and  C_28
REMARK   13  A    between atoms: C_25  and  C_29
REMARK   14  A    between atoms: C_34  and  C_35
REMARK                            x       y       z     vdW  Elec       q    Type
REMARK                         _______ _______ _______ _____ _____    ______ ____
ROOT
ATOM      5  N   UNL     1      -4.121  -9.701  11.708  0.00  0.00    -0.297 NA
ATOM     10  C   UNL     1      -4.744 -11.432   9.865  0.00  0.00    +0.002 C 
ATOM     11  C   UNL     1      -4.646 -10.005   9.259  0.00  0.00    +0.055 C 
ATOM     12  C   UNL     1      -5.260 -10.541  12.164  0.00  0.00    +0.074 C 
ATOM     13  C   UNL     1      -5.776 -11.430  11.012  0.00  0.00    +0.024 C 
ATOM     14  C   UNL     1      -3.368 -11.744  10.493  0.00  0.00    +0.019 C 
ATOM     15  C   UNL     1      -4.474  -9.010  10.443  0.00  0.00    +0.094 C 
ATOM     16  C   UNL     1      -2.973 -10.598  11.441  0.00  0.00    +0.085 C 
ENDROOT
BRANCH  11  18
ATOM      7  N   UNL     1      -6.660  -8.711   8.761  0.00  0.00    -0.232 NA
ATOM      8  N   UNL     1      -7.693  -8.728   6.584  0.00  0.00    -0.232 NA
ATOM     18  C   UNL     1      -5.728  -9.562   8.284  0.00  0.00    +0.050 A 
ATOM     19  C   UNL     1      -5.711 -10.033   6.988  0.00  0.00    +0.047 A 
ATOM     20  C   UNL     1      -6.729  -9.578   6.174  0.00  0.00    +0.048 A 
ATOM     22  C   UNL     1      -7.599  -8.339   7.870  0.00  0.00    +0.160 A 
BRANCH  22  26
ATOM      9  N   UNL     1     -10.583  -5.676   9.263  0.00  0.00    -0.263 NA
ATOM     26  C   UNL     1      -8.613  -7.433   8.343  0.00  0.00    +0.022 A 
ATOM     30  C   UNL     1      -8.467  -6.064   8.159  0.00  0.00    +0.031 A 
ATOM     31  C   UNL     1      -9.743  -7.927   8.988  0.00  0.00    +0.031 A 
ATOM     32  C   UNL     1      -9.470  -5.234   8.634  0.00  0.00    +0.111 A 
ATOM     33  C   UNL     1     -10.689  -7.014   9.424  0.00  0.00    +0.111 A 
ENDBRANCH  22  26
BRANCH  20  21
ATOM     21  C   UNL     1      -6.792 -10.033   4.755  0.00  0.00    +0.037 C 
BRANCH  21  24
ATOM     24  C   UNL     1      -6.368 -11.521   4.573  0.00  0.00    +0.006 C 
ATOM     28  C   UNL     1      -7.451 -12.503   5.006  0.00  0.00    +0.004 C 
ENDBRANCH  21  24
BRANCH  21  25
ATOM     25  C   UNL     1      -8.197  -9.835   4.113  0.00  0.00    +0.006 C 
ATOM     29  C   UNL     1      -8.137  -9.684   2.596  0.00  0.00    +0.004 C 
ENDBRANCH  21  25
ENDBRANCH  20  21
ENDBRANCH  11  18
BRANCH  12  17
ATOM     17  C   UNL     1      -6.383  -9.711  12.791  0.00  0.00    +0.123 C 
BRANCH  17   6
ATOM      2  O   UNL     1      -7.549 -11.201  14.982  0.00  0.00    -0.275 OA
ATOM      6  N   UNL     1      -6.154  -9.517  14.189  0.00  0.00    -0.313 N 
ATOM     23  C   UNL     1      -6.758 -10.282  15.185  0.00  0.00    +0.223 C 
ATOM     36  H   UNL     1      -5.583  -8.724  14.467  0.00  0.00    +0.149 HD
BRANCH  23  27
ATOM     27  C   UNL     1      -6.365  -9.867  16.584  0.00  0.00    +0.165 C 
BRANCH  27   1
ATOM      1  S   UNL     1      -4.765 -10.606  16.988  0.00  0.00    -0.140 S 
BRANCH   1  34
ATOM     34  C   UNL     1      -5.136 -11.149  18.673  0.00  0.00    +0.189 C 
BRANCH  34  35
ATOM      4  O   UNL     1      -3.274 -12.103  19.869  0.00  0.00    -0.250 OA
ATOM     35  C   UNL     1      -4.187 -12.244  19.065  0.00  0.00    +0.315 C 
BRANCH  35   3
ATOM      3  O   UNL     1      -4.458 -13.419  18.444  0.00  0.00    -0.480 OA
ATOM     37  H   UNL     1      -3.675 -13.769  17.966  0.00  0.00    +0.295 HD
ENDBRANCH  35   3
ENDBRANCH  34  35
ENDBRANCH   1  34
ENDBRANCH  27   1
ENDBRANCH  23  27
ENDBRANCH  17   6
ENDBRANCH  12  17
TORSDOF 12
ENDMDL
