MODEL 1
REMARK VINA RESULT:      -6.6      0.000      0.000
REMARK  Name = 51137035
REMARK  3 active torsions:
REMARK  status: ('A' for Active; 'I' for Inactive)
REMARK    1  A    between atoms: N_1  and  C_6
REMARK    2  A    between atoms: C_5  and  C_6
REMARK    3  A    between atoms: C_7  and  C_16
REMARK                            x       y       z     vdW  Elec       q    Type
REMARK                         _______ _______ _______ _____ _____    ______ ____
ROOT
ATOM      1  N   UNL     1     -13.689   6.485  21.287  0.00  0.00    -0.301 NA
ATOM      7  C   UNL     1     -15.396   5.154  22.189  0.00  0.00    +0.070 C 
ATOM      8  C   UNL     1     -13.909   5.135  21.810  0.00  0.00    +0.095 C 
ATOM      9  C   UNL     1     -14.398   7.368  22.213  0.00  0.00    +0.085 C 
ATOM     12  C   UNL     1     -15.716   6.639  22.436  0.00  0.00    +0.028 C 
ENDROOT
BRANCH   7  16
ATOM      2  N   UNL     1     -15.604   4.657  24.641  0.00  0.00    -0.340 N 
ATOM      3  N   UNL     1     -16.136   2.989  23.264  0.00  0.00    -0.213 NA
ATOM      4  N   UNL     1     -16.707   1.364  24.976  0.00  0.00    -0.234 NA
ATOM     16  C   UNL     1     -15.722   4.235  23.343  0.00  0.00    +0.114 A 
ATOM     17  C   UNL     1     -15.966   3.615  25.450  0.00  0.00    +0.085 A 
ATOM     18  C   UNL     1     -16.292   2.590  24.568  0.00  0.00    +0.178 A 
ATOM     19  C   UNL     1     -16.044   3.452  26.828  0.00  0.00    +0.031 A 
ATOM     20  C   UNL     1     -16.470   2.199  27.263  0.00  0.00    +0.022 A 
ATOM     21  C   UNL     1     -16.778   1.223  26.320  0.00  0.00    +0.113 A 
ATOM     22  H   UNL     1     -15.304   5.573  24.948  0.00  0.00    +0.167 HD
ENDBRANCH   7  16
BRANCH   1   6
ATOM      6  C   UNL     1     -12.275   6.813  21.179  0.00  0.00    +0.088 C 
BRANCH   6   5
ATOM      5  C   UNL     1     -12.026   7.769  20.013  0.00  0.00    +0.003 C 
ATOM     10  C   UNL     1     -11.226   8.992  20.478  0.00  0.00    +0.005 C 
ATOM     11  C   UNL     1     -11.305   7.047  18.867  0.00  0.00    +0.005 C 
ATOM     13  C   UNL     1     -10.917   9.938  19.318  0.00  0.00    +0.000 C 
ATOM     14  C   UNL     1     -10.996   7.995  17.710  0.00  0.00    +0.000 C 
ATOM     15  C   UNL     1     -10.209   9.215  18.177  0.00  0.00    +0.000 C 
ENDBRANCH   6   5
ENDBRANCH   1   6
TORSDOF 3
ENDMDL
MODEL 2
REMARK VINA RESULT:      -6.6     20.115     21.213
REMARK  Name = 51137035
REMARK  3 active torsions:
REMARK  status: ('A' for Active; 'I' for Inactive)
REMARK    1  A    between atoms: N_1  and  C_6
REMARK    2  A    between atoms: C_5  and  C_6
REMARK    3  A    between atoms: C_7  and  C_16
REMARK                            x       y       z     vdW  Elec       q    Type
REMARK                         _______ _______ _______ _____ _____    ______ ____
ROOT
ATOM      1  N   UNL     1      -2.399 -11.414  12.675  0.00  0.00    -0.301 NA
ATOM      7  C   UNL     1      -2.733 -10.646  14.865  0.00  0.00    +0.070 C 
ATOM      8  C   UNL     1      -3.437 -10.807  13.511  0.00  0.00    +0.095 C 
ATOM      9  C   UNL     1      -1.780 -12.432  13.523  0.00  0.00    +0.085 C 
ATOM     12  C   UNL     1      -1.625 -11.714  14.858  0.00  0.00    +0.028 C 
ENDROOT
BRANCH   7  16
ATOM      2  N   UNL     1      -3.356 -11.428  17.168  0.00  0.00    -0.340 N 
ATOM      3  N   UNL     1      -4.874 -10.177  16.124  0.00  0.00    -0.213 NA
ATOM      4  N   UNL     1      -6.535 -10.189  17.895  0.00  0.00    -0.234 NA
ATOM     16  C   UNL     1      -3.684 -10.728  16.037  0.00  0.00    +0.114 A 
ATOM     17  C   UNL     1      -4.404 -11.319  18.040  0.00  0.00    +0.085 A 
ATOM     18  C   UNL     1      -5.335 -10.536  17.366  0.00  0.00    +0.178 A 
ATOM     19  C   UNL     1      -4.642 -11.806  19.321  0.00  0.00    +0.031 A 
ATOM     20  C   UNL     1      -5.871 -11.458  19.878  0.00  0.00    +0.022 A 
ATOM     21  C   UNL     1      -6.751 -10.672  19.141  0.00  0.00    +0.113 A 
ATOM     22  H   UNL     1      -2.495 -11.934  17.332  0.00  0.00    +0.167 HD
ENDBRANCH   7  16
BRANCH   1   6
ATOM      6  C   UNL     1      -2.937 -11.971  11.442  0.00  0.00    +0.088 C 
BRANCH   6   5
ATOM      5  C   UNL     1      -3.909 -10.994  10.782  0.00  0.00    +0.003 C 
ATOM     10  C   UNL     1      -3.155  -9.790  10.202  0.00  0.00    +0.005 C 
ATOM     11  C   UNL     1      -4.730 -11.700   9.695  0.00  0.00    +0.005 C 
ATOM     13  C   UNL     1      -4.100  -8.825   9.489  0.00  0.00    +0.000 C 
ATOM     14  C   UNL     1      -5.673 -10.732   8.983  0.00  0.00    +0.000 C 
ATOM     15  C   UNL     1      -4.922  -9.531   8.415  0.00  0.00    +0.000 C 
ENDBRANCH   6   5
ENDBRANCH   1   6
TORSDOF 3
ENDMDL
MODEL 3
REMARK VINA RESULT:      -6.4     14.971     16.574
REMARK  Name = 51137035
REMARK  3 active torsions:
REMARK  status: ('A' for Active; 'I' for Inactive)
REMARK    1  A    between atoms: N_1  and  C_6
REMARK    2  A    between atoms: C_5  and  C_6
REMARK    3  A    between atoms: C_7  and  C_16
REMARK                            x       y       z     vdW  Elec       q    Type
REMARK                         _______ _______ _______ _____ _____    ______ ____
ROOT
ATOM      1  N   UNL     1      -9.504  -8.699  16.679  0.00  0.00    -0.301 NA
ATOM      7  C   UNL     1     -11.162  -7.051  16.480  0.00  0.00    +0.070 C 
ATOM      8  C   UNL     1      -9.801  -7.483  15.918  0.00  0.00    +0.095 C 
ATOM      9  C   UNL     1     -10.767  -9.436  16.718  0.00  0.00    +0.085 C 
ATOM     12  C   UNL     1     -11.787  -8.348  17.025  0.00  0.00    +0.028 C 
ENDROOT
BRANCH   7  16
ATOM      2  N   UNL     1     -11.456  -5.408  14.606  0.00  0.00    -0.340 N 
ATOM      3  N   UNL     1     -13.308  -6.436  15.295  0.00  0.00    -0.213 NA
ATOM      4  N   UNL     1     -14.837  -5.358  13.748  0.00  0.00    -0.234 NA
ATOM     16  C   UNL     1     -12.010  -6.315  15.470  0.00  0.00    +0.114 A 
ATOM     17  C   UNL     1     -12.463  -4.914  13.823  0.00  0.00    +0.085 A 
ATOM     18  C   UNL     1     -13.604  -5.570  14.273  0.00  0.00    +0.178 A 
ATOM     19  C   UNL     1     -12.508  -3.984  12.790  0.00  0.00    +0.031 A 
ATOM     20  C   UNL     1     -13.767  -3.756  12.241  0.00  0.00    +0.022 A 
ATOM     21  C   UNL     1     -14.863  -4.450  12.744  0.00  0.00    +0.113 A 
ATOM     22  H   UNL     1     -10.479  -5.149  14.553  0.00  0.00    +0.167 HD
ENDBRANCH   7  16
BRANCH   1   6
ATOM      6  C   UNL     1      -8.426  -9.475  16.085  0.00  0.00    +0.088 C 
BRANCH   6   5
ATOM      5  C   UNL     1      -7.212  -9.518  17.012  0.00  0.00    +0.003 C 
ATOM     10  C   UNL     1      -7.522 -10.339  18.271  0.00  0.00    +0.005 C 
ATOM     11  C   UNL     1      -5.990 -10.085  16.277  0.00  0.00    +0.005 C 
ATOM     13  C   UNL     1      -6.306 -10.442  19.190  0.00  0.00    +0.000 C 
ATOM     14  C   UNL     1      -4.776 -10.189  17.199  0.00  0.00    +0.000 C 
ATOM     15  C   UNL     1      -5.090 -10.997  18.454  0.00  0.00    +0.000 C 
ENDBRANCH   6   5
ENDBRANCH   1   6
TORSDOF 3
ENDMDL
MODEL 4
REMARK VINA RESULT:      -6.3     18.185     19.227
REMARK  Name = 51137035
REMARK  3 active torsions:
REMARK  status: ('A' for Active; 'I' for Inactive)
REMARK    1  A    between atoms: N_1  and  C_6
REMARK    2  A    between atoms: C_5  and  C_6
REMARK    3  A    between atoms: C_7  and  C_16
REMARK                            x       y       z     vdW  Elec       q    Type
REMARK                         _______ _______ _______ _____ _____    ______ ____
ROOT
ATOM      1  N   UNL     1      -4.230 -10.702  14.776  0.00  0.00    -0.301 NA
ATOM      7  C   UNL     1      -5.356  -9.981  16.703  0.00  0.00    +0.070 C 
ATOM      8  C   UNL     1      -5.513 -10.126  15.184  0.00  0.00    +0.095 C 
ATOM      9  C   UNL     1      -3.942 -11.727  15.780  0.00  0.00    +0.085 C 
ATOM     12  C   UNL     1      -4.299 -11.033  17.087  0.00  0.00    +0.028 C 
ENDROOT
BRANCH   7  16
ATOM      2  N   UNL     1      -7.792  -9.457  17.002  0.00  0.00    -0.340 N 
ATOM      3  N   UNL     1      -6.889 -10.790  18.542  0.00  0.00    -0.213 NA
ATOM      4  N   UNL     1      -8.896 -11.106  19.873  0.00  0.00    -0.234 NA
ATOM     16  C   UNL     1      -6.666 -10.100  17.445  0.00  0.00    +0.114 A 
ATOM     17  C   UNL     1      -8.806  -9.754  17.872  0.00  0.00    +0.085 A 
ATOM     18  C   UNL     1      -8.217 -10.583  18.820  0.00  0.00    +0.178 A 
ATOM     19  C   UNL     1     -10.149  -9.398  17.938  0.00  0.00    +0.031 A 
ATOM     20  C   UNL     1     -10.859  -9.926  19.013  0.00  0.00    +0.022 A 
ATOM     21  C   UNL     1     -10.201 -10.749  19.922  0.00  0.00    +0.113 A 
ATOM     22  H   UNL     1      -7.864  -8.870  16.182  0.00  0.00    +0.167 HD
ENDBRANCH   7  16
BRANCH   1   6
ATOM      6  C   UNL     1      -4.269 -11.243  13.425  0.00  0.00    +0.088 C 
BRANCH   6   5
ATOM      5  C   UNL     1      -4.054 -10.140  12.391  0.00  0.00    +0.003 C 
ATOM     10  C   UNL     1      -2.812 -10.431  11.539  0.00  0.00    +0.005 C 
ATOM     11  C   UNL     1      -5.298  -9.979  11.506  0.00  0.00    +0.005 C 
ATOM     13  C   UNL     1      -2.606  -9.368  10.461  0.00  0.00    +0.000 C 
ATOM     14  C   UNL     1      -5.089  -8.917  10.428  0.00  0.00    +0.000 C 
ATOM     15  C   UNL     1      -3.847  -9.204   9.589  0.00  0.00    +0.000 C 
ENDBRANCH   6   5
ENDBRANCH   1   6
TORSDOF 3
ENDMDL
MODEL 5
REMARK VINA RESULT:      -6.3     27.362     31.823
REMARK  Name = 51137035
REMARK  3 active torsions:
REMARK  status: ('A' for Active; 'I' for Inactive)
REMARK    1  A    between atoms: N_1  and  C_6
REMARK    2  A    between atoms: C_5  and  C_6
REMARK    3  A    between atoms: C_7  and  C_16
REMARK                            x       y       z     vdW  Elec       q    Type
REMARK                         _______ _______ _______ _____ _____    ______ ____
ROOT
ATOM      1  N   UNL     1      11.904   4.719   2.002  0.00  0.00    -0.301 NA
ATOM      7  C   UNL     1      10.402   5.581   3.583  0.00  0.00    +0.070 C 
ATOM      8  C   UNL     1      11.058   4.277   3.113  0.00  0.00    +0.095 C 
ATOM      9  C   UNL     1      12.531   5.953   2.475  0.00  0.00    +0.085 C 
ATOM     12  C   UNL     1      11.375   6.689   3.141  0.00  0.00    +0.028 C 
ENDROOT
BRANCH   7  16
ATOM      2  N   UNL     1      10.212   4.442   5.812  0.00  0.00    -0.340 N 
ATOM      3  N   UNL     1       9.646   6.596   5.772  0.00  0.00    -0.213 NA
ATOM      4  N   UNL     1       9.072   6.795   8.123  0.00  0.00    -0.234 NA
ATOM     16  C   UNL     1      10.075   5.578   5.059  0.00  0.00    +0.114 A 
ATOM     17  C   UNL     1       9.845   4.750   7.094  0.00  0.00    +0.085 A 
ATOM     18  C   UNL     1       9.498   6.095   7.041  0.00  0.00    +0.178 A 
ATOM     19  C   UNL     1       9.780   4.019   8.275  0.00  0.00    +0.031 A 
ATOM     20  C   UNL     1       9.344   4.723   9.394  0.00  0.00    +0.022 A 
ATOM     21  C   UNL     1       9.013   6.068   9.263  0.00  0.00    +0.113 A 
ATOM     22  H   UNL     1      10.526   3.539   5.483  0.00  0.00    +0.167 HD
ENDBRANCH   7  16
BRANCH   1   6
ATOM      6  C   UNL     1      12.881   3.713   1.615  0.00  0.00    +0.088 C 
BRANCH   6   5
ATOM      5  C   UNL     1      12.884   3.511   0.100  0.00  0.00    +0.003 C 
ATOM     10  C   UNL     1      11.513   3.858  -0.494  0.00  0.00    +0.005 C 
ATOM     11  C   UNL     1      13.991   4.347  -0.555  0.00  0.00    +0.005 C 
ATOM     13  C   UNL     1      11.506   3.716  -2.015  0.00  0.00    +0.000 C 
ATOM     14  C   UNL     1      13.981   4.204  -2.076  0.00  0.00    +0.000 C 
ATOM     15  C   UNL     1      12.613   4.541  -2.663  0.00  0.00    +0.000 C 
ENDBRANCH   6   5
ENDBRANCH   1   6
TORSDOF 3
ENDMDL
MODEL 6
REMARK VINA RESULT:      -6.2     28.075     33.083
REMARK  Name = 51137035
REMARK  3 active torsions:
REMARK  status: ('A' for Active; 'I' for Inactive)
REMARK    1  A    between atoms: N_1  and  C_6
REMARK    2  A    between atoms: C_5  and  C_6
REMARK    3  A    between atoms: C_7  and  C_16
REMARK                            x       y       z     vdW  Elec       q    Type
REMARK                         _______ _______ _______ _____ _____    ______ ____
ROOT
ATOM      1  N   UNL     1      10.909   5.021   4.036  0.00  0.00    -0.301 NA
ATOM      7  C   UNL     1      12.098   4.467   2.092  0.00  0.00    +0.070 C 
ATOM      8  C   UNL     1      10.898   4.041   2.948  0.00  0.00    +0.095 C 
ATOM      9  C   UNL     1      11.173   6.304   3.384  0.00  0.00    +0.085 C 
ATOM     12  C   UNL     1      12.285   5.963   2.401  0.00  0.00    +0.028 C 
ENDROOT
BRANCH   7  16
ATOM      2  N   UNL     1      13.005   3.942  -0.189  0.00  0.00    -0.340 N 
ATOM      3  N   UNL     1      10.785   4.010  -0.019  0.00  0.00    -0.213 NA
ATOM      4  N   UNL     1      10.295   3.494  -2.341  0.00  0.00    -0.234 NA
ATOM     16  C   UNL     1      11.923   4.140   0.627  0.00  0.00    +0.114 A 
ATOM     17  C   UNL     1      12.532   3.666  -1.443  0.00  0.00    +0.085 A 
ATOM     18  C   UNL     1      11.149   3.715  -1.309  0.00  0.00    +0.178 A 
ATOM     19  C   UNL     1      13.144   3.383  -2.659  0.00  0.00    +0.031 A 
ATOM     20  C   UNL     1      12.281   3.154  -3.728  0.00  0.00    +0.022 A 
ATOM     21  C   UNL     1      10.907   3.221  -3.517  0.00  0.00    +0.113 A 
ATOM     22  H   UNL     1      13.978   3.990   0.083  0.00  0.00    +0.167 HD
ENDBRANCH   7  16
BRANCH   1   6
ATOM      6  C   UNL     1       9.664   5.026   4.789  0.00  0.00    +0.088 C 
BRANCH   6   5
ATOM      5  C   UNL     1       9.913   5.396   6.250  0.00  0.00    +0.003 C 
ATOM     10  C   UNL     1       8.972   6.525   6.691  0.00  0.00    +0.005 C 
ATOM     11  C   UNL     1       9.754   4.167   7.155  0.00  0.00    +0.005 C 
ATOM     13  C   UNL     1       9.165   6.876   8.165  0.00  0.00    +0.000 C 
ATOM     14  C   UNL     1       9.947   4.522   8.628  0.00  0.00    +0.000 C 
ATOM     15  C   UNL     1       9.016   5.650   9.061  0.00  0.00    +0.000 C 
ENDBRANCH   6   5
ENDBRANCH   1   6
TORSDOF 3
ENDMDL
MODEL 7
REMARK VINA RESULT:      -6.1     31.966     32.924
REMARK  Name = 51137035
REMARK  3 active torsions:
REMARK  status: ('A' for Active; 'I' for Inactive)
REMARK    1  A    between atoms: N_1  and  C_6
REMARK    2  A    between atoms: C_5  and  C_6
REMARK    3  A    between atoms: C_7  and  C_16
REMARK                            x       y       z     vdW  Elec       q    Type
REMARK                         _______ _______ _______ _____ _____    ______ ____
ROOT
ATOM      1  N   UNL     1       2.330   4.674  -5.900  0.00  0.00    -0.301 NA
ATOM      7  C   UNL     1       1.429   2.895  -7.133  0.00  0.00    +0.070 C 
ATOM      8  C   UNL     1       1.938   3.272  -5.736  0.00  0.00    +0.095 C 
ATOM      9  C   UNL     1       1.255   5.276  -6.688  0.00  0.00    +0.085 C 
ATOM     12  C   UNL     1       0.995   4.230  -7.764  0.00  0.00    +0.028 C 
ENDROOT
BRANCH   7  16
ATOM      2  N   UNL     1      -0.822   1.992  -7.783  0.00  0.00    -0.340 N 
ATOM      3  N   UNL     1       0.403   0.684  -6.460  0.00  0.00    -0.213 NA
ATOM      4  N   UNL     1      -1.193  -1.137  -6.285  0.00  0.00    -0.234 NA
ATOM     16  C   UNL     1       0.355   1.831  -7.102  0.00  0.00    +0.114 A 
ATOM     17  C   UNL     1      -1.582   0.875  -7.565  0.00  0.00    +0.085 A 
ATOM     18  C   UNL     1      -0.796   0.079  -6.740  0.00  0.00    +0.178 A 
ATOM     19  C   UNL     1      -2.844   0.476  -7.989  0.00  0.00    +0.031 A 
ATOM     20  C   UNL     1      -3.266  -0.770  -7.531  0.00  0.00    +0.022 A 
ATOM     21  C   UNL     1      -2.424  -1.510  -6.706  0.00  0.00    +0.113 A 
ATOM     22  H   UNL     1      -1.085   2.791  -8.346  0.00  0.00    +0.167 HD
ENDBRANCH   7  16
BRANCH   1   6
ATOM      6  C   UNL     1       2.528   5.347  -4.624  0.00  0.00    +0.088 C 
BRANCH   6   5
ATOM      5  C   UNL     1       4.014   5.443  -4.284  0.00  0.00    +0.003 C 
ATOM     10  C   UNL     1       4.852   5.607  -5.558  0.00  0.00    +0.005 C 
ATOM     11  C   UNL     1       4.272   6.598  -3.308  0.00  0.00    +0.005 C 
ATOM     13  C   UNL     1       6.338   5.759  -5.240  0.00  0.00    +0.000 C 
ATOM     14  C   UNL     1       5.759   6.749  -2.993  0.00  0.00    +0.000 C 
ATOM     15  C   UNL     1       6.590   6.903  -4.263  0.00  0.00    +0.000 C 
ENDBRANCH   6   5
ENDBRANCH   1   6
TORSDOF 3
ENDMDL
MODEL 8
REMARK VINA RESULT:      -6.1      5.179      9.819
REMARK  Name = 51137035
REMARK  3 active torsions:
REMARK  status: ('A' for Active; 'I' for Inactive)
REMARK    1  A    between atoms: N_1  and  C_6
REMARK    2  A    between atoms: C_5  and  C_6
REMARK    3  A    between atoms: C_7  and  C_16
REMARK                            x       y       z     vdW  Elec       q    Type
REMARK                         _______ _______ _______ _____ _____    ______ ____
ROOT
ATOM      1  N   UNL     1     -14.303   2.609  30.734  0.00  0.00    -0.301 NA
ATOM      7  C   UNL     1     -15.903   2.262  29.056  0.00  0.00    +0.070 C 
ATOM      8  C   UNL     1     -14.942   3.315  29.622  0.00  0.00    +0.095 C 
ATOM      9  C   UNL     1     -14.010   1.273  30.214  0.00  0.00    +0.085 C 
ATOM     12  C   UNL     1     -15.289   0.912  29.468  0.00  0.00    +0.028 C 
ENDROOT
BRANCH   7  16
ATOM      2  N   UNL     1     -15.770   3.560  26.912  0.00  0.00    -0.340 N 
ATOM      3  N   UNL     1     -16.709   1.545  26.769  0.00  0.00    -0.213 NA
ATOM      4  N   UNL     1     -17.183   1.608  24.389  0.00  0.00    -0.234 NA
ATOM     16  C   UNL     1     -16.145   2.421  27.572  0.00  0.00    +0.114 A 
ATOM     17  C   UNL     1     -16.116   3.408  25.596  0.00  0.00    +0.085 A 
ATOM     18  C   UNL     1     -16.698   2.147  25.536  0.00  0.00    +0.178 A 
ATOM     19  C   UNL     1     -15.988   4.215  24.471  0.00  0.00    +0.031 A 
ATOM     20  C   UNL     1     -16.482   3.676  23.286  0.00  0.00    +0.022 A 
ATOM     21  C   UNL     1     -17.051   2.406  23.303  0.00  0.00    +0.113 A 
ATOM     22  H   UNL     1     -15.319   4.369  27.319  0.00  0.00    +0.167 HD
ENDBRANCH   7  16
BRANCH   1   6
ATOM      6  C   UNL     1     -13.109   3.292  31.211  0.00  0.00    +0.088 C 
BRANCH   6   5
ATOM      5  C   UNL     1     -13.372   3.975  32.552  0.00  0.00    +0.003 C 
ATOM     10  C   UNL     1     -13.804   5.433  32.341  0.00  0.00    +0.005 C 
ATOM     11  C   UNL     1     -14.427   3.203  33.355  0.00  0.00    +0.005 C 
ATOM     13  C   UNL     1     -14.125   6.122  33.666  0.00  0.00    +0.000 C 
ATOM     14  C   UNL     1     -14.747   3.896  34.678  0.00  0.00    +0.000 C 
ATOM     15  C   UNL     1     -15.167   5.347  34.466  0.00  0.00    +0.000 C 
ENDBRANCH   6   5
ENDBRANCH   1   6
TORSDOF 3
ENDMDL
MODEL 9
REMARK VINA RESULT:      -6.0     29.084     33.703
REMARK  Name = 51137035
REMARK  3 active torsions:
REMARK  status: ('A' for Active; 'I' for Inactive)
REMARK    1  A    between atoms: N_1  and  C_6
REMARK    2  A    between atoms: C_5  and  C_6
REMARK    3  A    between atoms: C_7  and  C_16
REMARK                            x       y       z     vdW  Elec       q    Type
REMARK                         _______ _______ _______ _____ _____    ______ ____
ROOT
ATOM      1  N   UNL     1      16.501   8.363   5.134  0.00  0.00    -0.301 NA
ATOM      7  C   UNL     1      14.535   7.190   5.641  0.00  0.00    +0.070 C 
ATOM      8  C   UNL     1      15.567   8.153   6.242  0.00  0.00    +0.095 C 
ATOM      9  C   UNL     1      15.653   8.533   3.954  0.00  0.00    +0.085 C 
ATOM     12  C   UNL     1      14.611   7.435   4.123  0.00  0.00    +0.028 C 
ENDROOT
BRANCH   7  16
ATOM      2  N   UNL     1      12.374   6.266   6.523  0.00  0.00    -0.340 N 
ATOM      3  N   UNL     1      12.564   8.485   6.552  0.00  0.00    -0.213 NA
ATOM      4  N   UNL     1      10.385   8.956   7.512  0.00  0.00    -0.234 NA
ATOM     16  C   UNL     1      13.157   7.353   6.240  0.00  0.00    +0.114 A 
ATOM     17  C   UNL     1      11.199   6.728   7.051  0.00  0.00    +0.085 A 
ATOM     18  C   UNL     1      11.344   8.111   7.058  0.00  0.00    +0.178 A 
ATOM     19  C   UNL     1      10.046   6.107   7.516  0.00  0.00    +0.031 A 
ATOM     20  C   UNL     1       9.051   6.961   7.986  0.00  0.00    +0.022 A 
ATOM     21  C   UNL     1       9.269   8.335   7.961  0.00  0.00    +0.113 A 
ATOM     22  H   UNL     1      12.617   5.296   6.370  0.00  0.00    +0.167 HD
ENDBRANCH   7  16
BRANCH   1   6
ATOM      6  C   UNL     1      17.377   9.504   5.356  0.00  0.00    +0.088 C 
BRANCH   6   5
ATOM      5  C   UNL     1      18.844   9.083   5.298  0.00  0.00    +0.003 C 
ATOM     10  C   UNL     1      19.314   8.569   6.666  0.00  0.00    +0.005 C 
ATOM     11  C   UNL     1      19.060   8.021   4.212  0.00  0.00    +0.005 C 
ATOM     13  C   UNL     1      20.764   8.091   6.621  0.00  0.00    +0.000 C 
ATOM     14  C   UNL     1      20.511   7.543   4.170  0.00  0.00    +0.000 C 
ATOM     15  C   UNL     1      20.977   7.042   5.534  0.00  0.00    +0.000 C 
ENDBRANCH   6   5
ENDBRANCH   1   6
TORSDOF 3
ENDMDL
MODEL 10
REMARK VINA RESULT:      -5.9     14.959     16.043
REMARK  Name = 51137035
REMARK  3 active torsions:
REMARK  status: ('A' for Active; 'I' for Inactive)
REMARK    1  A    between atoms: N_1  and  C_6
REMARK    2  A    between atoms: C_5  and  C_6
REMARK    3  A    between atoms: C_7  and  C_16
REMARK                            x       y       z     vdW  Elec       q    Type
REMARK                         _______ _______ _______ _____ _____    ______ ____
ROOT
ATOM      1  N   UNL     1     -12.175  -7.006  14.848  0.00  0.00    -0.301 NA
ATOM      7  C   UNL     1     -11.013  -8.071  16.584  0.00  0.00    +0.070 C 
ATOM      8  C   UNL     1     -11.428  -8.237  15.116  0.00  0.00    +0.095 C 
ATOM      9  C   UNL     1     -11.387  -5.944  15.473  0.00  0.00    +0.085 C 
ATOM     12  C   UNL     1     -11.006  -6.550  16.817  0.00  0.00    +0.028 C 
ENDROOT
BRANCH   7  16
ATOM      2  N   UNL     1      -8.593  -8.575  16.147  0.00  0.00    -0.340 N 
ATOM      3  N   UNL     1      -9.495  -9.599  17.907  0.00  0.00    -0.213 NA
ATOM      4  N   UNL     1      -7.506 -10.809  18.596  0.00  0.00    -0.234 NA
ATOM     16  C   UNL     1      -9.713  -8.769  16.911  0.00  0.00    +0.114 A 
ATOM     17  C   UNL     1      -7.588  -9.331  16.686  0.00  0.00    +0.085 A 
ATOM     18  C   UNL     1      -8.176  -9.957  17.779  0.00  0.00    +0.178 A 
ATOM     19  C   UNL     1      -6.255  -9.535  16.351  0.00  0.00    +0.031 A 
ATOM     20  C   UNL     1      -5.553 -10.406  17.179  0.00  0.00    +0.022 A 
ATOM     21  C   UNL     1      -6.209 -10.996  18.255  0.00  0.00    +0.113 A 
ATOM     22  H   UNL     1      -8.520  -7.981  15.331  0.00  0.00    +0.167 HD
ENDBRANCH   7  16
BRANCH   1   6
ATOM      6  C   UNL     1     -12.378  -6.781  13.424  0.00  0.00    +0.088 C 
BRANCH   6   5
ATOM      5  C   UNL     1     -12.746  -5.324  13.150  0.00  0.00    +0.003 C 
ATOM     10  C   UNL     1     -12.228  -4.884  11.775  0.00  0.00    +0.005 C 
ATOM     11  C   UNL     1     -14.263  -5.120  13.254  0.00  0.00    +0.005 C 
ATOM     13  C   UNL     1     -12.629  -3.445  11.455  0.00  0.00    +0.000 C 
ATOM     14  C   UNL     1     -14.662  -3.680  12.932  0.00  0.00    +0.000 C 
ATOM     15  C   UNL     1     -14.137  -3.243  11.568  0.00  0.00    +0.000 C 
ENDBRANCH   6   5
ENDBRANCH   1   6
TORSDOF 3
ENDMDL
