MODEL 1
REMARK VINA RESULT:      -8.1      0.000      0.000
REMARK  Name = 75367161
REMARK  5 active torsions:
REMARK  status: ('A' for Active; 'I' for Inactive)
REMARK    1  A    between atoms: N_4  and  C_10
REMARK    2  A    between atoms: C_7  and  C_12
REMARK    3  A    between atoms: C_10  and  C_13
REMARK    4  A    between atoms: C_14  and  C_18
REMARK    5  A    between atoms: C_21  and  C_24
REMARK                            x       y       z     vdW  Elec       q    Type
REMARK                         _______ _______ _______ _____ _____    ______ ____
ROOT
ATOM      3  O   UNL     1      13.541   8.518  15.443  0.00  0.00    -0.377 OA
ATOM      4  N   UNL     1      12.334   8.684  18.034  0.00  0.00    -0.285 NA
ATOM      7  C   UNL     1      13.357   7.653  17.721  0.00  0.00    +0.149 C 
ATOM      8  C   UNL     1      11.634   9.096  16.804  0.00  0.00    +0.113 C 
ATOM      9  C   UNL     1      14.289   8.156  16.601  0.00  0.00    +0.186 C 
ATOM     11  C   UNL     1      12.625   9.568  15.750  0.00  0.00    +0.175 C 
ENDROOT
BRANCH   7  12
ATOM      5  N   UNL     1      15.545   7.492  18.962  0.00  0.00    -0.340 N 
ATOM      6  N   UNL     1      13.780   6.645  20.012  0.00  0.00    -0.238 NA
ATOM     12  C   UNL     1      14.200   7.248  18.922  0.00  0.00    +0.127 A 
ATOM     14  C   UNL     1      16.013   7.014  20.154  0.00  0.00    +0.069 A 
ATOM     15  C   UNL     1      14.905   6.497  20.784  0.00  0.00    +0.139 A 
ATOM     28  H   UNL     1      16.088   7.944  18.239  0.00  0.00    +0.167 HD
BRANCH  14  18
ATOM      1  F   UNL     1      17.951   5.237  19.176  0.00  0.00    -0.205 F 
ATOM      2  F   UNL     1      21.350   7.334  21.710  0.00  0.00    -0.205 F 
ATOM     18  C   UNL     1      17.393   7.094  20.552  0.00  0.00    +0.035 A 
ATOM     22  C   UNL     1      18.325   6.190  20.044  0.00  0.00    +0.135 A 
ATOM     23  C   UNL     1      17.797   8.081  21.452  0.00  0.00    +0.015 A 
ATOM     25  C   UNL     1      19.661   6.270  20.434  0.00  0.00    +0.077 A 
ATOM     26  C   UNL     1      19.135   8.161  21.844  0.00  0.00    +0.039 A 
ATOM     27  C   UNL     1      20.066   7.256  21.335  0.00  0.00    +0.126 A 
ENDBRANCH  14  18
ENDBRANCH   7  12
BRANCH   4  10
ATOM     10  C   UNL     1      11.350   8.206  19.011  0.00  0.00    +0.120 C 
BRANCH  10  13
ATOM     13  C   UNL     1      11.359   9.037  20.268  0.00  0.00    -0.033 A 
ATOM     16  C   UNL     1      12.054  10.246  20.298  0.00  0.00    +0.005 A 
ATOM     17  C   UNL     1      10.673   8.598  21.399  0.00  0.00    +0.005 A 
ATOM     19  C   UNL     1      12.063  11.016  21.462  0.00  0.00    +0.003 A 
ATOM     20  C   UNL     1      10.681   9.368  22.562  0.00  0.00    +0.003 A 
ATOM     21  C   UNL     1      11.375  10.577  22.594  0.00  0.00    -0.050 A 
ATOM     24  C   UNL     1      11.386  11.400  23.837  0.00  0.00    +0.044 C 
ENDBRANCH  10  13
ENDBRANCH   4  10
TORSDOF 4
ENDMDL
MODEL 2
REMARK VINA RESULT:      -7.4      3.382      6.523
REMARK  Name = 75367161
REMARK  5 active torsions:
REMARK  status: ('A' for Active; 'I' for Inactive)
REMARK    1  A    between atoms: N_4  and  C_10
REMARK    2  A    between atoms: C_7  and  C_12
REMARK    3  A    between atoms: C_10  and  C_13
REMARK    4  A    between atoms: C_14  and  C_18
REMARK    5  A    between atoms: C_21  and  C_24
REMARK                            x       y       z     vdW  Elec       q    Type
REMARK                         _______ _______ _______ _____ _____    ______ ____
ROOT
ATOM      3  O   UNL     1      10.543   7.983  20.623  0.00  0.00    -0.377 OA
ATOM      4  N   UNL     1      13.367   7.582  20.376  0.00  0.00    -0.285 NA
ATOM      7  C   UNL     1      12.487   7.639  19.181  0.00  0.00    +0.149 C 
ATOM      8  C   UNL     1      12.601   7.132  21.552  0.00  0.00    +0.113 C 
ATOM      9  C   UNL     1      11.237   8.490  19.484  0.00  0.00    +0.186 C 
ATOM     11  C   UNL     1      11.383   8.017  21.774  0.00  0.00    +0.175 C 
ENDROOT
BRANCH   7  12
ATOM      5  N   UNL     1      13.399   9.537  17.796  0.00  0.00    -0.340 N 
ATOM      6  N   UNL     1      13.618   7.510  16.912  0.00  0.00    -0.238 NA
ATOM     12  C   UNL     1      13.175   8.196  17.943  0.00  0.00    +0.127 A 
ATOM     14  C   UNL     1      14.024   9.718  16.594  0.00  0.00    +0.069 A 
ATOM     15  C   UNL     1      14.149   8.453  16.068  0.00  0.00    +0.139 A 
ATOM     28  H   UNL     1      13.146  10.257  18.459  0.00  0.00    +0.167 HD
BRANCH  14  18
ATOM      1  F   UNL     1      15.793  11.383  17.999  0.00  0.00    -0.205 F 
ATOM      2  F   UNL     1      15.540  14.710  14.647  0.00  0.00    -0.205 F 
ATOM     18  C   UNL     1      14.420  11.008  16.094  0.00  0.00    +0.035 A 
ATOM     22  C   UNL     1      15.300  11.805  16.825  0.00  0.00    +0.135 A 
ATOM     23  C   UNL     1      13.918  11.460  14.874  0.00  0.00    +0.015 A 
ATOM     25  C   UNL     1      15.678  13.056  16.337  0.00  0.00    +0.077 A 
ATOM     26  C   UNL     1      14.296  12.712  14.385  0.00  0.00    +0.039 A 
ATOM     27  C   UNL     1      15.176  13.509  15.117  0.00  0.00    +0.126 A 
ENDBRANCH  14  18
ENDBRANCH   7  12
BRANCH   4  10
ATOM     10  C   UNL     1      14.512   6.686  20.176  0.00  0.00    +0.120 C 
BRANCH  10  13
ATOM     13  C   UNL     1      15.813   7.352  20.539  0.00  0.00    -0.033 A 
ATOM     16  C   UNL     1      15.920   8.742  20.502  0.00  0.00    +0.005 A 
ATOM     17  C   UNL     1      16.912   6.578  20.913  0.00  0.00    +0.005 A 
ATOM     19  C   UNL     1      17.125   9.359  20.839  0.00  0.00    +0.003 A 
ATOM     20  C   UNL     1      18.116   7.194  21.251  0.00  0.00    +0.003 A 
ATOM     21  C   UNL     1      18.223   8.584  21.214  0.00  0.00    -0.050 A 
ATOM     24  C   UNL     1      19.512   9.243  21.572  0.00  0.00    +0.044 C 
ENDBRANCH  10  13
ENDBRANCH   4  10
TORSDOF 4
ENDMDL
MODEL 3
REMARK VINA RESULT:      -7.3      4.121      6.980
REMARK  Name = 75367161
REMARK  5 active torsions:
REMARK  status: ('A' for Active; 'I' for Inactive)
REMARK    1  A    between atoms: N_4  and  C_10
REMARK    2  A    between atoms: C_7  and  C_12
REMARK    3  A    between atoms: C_10  and  C_13
REMARK    4  A    between atoms: C_14  and  C_18
REMARK    5  A    between atoms: C_21  and  C_24
REMARK                            x       y       z     vdW  Elec       q    Type
REMARK                         _______ _______ _______ _____ _____    ______ ____
ROOT
ATOM      3  O   UNL     1      10.229   6.996  21.798  0.00  0.00    -0.377 OA
ATOM      4  N   UNL     1      12.827   7.887  20.992  0.00  0.00    -0.285 NA
ATOM      7  C   UNL     1      11.740   8.852  21.298  0.00  0.00    +0.149 C 
ATOM      8  C   UNL     1      12.259   6.600  20.554  0.00  0.00    +0.113 C 
ATOM      9  C   UNL     1      10.747   8.228  22.299  0.00  0.00    +0.186 C 
ATOM     11  C   UNL     1      11.284   6.060  21.592  0.00  0.00    +0.175 C 
ENDROOT
BRANCH   7  12
ATOM      5  N   UNL     1      12.958  10.231  23.021  0.00  0.00    -0.340 N 
ATOM      6  N   UNL     1      12.060  11.370  21.338  0.00  0.00    -0.238 NA
ATOM     12  C   UNL     1      12.240  10.176  21.858  0.00  0.00    +0.127 A 
ATOM     14  C   UNL     1      13.255  11.544  23.256  0.00  0.00    +0.069 A 
ATOM     15  C   UNL     1      12.691  12.227  22.204  0.00  0.00    +0.139 A 
ATOM     28  H   UNL     1      13.218   9.441  23.596  0.00  0.00    +0.167 HD
BRANCH  14  18
ATOM      1  F   UNL     1      12.006  12.383  25.625  0.00  0.00    -0.205 F 
ATOM      2  F   UNL     1      16.176  13.285  27.666  0.00  0.00    -0.205 F 
ATOM     18  C   UNL     1      14.006  11.993  24.398  0.00  0.00    +0.035 A 
ATOM     22  C   UNL     1      13.346  12.404  25.556  0.00  0.00    +0.135 A 
ATOM     23  C   UNL     1      15.400  12.019  24.344  0.00  0.00    +0.015 A 
ATOM     25  C   UNL     1      14.078  12.841  26.660  0.00  0.00    +0.077 A 
ATOM     26  C   UNL     1      16.133  12.456  25.448  0.00  0.00    +0.039 A 
ATOM     27  C   UNL     1      15.472  12.866  26.605  0.00  0.00    +0.126 A 
ENDBRANCH  14  18
ENDBRANCH   7  12
BRANCH   4  10
ATOM     10  C   UNL     1      13.734   8.390  19.953  0.00  0.00    +0.120 C 
BRANCH  10  13
ATOM     13  C   UNL     1      15.111   7.791  20.074  0.00  0.00    -0.033 A 
ATOM     16  C   UNL     1      15.519   6.798  19.183  0.00  0.00    +0.005 A 
ATOM     17  C   UNL     1      15.978   8.229  21.075  0.00  0.00    +0.005 A 
ATOM     19  C   UNL     1      16.795   6.244  19.293  0.00  0.00    +0.003 A 
ATOM     20  C   UNL     1      17.252   7.675  21.185  0.00  0.00    +0.003 A 
ATOM     21  C   UNL     1      17.661   6.683  20.295  0.00  0.00    -0.050 A 
ATOM     24  C   UNL     1      19.024   6.089  20.414  0.00  0.00    +0.044 C 
ENDBRANCH  10  13
ENDBRANCH   4  10
TORSDOF 4
ENDMDL
MODEL 4
REMARK VINA RESULT:      -7.2      2.314      4.144
REMARK  Name = 75367161
REMARK  5 active torsions:
REMARK  status: ('A' for Active; 'I' for Inactive)
REMARK    1  A    between atoms: N_4  and  C_10
REMARK    2  A    between atoms: C_7  and  C_12
REMARK    3  A    between atoms: C_10  and  C_13
REMARK    4  A    between atoms: C_14  and  C_18
REMARK    5  A    between atoms: C_21  and  C_24
REMARK                            x       y       z     vdW  Elec       q    Type
REMARK                         _______ _______ _______ _____ _____    ______ ____
ROOT
ATOM      3  O   UNL     1      11.288   7.198  21.819  0.00  0.00    -0.377 OA
ATOM      4  N   UNL     1      12.967   8.918  20.264  0.00  0.00    -0.285 NA
ATOM      7  C   UNL     1      13.537   7.829  21.098  0.00  0.00    +0.149 C 
ATOM      8  C   UNL     1      11.674   9.359  20.815  0.00  0.00    +0.113 C 
ATOM      9  C   UNL     1      12.504   6.697  21.267  0.00  0.00    +0.186 C 
ATOM     11  C   UNL     1      10.719   8.182  20.958  0.00  0.00    +0.175 C 
ENDROOT
BRANCH   7  12
ATOM      5  N   UNL     1      16.000   7.311  21.236  0.00  0.00    -0.340 N 
ATOM      6  N   UNL     1      14.978   6.633  19.384  0.00  0.00    -0.238 NA
ATOM     12  C   UNL     1      14.826   7.243  20.538  0.00  0.00    +0.127 A 
ATOM     14  C   UNL     1      16.962   6.706  20.477  0.00  0.00    +0.069 A 
ATOM     15  C   UNL     1      16.307   6.295  19.340  0.00  0.00    +0.139 A 
ATOM     28  H   UNL     1      16.126   7.732  22.146  0.00  0.00    +0.167 HD
BRANCH  14  18
ATOM      1  F   UNL     1      18.672   4.751  19.414  0.00  0.00    -0.205 F 
ATOM      2  F   UNL     1      22.273   6.249  22.088  0.00  0.00    -0.205 F 
ATOM     18  C   UNL     1      18.335   6.585  20.890  0.00  0.00    +0.035 A 
ATOM     22  C   UNL     1      19.151   5.598  20.337  0.00  0.00    +0.135 A 
ATOM     23  C   UNL     1      18.850   7.459  21.848  0.00  0.00    +0.015 A 
ATOM     25  C   UNL     1      20.481   5.483  20.742  0.00  0.00    +0.077 A 
ATOM     26  C   UNL     1      20.180   7.345  22.253  0.00  0.00    +0.039 A 
ATOM     27  C   UNL     1      20.995   6.358  21.700  0.00  0.00    +0.126 A 
ENDBRANCH  14  18
ENDBRANCH   7  12
BRANCH   4  10
ATOM     10  C   UNL     1      13.869  10.072  20.171  0.00  0.00    +0.120 C 
BRANCH  10  13
ATOM     13  C   UNL     1      14.238  10.382  18.745  0.00  0.00    -0.033 A 
ATOM     16  C   UNL     1      14.982  11.525  18.450  0.00  0.00    +0.005 A 
ATOM     17  C   UNL     1      13.836   9.528  17.718  0.00  0.00    +0.005 A 
ATOM     19  C   UNL     1      15.324  11.813  17.128  0.00  0.00    +0.003 A 
ATOM     20  C   UNL     1      14.179   9.815  16.397  0.00  0.00    +0.003 A 
ATOM     21  C   UNL     1      14.922  10.957  16.102  0.00  0.00    -0.050 A 
ATOM     24  C   UNL     1      15.287  11.266  14.690  0.00  0.00    +0.044 C 
ENDBRANCH  10  13
ENDBRANCH   4  10
TORSDOF 4
ENDMDL
MODEL 5
REMARK VINA RESULT:      -7.1      1.543      2.218
REMARK  Name = 75367161
REMARK  5 active torsions:
REMARK  status: ('A' for Active; 'I' for Inactive)
REMARK    1  A    between atoms: N_4  and  C_10
REMARK    2  A    between atoms: C_7  and  C_12
REMARK    3  A    between atoms: C_10  and  C_13
REMARK    4  A    between atoms: C_14  and  C_18
REMARK    5  A    between atoms: C_21  and  C_24
REMARK                            x       y       z     vdW  Elec       q    Type
REMARK                         _______ _______ _______ _____ _____    ______ ____
ROOT
ATOM      3  O   UNL     1      12.236   7.314  17.825  0.00  0.00    -0.377 OA
ATOM      4  N   UNL     1      12.652   8.848  20.206  0.00  0.00    -0.285 NA
ATOM      7  C   UNL     1      13.629   7.818  19.770  0.00  0.00    +0.149 C 
ATOM      8  C   UNL     1      11.308   8.526  19.695  0.00  0.00    +0.113 C 
ATOM      9  C   UNL     1      13.561   7.640  18.240  0.00  0.00    +0.186 C 
ATOM     11  C   UNL     1      11.332   8.358  18.182  0.00  0.00    +0.175 C 
ENDROOT
BRANCH   7  12
ATOM      5  N   UNL     1      15.985   7.136  20.352  0.00  0.00    -0.340 N 
ATOM      6  N   UNL     1      15.582   9.321  20.379  0.00  0.00    -0.238 NA
ATOM     12  C   UNL     1      15.064   8.131  20.168  0.00  0.00    +0.127 A 
ATOM     14  C   UNL     1      17.165   7.730  20.702  0.00  0.00    +0.069 A 
ATOM     15  C   UNL     1      16.891   9.077  20.711  0.00  0.00    +0.139 A 
ATOM     28  H   UNL     1      15.816   6.145  20.245  0.00  0.00    +0.167 HD
BRANCH  14  18
ATOM      1  F   UNL     1      18.032   5.623  19.064  0.00  0.00    -0.205 F 
ATOM      2  F   UNL     1      21.829   4.888  21.785  0.00  0.00    -0.205 F 
ATOM     18  C   UNL     1      18.370   6.994  20.977  0.00  0.00    +0.035 A 
ATOM     22  C   UNL     1      18.764   5.952  20.139  0.00  0.00    +0.135 A 
ATOM     23  C   UNL     1      19.144   7.325  22.090  0.00  0.00    +0.015 A 
ATOM     25  C   UNL     1      19.933   5.240  20.411  0.00  0.00    +0.077 A 
ATOM     26  C   UNL     1      20.313   6.613  22.363  0.00  0.00    +0.039 A 
ATOM     27  C   UNL     1      20.707   5.571  21.524  0.00  0.00    +0.126 A 
ENDBRANCH  14  18
ENDBRANCH   7  12
BRANCH   4  10
ATOM     10  C   UNL     1      12.594   8.970  21.668  0.00  0.00    +0.120 C 
BRANCH  10  13
ATOM     13  C   UNL     1      12.000  10.286  22.097  0.00  0.00    -0.033 A 
ATOM     16  C   UNL     1      12.266  11.443  21.364  0.00  0.00    +0.005 A 
ATOM     17  C   UNL     1      11.185  10.348  23.226  0.00  0.00    +0.005 A 
ATOM     19  C   UNL     1      11.715  12.661  21.762  0.00  0.00    +0.003 A 
ATOM     20  C   UNL     1      10.634  11.565  23.623  0.00  0.00    +0.003 A 
ATOM     21  C   UNL     1      10.898  12.722  22.891  0.00  0.00    -0.050 A 
ATOM     24  C   UNL     1      10.311  14.025  23.316  0.00  0.00    +0.044 C 
ENDBRANCH  10  13
ENDBRANCH   4  10
TORSDOF 4
ENDMDL
MODEL 6
REMARK VINA RESULT:      -7.1      3.611      6.813
REMARK  Name = 75367161
REMARK  5 active torsions:
REMARK  status: ('A' for Active; 'I' for Inactive)
REMARK    1  A    between atoms: N_4  and  C_10
REMARK    2  A    between atoms: C_7  and  C_12
REMARK    3  A    between atoms: C_10  and  C_13
REMARK    4  A    between atoms: C_14  and  C_18
REMARK    5  A    between atoms: C_21  and  C_24
REMARK                            x       y       z     vdW  Elec       q    Type
REMARK                         _______ _______ _______ _____ _____    ______ ____
ROOT
ATOM      3  O   UNL     1      10.607   8.610  21.148  0.00  0.00    -0.377 OA
ATOM      4  N   UNL     1      13.121   7.550  20.279  0.00  0.00    -0.285 NA
ATOM      7  C   UNL     1      12.517   8.741  19.628  0.00  0.00    +0.149 C 
ATOM      8  C   UNL     1      12.070   6.709  20.879  0.00  0.00    +0.113 C 
ATOM      9  C   UNL     1      11.606   9.484  20.625  0.00  0.00    +0.186 C 
ATOM     11  C   UNL     1      11.213   7.520  21.840  0.00  0.00    +0.175 C 
ENDROOT
BRANCH   7  12
ATOM      5  N   UNL     1      13.490  10.145  17.775  0.00  0.00    -0.340 N 
ATOM      6  N   UNL     1      14.557  10.250  19.721  0.00  0.00    -0.238 NA
ATOM     12  C   UNL     1      13.544   9.718  19.073  0.00  0.00    +0.127 A 
ATOM     14  C   UNL     1      14.536  11.004  17.583  0.00  0.00    +0.069 A 
ATOM     15  C   UNL     1      15.179  11.053  18.798  0.00  0.00    +0.139 A 
ATOM     28  H   UNL     1      12.800   9.873  17.088  0.00  0.00    +0.167 HD
BRANCH  14  18
ATOM      1  F   UNL     1      14.948   9.565  15.210  0.00  0.00    -0.205 F 
ATOM      2  F   UNL     1      15.577  13.549  12.741  0.00  0.00    -0.205 F 
ATOM     18  C   UNL     1      14.804  11.658  16.329  0.00  0.00    +0.035 A 
ATOM     22  C   UNL     1      15.005  10.905  15.173  0.00  0.00    +0.135 A 
ATOM     23  C   UNL     1      14.864  13.050  16.274  0.00  0.00    +0.015 A 
ATOM     25  C   UNL     1      15.266  11.543  13.961  0.00  0.00    +0.077 A 
ATOM     26  C   UNL     1      15.125  13.690  15.061  0.00  0.00    +0.039 A 
ATOM     27  C   UNL     1      15.326  12.936  13.905  0.00  0.00    +0.126 A 
ENDBRANCH  14  18
ENDBRANCH   7  12
BRANCH   4  10
ATOM     10  C   UNL     1      13.904   6.743  19.337  0.00  0.00    +0.120 C 
BRANCH  10  13
ATOM     13  C   UNL     1      15.346   6.632  19.757  0.00  0.00    -0.033 A 
ATOM     16  C   UNL     1      15.727   7.007  21.045  0.00  0.00    +0.005 A 
ATOM     17  C   UNL     1      16.300   6.155  18.858  0.00  0.00    +0.005 A 
ATOM     19  C   UNL     1      17.063   6.903  21.435  0.00  0.00    +0.003 A 
ATOM     20  C   UNL     1      17.635   6.051  19.248  0.00  0.00    +0.003 A 
ATOM     21  C   UNL     1      18.017   6.425  20.536  0.00  0.00    -0.050 A 
ATOM     24  C   UNL     1      19.444   6.317  20.952  0.00  0.00    +0.044 C 
ENDBRANCH  10  13
ENDBRANCH   4  10
TORSDOF 4
ENDMDL
MODEL 7
REMARK VINA RESULT:      -7.0     14.121     18.181
REMARK  Name = 75367161
REMARK  5 active torsions:
REMARK  status: ('A' for Active; 'I' for Inactive)
REMARK    1  A    between atoms: N_4  and  C_10
REMARK    2  A    between atoms: C_7  and  C_12
REMARK    3  A    between atoms: C_10  and  C_13
REMARK    4  A    between atoms: C_14  and  C_18
REMARK    5  A    between atoms: C_21  and  C_24
REMARK                            x       y       z     vdW  Elec       q    Type
REMARK                         _______ _______ _______ _____ _____    ______ ____
ROOT
ATOM      3  O   UNL     1      14.263   8.824   2.563  0.00  0.00    -0.377 OA
ATOM      4  N   UNL     1      13.099   6.325   1.792  0.00  0.00    -0.285 NA
ATOM      7  C   UNL     1      12.972   6.842   3.178  0.00  0.00    +0.149 C 
ATOM      8  C   UNL     1      14.315   6.863   1.156  0.00  0.00    +0.113 C 
ATOM      9  C   UNL     1      13.054   8.381   3.178  0.00  0.00    +0.186 C 
ATOM     11  C   UNL     1      14.321   8.385   1.207  0.00  0.00    +0.175 C 
ENDROOT
BRANCH   7  12
ATOM      5  N   UNL     1      11.634   6.233   5.226  0.00  0.00    -0.340 N 
ATOM      6  N   UNL     1      10.525   6.178   3.303  0.00  0.00    -0.238 NA
ATOM     12  C   UNL     1      11.686   6.416   3.872  0.00  0.00    +0.127 A 
ATOM     14  C   UNL     1      10.359   5.856   5.541  0.00  0.00    +0.069 A 
ATOM     15  C   UNL     1       9.694   5.829   4.338  0.00  0.00    +0.139 A 
ATOM     28  H   UNL     1      12.403   6.358   5.871  0.00  0.00    +0.167 HD
BRANCH  14  18
ATOM      1  F   UNL     1       9.312   7.846   7.219  0.00  0.00    -0.205 F 
ATOM      2  F   UNL     1       8.691   4.746  10.736  0.00  0.00    -0.205 F 
ATOM     18  C   UNL     1       9.926   5.573   6.883  0.00  0.00    +0.035 A 
ATOM     22  C   UNL     1       9.413   6.592   7.685  0.00  0.00    +0.135 A 
ATOM     23  C   UNL     1      10.022   4.274   7.382  0.00  0.00    +0.015 A 
ATOM     25  C   UNL     1       8.996   6.313   8.987  0.00  0.00    +0.077 A 
ATOM     26  C   UNL     1       9.605   3.994   8.685  0.00  0.00    +0.039 A 
ATOM     27  C   UNL     1       9.092   5.014   9.486  0.00  0.00    +0.126 A 
ENDBRANCH  14  18
ENDBRANCH   7  12
BRANCH   4  10
ATOM     10  C   UNL     1      13.145   4.858   1.751  0.00  0.00    +0.120 C 
BRANCH  10  13
ATOM     13  C   UNL     1      12.521   4.312   0.495  0.00  0.00    -0.033 A 
ATOM     16  C   UNL     1      13.175   3.319  -0.234  0.00  0.00    +0.005 A 
ATOM     17  C   UNL     1      11.288   4.798   0.059  0.00  0.00    +0.005 A 
ATOM     19  C   UNL     1      12.597   2.812  -1.398  0.00  0.00    +0.003 A 
ATOM     20  C   UNL     1      10.710   4.292  -1.104  0.00  0.00    +0.003 A 
ATOM     21  C   UNL     1      11.363   3.299  -1.833  0.00  0.00    -0.050 A 
ATOM     24  C   UNL     1      10.746   2.758  -3.078  0.00  0.00    +0.044 C 
ENDBRANCH  10  13
ENDBRANCH   4  10
TORSDOF 4
ENDMDL
MODEL 8
REMARK VINA RESULT:      -7.0      3.172      4.858
REMARK  Name = 75367161
REMARK  5 active torsions:
REMARK  status: ('A' for Active; 'I' for Inactive)
REMARK    1  A    between atoms: N_4  and  C_10
REMARK    2  A    between atoms: C_7  and  C_12
REMARK    3  A    between atoms: C_10  and  C_13
REMARK    4  A    between atoms: C_14  and  C_18
REMARK    5  A    between atoms: C_21  and  C_24
REMARK                            x       y       z     vdW  Elec       q    Type
REMARK                         _______ _______ _______ _____ _____    ______ ____
ROOT
ATOM      3  O   UNL     1      13.676  13.776  24.210  0.00  0.00    -0.377 OA
ATOM      4  N   UNL     1      12.540  11.669  22.640  0.00  0.00    -0.285 NA
ATOM      7  C   UNL     1      13.676  12.482  22.136  0.00  0.00    +0.149 C 
ATOM      8  C   UNL     1      11.754  12.441  23.619  0.00  0.00    +0.113 C 
ATOM      9  C   UNL     1      14.501  13.028  23.319  0.00  0.00    +0.186 C 
ATOM     11  C   UNL     1      12.644  12.950  24.744  0.00  0.00    +0.175 C 
ENDROOT
BRANCH   7  12
ATOM      5  N   UNL     1      15.245  10.584  21.600  0.00  0.00    -0.340 N 
ATOM      6  N   UNL     1      14.893  12.034  19.954  0.00  0.00    -0.238 NA
ATOM     12  C   UNL     1      14.601  11.722  21.197  0.00  0.00    +0.127 A 
ATOM     14  C   UNL     1      15.994  10.142  20.545  0.00  0.00    +0.069 A 
ATOM     15  C   UNL     1      15.759  11.053  19.542  0.00  0.00    +0.139 A 
ATOM     28  H   UNL     1      15.174  10.153  22.512  0.00  0.00    +0.167 HD
BRANCH  14  18
ATOM      1  F   UNL     1      15.207   7.729  19.348  0.00  0.00    -0.205 F 
ATOM      2  F   UNL     1      19.175   5.577  20.756  0.00  0.00    -0.205 F 
ATOM     18  C   UNL     1      16.813   8.961  20.596  0.00  0.00    +0.035 A 
ATOM     22  C   UNL     1      16.384   7.781  19.990  0.00  0.00    +0.135 A 
ATOM     23  C   UNL     1      18.041   8.998  21.257  0.00  0.00    +0.015 A 
ATOM     25  C   UNL     1      17.181   6.637  20.044  0.00  0.00    +0.077 A 
ATOM     26  C   UNL     1      18.839   7.855  21.312  0.00  0.00    +0.039 A 
ATOM     27  C   UNL     1      18.409   6.675  20.705  0.00  0.00    +0.126 A 
ENDBRANCH  14  18
ENDBRANCH   7  12
BRANCH   4  10
ATOM     10  C   UNL     1      11.656  11.224  21.557  0.00  0.00    +0.120 C 
BRANCH  10  13
ATOM     13  C   UNL     1      11.508   9.726  21.533  0.00  0.00    -0.033 A 
ATOM     16  C   UNL     1      12.303   8.960  20.680  0.00  0.00    +0.005 A 
ATOM     17  C   UNL     1      10.578   9.103  22.365  0.00  0.00    +0.005 A 
ATOM     19  C   UNL     1      12.167   7.572  20.659  0.00  0.00    +0.003 A 
ATOM     20  C   UNL     1      10.441   7.716  22.344  0.00  0.00    +0.003 A 
ATOM     21  C   UNL     1      11.236   6.950  21.492  0.00  0.00    -0.050 A 
ATOM     24  C   UNL     1      11.090   5.466  21.467  0.00  0.00    +0.044 C 
ENDBRANCH  10  13
ENDBRANCH   4  10
TORSDOF 4
ENDMDL
MODEL 9
REMARK VINA RESULT:      -6.9     26.102     28.705
REMARK  Name = 75367161
REMARK  5 active torsions:
REMARK  status: ('A' for Active; 'I' for Inactive)
REMARK    1  A    between atoms: N_4  and  C_10
REMARK    2  A    between atoms: C_7  and  C_12
REMARK    3  A    between atoms: C_10  and  C_13
REMARK    4  A    between atoms: C_14  and  C_18
REMARK    5  A    between atoms: C_21  and  C_24
REMARK                            x       y       z     vdW  Elec       q    Type
REMARK                         _______ _______ _______ _____ _____    ______ ____
ROOT
ATOM      3  O   UNL     1      -1.568 -10.677  16.448  0.00  0.00    -0.377 OA
ATOM      4  N   UNL     1      -3.122 -10.651  14.044  0.00  0.00    -0.285 NA
ATOM      7  C   UNL     1      -3.590 -11.365  15.259  0.00  0.00    +0.149 C 
ATOM      8  C   UNL     1      -1.651 -10.562  14.039  0.00  0.00    +0.113 C 
ATOM      9  C   UNL     1      -2.992 -10.710  16.520  0.00  0.00    +0.186 C 
ATOM     11  C   UNL     1      -1.145  -9.914  15.320  0.00  0.00    +0.175 C 
ENDROOT
BRANCH   7  12
ATOM      5  N   UNL     1      -5.837 -10.267  15.576  0.00  0.00    -0.340 N 
ATOM      6  N   UNL     1      -5.869 -12.478  15.364  0.00  0.00    -0.238 NA
ATOM     12  C   UNL     1      -5.105 -11.409  15.396  0.00  0.00    +0.127 A 
ATOM     14  C   UNL     1      -7.151 -10.633  15.665  0.00  0.00    +0.069 A 
ATOM     15  C   UNL     1      -7.145 -12.001  15.530  0.00  0.00    +0.139 A 
ATOM     28  H   UNL     1      -5.467  -9.328  15.632  0.00  0.00    +0.167 HD
BRANCH  14  18
ATOM      1  F   UNL     1      -7.567  -9.329  18.114  0.00  0.00    -0.205 F 
ATOM      2  F   UNL     1     -11.307  -7.000  16.397  0.00  0.00    -0.205 F 
ATOM     18  C   UNL     1      -8.222  -9.692  15.858  0.00  0.00    +0.035 A 
ATOM     22  C   UNL     1      -8.396  -9.068  17.092  0.00  0.00    +0.135 A 
ATOM     23  C   UNL     1      -9.092  -9.408  14.804  0.00  0.00    +0.015 A 
ATOM     25  C   UNL     1      -9.438  -8.159  17.275  0.00  0.00    +0.077 A 
ATOM     26  C   UNL     1     -10.134  -8.498  14.987  0.00  0.00    +0.039 A 
ATOM     27  C   UNL     1     -10.307  -7.874  16.222  0.00  0.00    +0.126 A 
ENDBRANCH  14  18
ENDBRANCH   7  12
BRANCH   4  10
ATOM     10  C   UNL     1      -3.569 -11.309  12.811  0.00  0.00    +0.120 C 
BRANCH  10  13
ATOM     13  C   UNL     1      -4.198 -10.333  11.851  0.00  0.00    -0.033 A 
ATOM     16  C   UNL     1      -3.504  -9.935  10.709  0.00  0.00    +0.005 A 
ATOM     17  C   UNL     1      -5.473  -9.829  12.103  0.00  0.00    +0.005 A 
ATOM     19  C   UNL     1      -4.086  -9.031   9.819  0.00  0.00    +0.003 A 
ATOM     20  C   UNL     1      -6.055  -8.927  11.214  0.00  0.00    +0.003 A 
ATOM     21  C   UNL     1      -5.362  -8.528  10.072  0.00  0.00    -0.050 A 
ATOM     24  C   UNL     1      -5.983  -7.561   9.121  0.00  0.00    +0.044 C 
ENDBRANCH  10  13
ENDBRANCH   4  10
TORSDOF 4
ENDMDL
MODEL 10
REMARK VINA RESULT:      -6.9     14.628     18.259
REMARK  Name = 75367161
REMARK  5 active torsions:
REMARK  status: ('A' for Active; 'I' for Inactive)
REMARK    1  A    between atoms: N_4  and  C_10
REMARK    2  A    between atoms: C_7  and  C_12
REMARK    3  A    between atoms: C_10  and  C_13
REMARK    4  A    between atoms: C_14  and  C_18
REMARK    5  A    between atoms: C_21  and  C_24
REMARK                            x       y       z     vdW  Elec       q    Type
REMARK                         _______ _______ _______ _____ _____    ______ ____
ROOT
ATOM      3  O   UNL     1      14.252   8.186   4.261  0.00  0.00    -0.377 OA
ATOM      4  N   UNL     1      11.832   6.899   5.089  0.00  0.00    -0.285 NA
ATOM      7  C   UNL     1      12.204   6.996   3.654  0.00  0.00    +0.149 C 
ATOM      8  C   UNL     1      12.444   8.002   5.850  0.00  0.00    +0.113 C 
ATOM      9  C   UNL     1      13.737   7.087   3.511  0.00  0.00    +0.186 C 
ATOM     11  C   UNL     1      13.953   8.026   5.646  0.00  0.00    +0.175 C 
ENDROOT
BRANCH   7  12
ATOM      5  N   UNL     1      11.645   5.911   1.449  0.00  0.00    -0.340 N 
ATOM      6  N   UNL     1      11.267   4.671   3.252  0.00  0.00    -0.238 NA
ATOM     12  C   UNL     1      11.698   5.833   2.813  0.00  0.00    +0.127 A 
ATOM     14  C   UNL     1      11.150   4.724   0.989  0.00  0.00    +0.069 A 
ATOM     15  C   UNL     1      10.925   3.975   2.120  0.00  0.00    +0.139 A 
ATOM     28  H   UNL     1      11.924   6.706   0.889  0.00  0.00    +0.167 HD
BRANCH  14  18
ATOM      1  F   UNL     1      12.726   2.854  -0.387  0.00  0.00    -0.205 F 
ATOM      2  F   UNL     1      10.370   3.626  -4.415  0.00  0.00    -0.205 F 
ATOM     18  C   UNL     1      10.951   4.436  -0.407  0.00  0.00    +0.035 A 
ATOM     22  C   UNL     1      11.758   3.501  -1.054  0.00  0.00    +0.135 A 
ATOM     23  C   UNL     1       9.947   5.099  -1.114  0.00  0.00    +0.015 A 
ATOM     25  C   UNL     1      11.562   3.227  -2.408  0.00  0.00    +0.077 A 
ATOM     26  C   UNL     1       9.751   4.825  -2.468  0.00  0.00    +0.039 A 
ATOM     27  C   UNL     1      10.559   3.890  -3.114  0.00  0.00    +0.126 A 
ENDBRANCH  14  18
ENDBRANCH   7  12
BRANCH   4  10
ATOM     10  C   UNL     1      10.378   6.929   5.284  0.00  0.00    +0.120 C 
BRANCH  10  13
ATOM     13  C   UNL     1       9.977   6.326   6.605  0.00  0.00    -0.033 A 
ATOM     16  C   UNL     1      10.166   4.963   6.834  0.00  0.00    +0.005 A 
ATOM     17  C   UNL     1       9.419   7.129   7.599  0.00  0.00    +0.005 A 
ATOM     19  C   UNL     1       9.796   4.404   8.058  0.00  0.00    +0.003 A 
ATOM     20  C   UNL     1       9.050   6.571   8.822  0.00  0.00    +0.003 A 
ATOM     21  C   UNL     1       9.238   5.208   9.052  0.00  0.00    -0.050 A 
ATOM     24  C   UNL     1       8.842   4.610  10.359  0.00  0.00    +0.044 C 
ENDBRANCH  10  13
ENDBRANCH   4  10
TORSDOF 4
ENDMDL
