MODEL 1
REMARK VINA RESULT:      -6.2      0.000      0.000
REMARK  Name = 75536567
REMARK  7 active torsions:
REMARK  status: ('A' for Active; 'I' for Inactive)
REMARK    1  A    between atoms: O_2  and  C_9
REMARK    2  A    between atoms: N_4  and  C_17
REMARK    3  A    between atoms: N_5  and  C_10
REMARK    4  A    between atoms: N_5  and  C_19
REMARK    5  A    between atoms: C_8  and  C_17
REMARK    6  A    between atoms: C_11  and  C_18
REMARK    7  A    between atoms: C_19  and  C_20
REMARK                            x       y       z     vdW  Elec       q    Type
REMARK                         _______ _______ _______ _____ _____    ______ ____
ROOT
ATOM      1  O   UNL     1      10.380   7.244  22.125  0.00  0.00    -0.371 OA
ATOM      8  C   UNL     1      11.120   8.377  22.609  0.00  0.00    +0.165 C 
ATOM      9  C   UNL     1      12.378   8.453  21.755  0.00  0.00    +0.164 C 
ATOM     10  C   UNL     1      12.661   6.981  21.520  0.00  0.00    +0.111 C 
ATOM     14  C   UNL     1      11.258   6.432  21.324  0.00  0.00    +0.181 C 
ENDROOT
BRANCH   9   2
ATOM      2  O   UNL     1      13.434   9.111  22.429  0.00  0.00    -0.388 OA
ATOM     25  H   UNL     1      14.250   8.604  22.286  0.00  0.00    +0.210 HD
ENDBRANCH   9   2
BRANCH  10   5
ATOM      5  N   UNL     1      13.531   6.729  20.381  0.00  0.00    -0.302 NA
ATOM     24  H   UNL     1      13.950   5.804  20.480  0.00  0.00    +0.123 HD
BRANCH   5  19
ATOM     19  C   UNL     1      12.783   6.777  19.130  0.00  0.00    +0.156 C 
BRANCH  19  20
ATOM      6  N   UNL     1      14.011   8.899  18.610  0.00  0.00    -0.347 N 
ATOM      7  N   UNL     1      13.340   7.716  16.854  0.00  0.00    -0.240 NA
ATOM     20  C   UNL     1      13.367   7.777  18.168  0.00  0.00    +0.121 A 
ATOM     21  C   UNL     1      14.420   9.598  17.509  0.00  0.00    +0.104 A 
ATOM     22  C   UNL     1      13.994   8.848  16.438  0.00  0.00    +0.130 A 
ATOM     26  H   UNL     1      14.159   9.165  19.575  0.00  0.00    +0.167 HD
ENDBRANCH  19  20
ENDBRANCH   5  19
ENDBRANCH  10   5
BRANCH   8  17
ATOM     17  C   UNL     1      10.260   9.626  22.524  0.00  0.00    +0.138 C 
BRANCH  17   4
ATOM      3  O   UNL     1      11.224  12.187  21.553  0.00  0.00    -0.276 OA
ATOM      4  N   UNL     1      10.819  10.697  23.297  0.00  0.00    -0.313 N 
ATOM     18  C   UNL     1      11.258  11.895  22.745  0.00  0.00    +0.216 C 
ATOM     23  H   UNL     1      10.891  10.561  24.302  0.00  0.00    +0.149 HD
BRANCH  18  11
ATOM     11  C   UNL     1      11.774  12.851  23.778  0.00  0.00    +0.075 C 
ATOM     12  C   UNL     1      11.266  12.455  25.169  0.00  0.00    +0.013 C 
ATOM     13  C   UNL     1      11.248  14.263  23.516  0.00  0.00    +0.013 C 
ATOM     15  C   UNL     1      10.548  13.684  25.715  0.00  0.00    +0.001 C 
ATOM     16  C   UNL     1      10.077  14.422  24.475  0.00  0.00    +0.001 C 
ENDBRANCH  18  11
ENDBRANCH  17   4
ENDBRANCH   8  17
TORSDOF 7
ENDMDL
MODEL 2
REMARK VINA RESULT:      -6.0      2.273      6.417
REMARK  Name = 75536567
REMARK  7 active torsions:
REMARK  status: ('A' for Active; 'I' for Inactive)
REMARK    1  A    between atoms: O_2  and  C_9
REMARK    2  A    between atoms: N_4  and  C_17
REMARK    3  A    between atoms: N_5  and  C_10
REMARK    4  A    between atoms: N_5  and  C_19
REMARK    5  A    between atoms: C_8  and  C_17
REMARK    6  A    between atoms: C_11  and  C_18
REMARK    7  A    between atoms: C_19  and  C_20
REMARK                            x       y       z     vdW  Elec       q    Type
REMARK                         _______ _______ _______ _____ _____    ______ ____
ROOT
ATOM      1  O   UNL     1      12.813   6.561  20.995  0.00  0.00    -0.371 OA
ATOM      8  C   UNL     1      12.443   7.042  19.693  0.00  0.00    +0.165 C 
ATOM      9  C   UNL     1      11.524   8.232  19.930  0.00  0.00    +0.164 C 
ATOM     10  C   UNL     1      10.789   7.789  21.182  0.00  0.00    +0.111 C 
ATOM     14  C   UNL     1      11.906   7.117  21.964  0.00  0.00    +0.181 C 
ENDROOT
BRANCH   9   2
ATOM      2  O   UNL     1      10.654   8.453  18.837  0.00  0.00    -0.388 OA
ATOM     25  H   UNL     1      10.482   9.408  18.771  0.00  0.00    +0.210 HD
ENDBRANCH   9   2
BRANCH  10   5
ATOM      5  N   UNL     1      10.168   8.884  21.912  0.00  0.00    -0.302 NA
ATOM     24  H   UNL     1       9.444   8.508  22.525  0.00  0.00    +0.123 HD
BRANCH   5  19
ATOM     19  C   UNL     1      11.148   9.599  22.721  0.00  0.00    +0.156 C 
BRANCH  19  20
ATOM      6  N   UNL     1      10.543  11.963  23.287  0.00  0.00    -0.347 N 
ATOM      7  N   UNL     1      11.668  11.681  21.394  0.00  0.00    -0.240 NA
ATOM     20  C   UNL     1      11.139  11.076  22.435  0.00  0.00    +0.121 A 
ATOM     21  C   UNL     1      10.701  13.212  22.756  0.00  0.00    +0.104 A 
ATOM     22  C   UNL     1      11.398  13.012  21.588  0.00  0.00    +0.130 A 
ATOM     26  H   UNL     1      10.070  11.738  24.153  0.00  0.00    +0.167 HD
ENDBRANCH  19  20
ENDBRANCH   5  19
ENDBRANCH  10   5
BRANCH   8  17
ATOM     17  C   UNL     1      13.691   7.396  18.902  0.00  0.00    +0.138 C 
BRANCH  17   4
ATOM      3  O   UNL     1      13.918   8.078  16.089  0.00  0.00    -0.276 OA
ATOM      4  N   UNL     1      13.581   8.697  18.309  0.00  0.00    -0.313 N 
ATOM     18  C   UNL     1      13.704   8.932  16.945  0.00  0.00    +0.216 C 
ATOM     23  H   UNL     1      13.402   9.481  18.930  0.00  0.00    +0.149 HD
BRANCH  18  11
ATOM     11  C   UNL     1      13.523  10.377  16.590  0.00  0.00    +0.075 C 
ATOM     12  C   UNL     1      14.448  10.759  15.429  0.00  0.00    +0.013 C 
ATOM     13  C   UNL     1      13.918  11.274  17.764  0.00  0.00    +0.013 C 
ATOM     15  C   UNL     1      15.281  11.934  15.930  0.00  0.00    +0.001 C 
ATOM     16  C   UNL     1      15.328  11.742  17.434  0.00  0.00    +0.001 C 
ENDBRANCH  18  11
ENDBRANCH  17   4
ENDBRANCH   8  17
TORSDOF 7
ENDMDL
MODEL 3
REMARK VINA RESULT:      -6.0      2.102      2.990
REMARK  Name = 75536567
REMARK  7 active torsions:
REMARK  status: ('A' for Active; 'I' for Inactive)
REMARK    1  A    between atoms: O_2  and  C_9
REMARK    2  A    between atoms: N_4  and  C_17
REMARK    3  A    between atoms: N_5  and  C_10
REMARK    4  A    between atoms: N_5  and  C_19
REMARK    5  A    between atoms: C_8  and  C_17
REMARK    6  A    between atoms: C_11  and  C_18
REMARK    7  A    between atoms: C_19  and  C_20
REMARK                            x       y       z     vdW  Elec       q    Type
REMARK                         _______ _______ _______ _____ _____    ______ ____
ROOT
ATOM      1  O   UNL     1      12.049  10.508  20.903  0.00  0.00    -0.371 OA
ATOM      8  C   UNL     1      11.015   9.700  21.488  0.00  0.00    +0.165 C 
ATOM      9  C   UNL     1      11.348   8.260  21.123  0.00  0.00    +0.164 C 
ATOM     10  C   UNL     1      11.943   8.441  19.738  0.00  0.00    +0.111 C 
ATOM     14  C   UNL     1      12.743   9.720  19.919  0.00  0.00    +0.181 C 
ENDROOT
BRANCH   9   2
ATOM      2  O   UNL     1      10.198   7.437  21.119  0.00  0.00    -0.388 OA
ATOM     25  H   UNL     1      10.044   7.131  20.210  0.00  0.00    +0.210 HD
ENDBRANCH   9   2
BRANCH  10   5
ATOM      5  N   UNL     1      12.761   7.319  19.304  0.00  0.00    -0.302 NA
ATOM     24  H   UNL     1      13.508   7.664  18.702  0.00  0.00    +0.123 HD
BRANCH   5  19
ATOM     19  C   UNL     1      13.353   6.629  20.444  0.00  0.00    +0.156 C 
BRANCH  19  20
ATOM      6  N   UNL     1      15.617   6.469  21.506  0.00  0.00    -0.347 N 
ATOM      7  N   UNL     1      15.601   6.781  19.307  0.00  0.00    -0.240 NA
ATOM     20  C   UNL     1      14.856   6.631  20.381  0.00  0.00    +0.121 A 
ATOM     21  C   UNL     1      16.928   6.519  21.125  0.00  0.00    +0.104 A 
ATOM     22  C   UNL     1      16.892   6.712  19.764  0.00  0.00    +0.130 A 
ATOM     26  H   UNL     1      15.273   6.336  22.448  0.00  0.00    +0.167 HD
ENDBRANCH  19  20
ENDBRANCH   5  19
ENDBRANCH  10   5
BRANCH   8  17
ATOM     17  C   UNL     1      10.962   9.942  22.987  0.00  0.00    +0.138 C 
BRANCH  17   4
ATOM      3  O   UNL     1      11.262  11.370  25.497  0.00  0.00    -0.276 OA
ATOM      4  N   UNL     1      10.537  11.279  23.285  0.00  0.00    -0.313 N 
ATOM     18  C   UNL     1      10.722  11.886  24.522  0.00  0.00    +0.216 C 
ATOM     23  H   UNL     1      10.078  11.800  22.544  0.00  0.00    +0.149 HD
BRANCH  18  11
ATOM     11  C   UNL     1      10.207  13.293  24.556  0.00  0.00    +0.075 C 
ATOM     12  C   UNL     1      10.478  13.990  23.218  0.00  0.00    +0.013 C 
ATOM     13  C   UNL     1      10.941  14.110  25.621  0.00  0.00    +0.013 C 
ATOM     15  C   UNL     1      11.274  15.246  23.558  0.00  0.00    +0.001 C 
ATOM     16  C   UNL     1      11.991  14.895  24.848  0.00  0.00    +0.001 C 
ENDBRANCH  18  11
ENDBRANCH  17   4
ENDBRANCH   8  17
TORSDOF 7
ENDMDL
MODEL 4
REMARK VINA RESULT:      -5.9      2.138      2.763
REMARK  Name = 75536567
REMARK  7 active torsions:
REMARK  status: ('A' for Active; 'I' for Inactive)
REMARK    1  A    between atoms: O_2  and  C_9
REMARK    2  A    between atoms: N_4  and  C_17
REMARK    3  A    between atoms: N_5  and  C_10
REMARK    4  A    between atoms: N_5  and  C_19
REMARK    5  A    between atoms: C_8  and  C_17
REMARK    6  A    between atoms: C_11  and  C_18
REMARK    7  A    between atoms: C_19  and  C_20
REMARK                            x       y       z     vdW  Elec       q    Type
REMARK                         _______ _______ _______ _____ _____    ______ ____
ROOT
ATOM      1  O   UNL     1      12.373   7.970  21.904  0.00  0.00    -0.371 OA
ATOM      8  C   UNL     1      13.693   7.442  21.696  0.00  0.00    +0.165 C 
ATOM      9  C   UNL     1      13.819   7.200  20.199  0.00  0.00    +0.164 C 
ATOM     10  C   UNL     1      12.404   6.775  19.852  0.00  0.00    +0.111 C 
ATOM     14  C   UNL     1      11.586   7.709  20.728  0.00  0.00    +0.181 C 
ENDROOT
BRANCH   9   2
ATOM      2  O   UNL     1      14.776   6.202  19.904  0.00  0.00    -0.388 OA
ATOM     25  H   UNL     1      14.445   5.670  19.162  0.00  0.00    +0.210 HD
ENDBRANCH   9   2
BRANCH  10   5
ATOM      5  N   UNL     1      12.086   6.903  18.438  0.00  0.00    -0.302 NA
ATOM     24  H   UNL     1      11.273   6.325  18.225  0.00  0.00    +0.123 HD
BRANCH   5  19
ATOM     19  C   UNL     1      11.786   8.287  18.091  0.00  0.00    +0.156 C 
BRANCH  19  20
ATOM      6  N   UNL     1      12.608  10.092  16.559  0.00  0.00    -0.347 N 
ATOM      7  N   UNL     1      13.696   8.159  16.446  0.00  0.00    -0.240 NA
ATOM     20  C   UNL     1      12.715   8.813  17.031  0.00  0.00    +0.121 A 
ATOM     21  C   UNL     1      13.580  10.264  15.615  0.00  0.00    +0.104 A 
ATOM     22  C   UNL     1      14.238   9.058  15.564  0.00  0.00    +0.130 A 
ATOM     26  H   UNL     1      11.932  10.785  16.855  0.00  0.00    +0.167 HD
ENDBRANCH  19  20
ENDBRANCH   5  19
ENDBRANCH  10   5
BRANCH   8  17
ATOM     17  C   UNL     1      14.727   8.417  22.236  0.00  0.00    +0.138 C 
BRANCH  17   4
ATOM      3  O   UNL     1      14.898  11.033  20.987  0.00  0.00    -0.276 OA
ATOM      4  N   UNL     1      14.113   9.635  22.678  0.00  0.00    -0.313 N 
ATOM     18  C   UNL     1      14.250  10.849  22.014  0.00  0.00    +0.216 C 
ATOM     23  H   UNL     1      13.549   9.596  23.522  0.00  0.00    +0.149 HD
BRANCH  18  11
ATOM     11  C   UNL     1      13.486  11.957  22.675  0.00  0.00    +0.075 C 
ATOM     12  C   UNL     1      12.462  11.382  23.660  0.00  0.00    +0.013 C 
ATOM     13  C   UNL     1      12.687  12.751  21.642  0.00  0.00    +0.013 C 
ATOM     15  C   UNL     1      11.111  11.942  23.230  0.00  0.00    +0.001 C 
ATOM     16  C   UNL     1      11.272  12.200  21.743  0.00  0.00    +0.001 C 
ENDBRANCH  18  11
ENDBRANCH  17   4
ENDBRANCH   8  17
TORSDOF 7
ENDMDL
MODEL 5
REMARK VINA RESULT:      -5.8      2.415      3.250
REMARK  Name = 75536567
REMARK  7 active torsions:
REMARK  status: ('A' for Active; 'I' for Inactive)
REMARK    1  A    between atoms: O_2  and  C_9
REMARK    2  A    between atoms: N_4  and  C_17
REMARK    3  A    between atoms: N_5  and  C_10
REMARK    4  A    between atoms: N_5  and  C_19
REMARK    5  A    between atoms: C_8  and  C_17
REMARK    6  A    between atoms: C_11  and  C_18
REMARK    7  A    between atoms: C_19  and  C_20
REMARK                            x       y       z     vdW  Elec       q    Type
REMARK                         _______ _______ _______ _____ _____    ______ ____
ROOT
ATOM      1  O   UNL     1      10.617   8.515  19.846  0.00  0.00    -0.371 OA
ATOM      8  C   UNL     1      11.003   7.696  20.962  0.00  0.00    +0.165 C 
ATOM      9  C   UNL     1      12.468   7.345  20.739  0.00  0.00    +0.164 C 
ATOM     10  C   UNL     1      12.512   7.224  19.227  0.00  0.00    +0.111 C 
ATOM     14  C   UNL     1      11.602   8.366  18.807  0.00  0.00    +0.181 C 
ENDROOT
BRANCH   9   2
ATOM      2  O   UNL     1      12.827   6.143  21.393  0.00  0.00    -0.388 OA
ATOM     25  H   UNL     1      13.218   6.369  22.254  0.00  0.00    +0.210 HD
ENDBRANCH   9   2
BRANCH  10   5
ATOM      5  N   UNL     1      13.853   7.336  18.673  0.00  0.00    -0.302 NA
ATOM     24  H   UNL     1      13.786   7.565  17.681  0.00  0.00    +0.123 HD
BRANCH   5  19
ATOM     19  C   UNL     1      14.614   8.381  19.348  0.00  0.00    +0.156 C 
BRANCH  19  20
ATOM      6  N   UNL     1      16.779   8.620  20.586  0.00  0.00    -0.347 N 
ATOM      7  N   UNL     1      15.978   6.555  20.431  0.00  0.00    -0.240 NA
ATOM     20  C   UNL     1      15.777   7.816  20.119  0.00  0.00    +0.121 A 
ATOM     21  C   UNL     1      17.677   7.821  21.236  0.00  0.00    +0.104 A 
ATOM     22  C   UNL     1      17.160   6.551  21.127  0.00  0.00    +0.130 A 
ATOM     26  H   UNL     1      16.846   9.623  20.472  0.00  0.00    +0.167 HD
ENDBRANCH  19  20
ENDBRANCH   5  19
ENDBRANCH  10   5
BRANCH   8  17
ATOM     17  C   UNL     1      10.757   8.447  22.259  0.00  0.00    +0.138 C 
BRANCH  17   4
ATOM      3  O   UNL     1      11.008  10.482  24.314  0.00  0.00    -0.276 OA
ATOM      4  N   UNL     1      10.877   9.864  22.072  0.00  0.00    -0.313 N 
ATOM     18  C   UNL     1      10.993  10.770  23.121  0.00  0.00    +0.216 C 
ATOM     23  H   UNL     1      10.877  10.212  21.118  0.00  0.00    +0.149 HD
BRANCH  18  11
ATOM     11  C   UNL     1      11.128  12.185  22.647  0.00  0.00    +0.075 C 
ATOM     12  C   UNL     1      11.737  12.219  21.241  0.00  0.00    +0.013 C 
ATOM     13  C   UNL     1      12.087  12.966  23.547  0.00  0.00    +0.013 C 
ATOM     15  C   UNL     1      12.975  13.102  21.345  0.00  0.00    +0.001 C 
ATOM     16  C   UNL     1      13.409  12.967  22.793  0.00  0.00    +0.001 C 
ENDBRANCH  18  11
ENDBRANCH  17   4
ENDBRANCH   8  17
TORSDOF 7
ENDMDL
MODEL 6
REMARK VINA RESULT:      -5.7      5.049      6.511
REMARK  Name = 75536567
REMARK  7 active torsions:
REMARK  status: ('A' for Active; 'I' for Inactive)
REMARK    1  A    between atoms: O_2  and  C_9
REMARK    2  A    between atoms: N_4  and  C_17
REMARK    3  A    between atoms: N_5  and  C_10
REMARK    4  A    between atoms: N_5  and  C_19
REMARK    5  A    between atoms: C_8  and  C_17
REMARK    6  A    between atoms: C_11  and  C_18
REMARK    7  A    between atoms: C_19  and  C_20
REMARK                            x       y       z     vdW  Elec       q    Type
REMARK                         _______ _______ _______ _____ _____    ______ ____
ROOT
ATOM      1  O   UNL     1      16.296   6.056  18.918  0.00  0.00    -0.371 OA
ATOM      8  C   UNL     1      15.254   6.593  19.750  0.00  0.00    +0.165 C 
ATOM      9  C   UNL     1      15.955   7.243  20.934  0.00  0.00    +0.164 C 
ATOM     10  C   UNL     1      17.135   6.307  21.125  0.00  0.00    +0.111 C 
ATOM     14  C   UNL     1      17.512   6.001  19.686  0.00  0.00    +0.181 C 
ENDROOT
BRANCH   9   2
ATOM      2  O   UNL     1      15.118   7.305  22.073  0.00  0.00    -0.388 OA
ATOM     25  H   UNL     1      15.398   6.613  22.696  0.00  0.00    +0.210 HD
ENDBRANCH   9   2
BRANCH  10   5
ATOM      5  N   UNL     1      18.228   6.895  21.883  0.00  0.00    -0.302 NA
ATOM     24  H   UNL     1      18.453   6.287  22.671  0.00  0.00    +0.123 HD
BRANCH   5  19
ATOM     19  C   UNL     1      19.417   7.052  21.054  0.00  0.00    +0.156 C 
BRANCH  19  20
ATOM      6  N   UNL     1      21.112   5.343  20.357  0.00  0.00    -0.347 N 
ATOM      7  N   UNL     1      20.846   5.602  22.546  0.00  0.00    -0.240 NA
ATOM     20  C   UNL     1      20.454   6.004  21.357  0.00  0.00    +0.121 A 
ATOM     21  C   UNL     1      21.977   4.465  20.946  0.00  0.00    +0.104 A 
ATOM     22  C   UNL     1      21.795   4.644  22.297  0.00  0.00    +0.130 A 
ATOM     26  H   UNL     1      20.983   5.478  19.363  0.00  0.00    +0.167 HD
ENDBRANCH  19  20
ENDBRANCH   5  19
ENDBRANCH  10   5
BRANCH   8  17
ATOM     17  C   UNL     1      14.405   7.564  18.947  0.00  0.00    +0.138 C 
BRANCH  17   4
ATOM      3  O   UNL     1      12.839  10.000  18.748  0.00  0.00    -0.276 OA
ATOM      4  N   UNL     1      13.180   7.870  19.627  0.00  0.00    -0.313 N 
ATOM     18  C   UNL     1      12.494   9.069  19.471  0.00  0.00    +0.216 C 
ATOM     23  H   UNL     1      12.802   7.163  20.252  0.00  0.00    +0.149 HD
BRANCH  18  11
ATOM     11  C   UNL     1      11.231   9.119  20.276  0.00  0.00    +0.075 C 
ATOM     12  C   UNL     1      11.391  10.086  21.455  0.00  0.00    +0.013 C 
ATOM     13  C   UNL     1      10.924   7.750  20.884  0.00  0.00    +0.013 C 
ATOM     15  C   UNL     1      11.072   9.273  22.705  0.00  0.00    +0.001 C 
ATOM     16  C   UNL     1      11.418   7.846  22.320  0.00  0.00    +0.001 C 
ENDBRANCH  18  11
ENDBRANCH  17   4
ENDBRANCH   8  17
TORSDOF 7
ENDMDL
MODEL 7
REMARK VINA RESULT:      -5.7     25.833     27.855
REMARK  Name = 75536567
REMARK  7 active torsions:
REMARK  status: ('A' for Active; 'I' for Inactive)
REMARK    1  A    between atoms: O_2  and  C_9
REMARK    2  A    between atoms: N_4  and  C_17
REMARK    3  A    between atoms: N_5  and  C_10
REMARK    4  A    between atoms: N_5  and  C_19
REMARK    5  A    between atoms: C_8  and  C_17
REMARK    6  A    between atoms: C_11  and  C_18
REMARK    7  A    between atoms: C_19  and  C_20
REMARK                            x       y       z     vdW  Elec       q    Type
REMARK                         _______ _______ _______ _____ _____    ______ ____
ROOT
ATOM      1  O   UNL     1      -1.289 -11.431  15.190  0.00  0.00    -0.371 OA
ATOM      8  C   UNL     1      -2.272 -11.951  14.280  0.00  0.00    +0.165 C 
ATOM      9  C   UNL     1      -3.541 -11.148  14.526  0.00  0.00    +0.164 C 
ATOM     10  C   UNL     1      -3.453 -10.914  16.023  0.00  0.00    +0.111 C 
ATOM     14  C   UNL     1      -1.965 -10.660  16.201  0.00  0.00    +0.181 C 
ENDROOT
BRANCH   9   2
ATOM      2  O   UNL     1      -4.701 -11.866  14.154  0.00  0.00    -0.388 OA
ATOM     25  H   UNL     1      -5.084 -11.442  13.368  0.00  0.00    +0.210 HD
ENDBRANCH   9   2
BRANCH  10   5
ATOM      5  N   UNL     1      -4.275  -9.809  16.491  0.00  0.00    -0.302 NA
ATOM     24  H   UNL     1      -4.626  -9.290  15.685  0.00  0.00    +0.123 HD
BRANCH   5  19
ATOM     19  C   UNL     1      -5.408 -10.291  17.272  0.00  0.00    +0.156 C 
BRANCH  19  20
ATOM      6  N   UNL     1      -7.528  -9.115  16.641  0.00  0.00    -0.347 N 
ATOM      7  N   UNL     1      -7.180 -11.074  15.656  0.00  0.00    -0.240 NA
ATOM     20  C   UNL     1      -6.699 -10.194  16.506  0.00  0.00    +0.121 A 
ATOM     21  C   UNL     1      -8.606  -9.320  15.827  0.00  0.00    +0.104 A 
ATOM     22  C   UNL     1      -8.367 -10.536  15.229  0.00  0.00    +0.130 A 
ATOM     26  H   UNL     1      -7.373  -8.311  17.236  0.00  0.00    +0.167 HD
ENDBRANCH  19  20
ENDBRANCH   5  19
ENDBRANCH  10   5
BRANCH   8  17
ATOM     17  C   UNL     1      -1.759 -11.840  12.854  0.00  0.00    +0.138 C 
BRANCH  17   4
ATOM      3  O   UNL     1      -1.821  -9.585  11.026  0.00  0.00    -0.276 OA
ATOM      4  N   UNL     1      -2.811 -11.482  11.948  0.00  0.00    -0.313 N 
ATOM     18  C   UNL     1      -2.755 -10.378  11.104  0.00  0.00    +0.216 C 
ATOM     23  H   UNL     1      -3.636 -12.075  11.929  0.00  0.00    +0.149 HD
BRANCH  18  11
ATOM     11  C   UNL     1      -3.976 -10.247  10.244  0.00  0.00    +0.075 C 
ATOM     12  C   UNL     1      -3.934  -8.931   9.459  0.00  0.00    +0.013 C 
ATOM     13  C   UNL     1      -5.238 -10.191  11.105  0.00  0.00    +0.013 C 
ATOM     15  C   UNL     1      -5.223  -8.196   9.810  0.00  0.00    +0.001 C 
ATOM     16  C   UNL     1      -5.580  -8.710  11.192  0.00  0.00    +0.001 C 
ENDBRANCH  18  11
ENDBRANCH  17   4
ENDBRANCH   8  17
TORSDOF 7
ENDMDL
MODEL 8
REMARK VINA RESULT:      -5.7     27.518     29.377
REMARK  Name = 75536567
REMARK  7 active torsions:
REMARK  status: ('A' for Active; 'I' for Inactive)
REMARK    1  A    between atoms: O_2  and  C_9
REMARK    2  A    between atoms: N_4  and  C_17
REMARK    3  A    between atoms: N_5  and  C_10
REMARK    4  A    between atoms: N_5  and  C_19
REMARK    5  A    between atoms: C_8  and  C_17
REMARK    6  A    between atoms: C_11  and  C_18
REMARK    7  A    between atoms: C_19  and  C_20
REMARK                            x       y       z     vdW  Elec       q    Type
REMARK                         _______ _______ _______ _____ _____    ______ ____
ROOT
ATOM      1  O   UNL     1     -18.216   2.870  26.617  0.00  0.00    -0.371 OA
ATOM      8  C   UNL     1     -18.013   1.451  26.520  0.00  0.00    +0.165 C 
ATOM      9  C   UNL     1     -16.906   1.254  25.493  0.00  0.00    +0.164 C 
ATOM     10  C   UNL     1     -17.199   2.385  24.526  0.00  0.00    +0.111 C 
ATOM     14  C   UNL     1     -17.600   3.499  25.478  0.00  0.00    +0.181 C 
ENDROOT
BRANCH   9   2
ATOM      2  O   UNL     1     -16.975  -0.019  24.881  0.00  0.00    -0.388 OA
ATOM     25  H   UNL     1     -17.884  -0.352  24.970  0.00  0.00    +0.210 HD
ENDBRANCH   9   2
BRANCH  10   5
ATOM      5  N   UNL     1     -16.068   2.741  23.684  0.00  0.00    -0.302 NA
ATOM     24  H   UNL     1     -16.414   3.116  22.800  0.00  0.00    +0.123 HD
BRANCH   5  19
ATOM     19  C   UNL     1     -15.230   3.746  24.327  0.00  0.00    +0.156 C 
BRANCH  19  20
ATOM      6  N   UNL     1     -13.845   4.421  22.351  0.00  0.00    -0.347 N 
ATOM      7  N   UNL     1     -15.026   6.043  23.302  0.00  0.00    -0.240 NA
ATOM     20  C   UNL     1     -14.721   4.764  23.343  0.00  0.00    +0.121 A 
ATOM     21  C   UNL     1     -13.574   5.551  21.633  0.00  0.00    +0.104 A 
ATOM     22  C   UNL     1     -14.315   6.538  22.239  0.00  0.00    +0.130 A 
ATOM     26  H   UNL     1     -13.466   3.499  22.179  0.00  0.00    +0.167 HD
ENDBRANCH  19  20
ENDBRANCH   5  19
ENDBRANCH  10   5
BRANCH   8  17
ATOM     17  C   UNL     1     -17.670   0.887  27.888  0.00  0.00    +0.138 C 
BRANCH  17   4
ATOM      3  O   UNL     1     -16.062  -0.096  30.096  0.00  0.00    -0.276 OA
ATOM      4  N   UNL     1     -16.448   1.443  28.391  0.00  0.00    -0.313 N 
ATOM     18  C   UNL     1     -15.741   0.903  29.459  0.00  0.00    +0.216 C 
ATOM     23  H   UNL     1     -16.089   2.275  27.932  0.00  0.00    +0.149 HD
BRANCH  18  11
ATOM     11  C   UNL     1     -14.486   1.665  29.763  0.00  0.00    +0.075 C 
ATOM     12  C   UNL     1     -13.995   1.334  31.177  0.00  0.00    +0.013 C 
ATOM     13  C   UNL     1     -14.752   3.170  29.744  0.00  0.00    +0.013 C 
ATOM     15  C   UNL     1     -13.891   2.671  31.904  0.00  0.00    +0.001 C 
ATOM     16  C   UNL     1     -14.911   3.553  31.208  0.00  0.00    +0.001 C 
ENDBRANCH  18  11
ENDBRANCH  17   4
ENDBRANCH   8  17
TORSDOF 7
ENDMDL
MODEL 9
REMARK VINA RESULT:      -5.6     26.559     28.404
REMARK  Name = 75536567
REMARK  7 active torsions:
REMARK  status: ('A' for Active; 'I' for Inactive)
REMARK    1  A    between atoms: O_2  and  C_9
REMARK    2  A    between atoms: N_4  and  C_17
REMARK    3  A    between atoms: N_5  and  C_10
REMARK    4  A    between atoms: N_5  and  C_19
REMARK    5  A    between atoms: C_8  and  C_17
REMARK    6  A    between atoms: C_11  and  C_18
REMARK    7  A    between atoms: C_19  and  C_20
REMARK                            x       y       z     vdW  Elec       q    Type
REMARK                         _______ _______ _______ _____ _____    ______ ____
ROOT
ATOM      1  O   UNL     1     -17.365   5.366  25.033  0.00  0.00    -0.371 OA
ATOM      8  C   UNL     1     -16.971   4.122  25.635  0.00  0.00    +0.165 C 
ATOM      9  C   UNL     1     -15.799   3.609  24.811  0.00  0.00    +0.164 C 
ATOM     10  C   UNL     1     -16.191   4.076  23.422  0.00  0.00    +0.111 C 
ATOM     14  C   UNL     1     -16.782   5.443  23.720  0.00  0.00    +0.181 C 
ENDROOT
BRANCH   9   2
ATOM      2  O   UNL     1     -15.668   2.203  24.898  0.00  0.00    -0.388 OA
ATOM     25  H   UNL     1     -14.740   1.994  25.096  0.00  0.00    +0.210 HD
ENDBRANCH   9   2
BRANCH  10   5
ATOM      5  N   UNL     1     -15.077   4.132  22.489  0.00  0.00    -0.302 NA
ATOM     24  H   UNL     1     -15.402   4.522  21.604  0.00  0.00    +0.123 HD
BRANCH   5  19
ATOM     19  C   UNL     1     -14.001   4.969  23.007  0.00  0.00    +0.156 C 
BRANCH  19  20
ATOM      6  N   UNL     1     -12.216   5.796  21.454  0.00  0.00    -0.347 N 
ATOM      7  N   UNL     1     -14.121   6.937  21.431  0.00  0.00    -0.240 NA
ATOM     20  C   UNL     1     -13.479   5.920  21.964  0.00  0.00    +0.121 A 
ATOM     21  C   UNL     1     -12.042   6.796  20.540  0.00  0.00    +0.104 A 
ATOM     22  C   UNL     1     -13.231   7.486  20.544  0.00  0.00    +0.130 A 
ATOM     26  H   UNL     1     -11.535   5.092  21.706  0.00  0.00    +0.167 HD
ENDBRANCH  19  20
ENDBRANCH   5  19
ENDBRANCH  10   5
BRANCH   8  17
ATOM     17  C   UNL     1     -16.625   4.346  27.097  0.00  0.00    +0.138 C 
BRANCH  17   4
ATOM      3  O   UNL     1     -15.526   4.092  29.773  0.00  0.00    -0.276 OA
ATOM      4  N   UNL     1     -15.875   3.246  27.630  0.00  0.00    -0.313 N 
ATOM     18  C   UNL     1     -15.385   3.210  28.931  0.00  0.00    +0.216 C 
ATOM     23  H   UNL     1     -15.701   2.457  27.015  0.00  0.00    +0.149 HD
BRANCH  18  11
ATOM     11  C   UNL     1     -14.658   1.935  29.237  0.00  0.00    +0.075 C 
ATOM     12  C   UNL     1     -15.647   0.767  29.318  0.00  0.00    +0.013 C 
ATOM     13  C   UNL     1     -13.979   2.017  30.604  0.00  0.00    +0.013 C 
ATOM     15  C   UNL     1     -15.440   0.142  30.693  0.00  0.00    +0.001 C 
ATOM     16  C   UNL     1     -14.922   1.284  31.547  0.00  0.00    +0.001 C 
ENDBRANCH  18  11
ENDBRANCH  17   4
ENDBRANCH   8  17
TORSDOF 7
ENDMDL
MODEL 10
REMARK VINA RESULT:      -5.6      1.600      2.364
REMARK  Name = 75536567
REMARK  7 active torsions:
REMARK  status: ('A' for Active; 'I' for Inactive)
REMARK    1  A    between atoms: O_2  and  C_9
REMARK    2  A    between atoms: N_4  and  C_17
REMARK    3  A    between atoms: N_5  and  C_10
REMARK    4  A    between atoms: N_5  and  C_19
REMARK    5  A    between atoms: C_8  and  C_17
REMARK    6  A    between atoms: C_11  and  C_18
REMARK    7  A    between atoms: C_19  and  C_20
REMARK                            x       y       z     vdW  Elec       q    Type
REMARK                         _______ _______ _______ _____ _____    ______ ____
ROOT
ATOM      1  O   UNL     1      11.437   6.632  20.689  0.00  0.00    -0.371 OA
ATOM      8  C   UNL     1      11.877   7.370  21.841  0.00  0.00    +0.165 C 
ATOM      9  C   UNL     1      13.103   8.154  21.395  0.00  0.00    +0.164 C 
ATOM     10  C   UNL     1      13.731   7.183  20.414  0.00  0.00    +0.111 C 
ATOM     14  C   UNL     1      12.502   6.618  19.721  0.00  0.00    +0.181 C 
ENDROOT
BRANCH   9   2
ATOM      2  O   UNL     1      13.956   8.462  22.481  0.00  0.00    -0.388 OA
ATOM     25  H   UNL     1      14.584   7.728  22.593  0.00  0.00    +0.210 HD
ENDBRANCH   9   2
BRANCH  10   5
ATOM      5  N   UNL     1      14.664   7.808  19.489  0.00  0.00    -0.302 NA
ATOM     24  H   UNL     1      14.813   7.188  18.694  0.00  0.00    +0.123 HD
BRANCH   5  19
ATOM     19  C   UNL     1      14.147   9.083  19.004  0.00  0.00    +0.156 C 
BRANCH  19  20
ATOM      6  N   UNL     1      14.603  10.325  16.877  0.00  0.00    -0.347 N 
ATOM      7  N   UNL     1      13.904   8.230  16.641  0.00  0.00    -0.240 NA
ATOM     20  C   UNL     1      14.206   9.176  17.504  0.00  0.00    +0.121 A 
ATOM     21  C   UNL     1      14.551  10.097  15.530  0.00  0.00    +0.104 A 
ATOM     22  C   UNL     1      14.117   8.798  15.411  0.00  0.00    +0.130 A 
ATOM     26  H   UNL     1      14.885  11.186  17.326  0.00  0.00    +0.167 HD
ENDBRANCH  19  20
ENDBRANCH   5  19
ENDBRANCH  10   5
BRANCH   8  17
ATOM     17  C   UNL     1      10.749   8.253  22.346  0.00  0.00    +0.138 C 
BRANCH  17   4
ATOM      3  O   UNL     1      10.911  10.594  24.056  0.00  0.00    -0.276 OA
ATOM      4  N   UNL     1      10.934   9.617  21.942  0.00  0.00    -0.313 N 
ATOM     18  C   UNL     1      11.000  10.681  22.834  0.00  0.00    +0.216 C 
ATOM     23  H   UNL     1      11.022   9.802  20.947  0.00  0.00    +0.149 HD
BRANCH  18  11
ATOM     11  C   UNL     1      11.222  11.995  22.150  0.00  0.00    +0.075 C 
ATOM     12  C   UNL     1      12.203  11.827  20.984  0.00  0.00    +0.013 C 
ATOM     13  C   UNL     1      11.864  13.000  23.107  0.00  0.00    +0.013 C 
ATOM     15  C   UNL     1      13.335  12.814  21.247  0.00  0.00    +0.001 C 
ATOM     16  C   UNL     1      13.345  12.975  22.756  0.00  0.00    +0.001 C 
ENDBRANCH  18  11
ENDBRANCH  17   4
ENDBRANCH   8  17
TORSDOF 7
ENDMDL
