MODEL 1
REMARK VINA RESULT:      -6.8      0.000      0.000
REMARK  Name = 45784234
REMARK  3 active torsions:
REMARK  status: ('A' for Active; 'I' for Inactive)
REMARK    1  A    between atoms: N_2  and  C_6
REMARK    2  A    between atoms: N_3  and  C_16
REMARK    3  A    between atoms: C_7  and  C_15
REMARK                            x       y       z     vdW  Elec       q    Type
REMARK                         _______ _______ _______ _____ _____    ______ ____
ROOT
ATOM      2  N   UNL     1      11.363   9.689  21.466  0.00  0.00    -0.299 NA
ATOM      7  C   UNL     1      12.642   8.159  20.233  0.00  0.00    +0.070 C 
ATOM      8  C   UNL     1      12.641   9.601  20.757  0.00  0.00    +0.096 C 
ATOM      9  C   UNL     1      11.258   8.433  22.210  0.00  0.00    +0.085 C 
ATOM     10  C   UNL     1      11.710   7.396  21.190  0.00  0.00    +0.028 C 
ENDROOT
BRANCH   7  15
ATOM      1  F   UNL     1      19.543   6.071  21.122  0.00  0.00    -0.205 F 
ATOM      4  N   UNL     1      14.965   7.749  21.091  0.00  0.00    -0.341 N 
ATOM      5  N   UNL     1      14.503   6.876  19.101  0.00  0.00    -0.232 NA
ATOM     15  C   UNL     1      14.032   7.579  20.106  0.00  0.00    +0.113 A 
ATOM     17  C   UNL     1      16.114   7.116  20.694  0.00  0.00    +0.069 A 
ATOM     18  C   UNL     1      15.800   6.578  19.449  0.00  0.00    +0.089 A 
ATOM     19  C   UNL     1      17.364   6.970  21.299  0.00  0.00    +0.066 A 
ATOM     20  C   UNL     1      16.778   5.850  18.751  0.00  0.00    +0.032 A 
ATOM     21  C   UNL     1      18.325   6.242  20.590  0.00  0.00    +0.125 A 
ATOM     22  C   UNL     1      18.040   5.691  19.338  0.00  0.00    +0.040 A 
ATOM     23  H   UNL     1      14.835   8.253  21.959  0.00  0.00    +0.167 HD
ENDBRANCH   7  15
BRANCH   2   6
ATOM      3  N   UNL     1      12.260  12.326  24.677  0.00  0.00    -0.305 NA
ATOM      6  C   UNL     1      11.289  10.860  22.337  0.00  0.00    +0.059 C 
ATOM     11  C   UNL     1      12.626  11.606  22.337  0.00  0.00    +0.034 C 
ATOM     12  C   UNL     1      10.918  10.455  23.767  0.00  0.00    +0.034 C 
ATOM     13  C   UNL     1      12.600  12.778  23.322  0.00  0.00    +0.085 C 
ATOM     14  C   UNL     1      10.947  11.666  24.705  0.00  0.00    +0.085 C 
ATOM     16  C   UNL     1      12.289  13.448  25.614  0.00  0.00    +0.104 C 
ENDBRANCH   2   6
TORSDOF 2
ENDMDL
MODEL 2
REMARK VINA RESULT:      -6.8     27.220     28.615
REMARK  Name = 45784234
REMARK  3 active torsions:
REMARK  status: ('A' for Active; 'I' for Inactive)
REMARK    1  A    between atoms: N_2  and  C_6
REMARK    2  A    between atoms: N_3  and  C_16
REMARK    3  A    between atoms: C_7  and  C_15
REMARK                            x       y       z     vdW  Elec       q    Type
REMARK                         _______ _______ _______ _____ _____    ______ ____
ROOT
ATOM      2  N   UNL     1      -2.348 -11.202  12.025  0.00  0.00    -0.299 NA
ATOM      7  C   UNL     1      -2.421 -11.112  14.367  0.00  0.00    +0.070 C 
ATOM      8  C   UNL     1      -2.959 -10.424  13.105  0.00  0.00    +0.096 C 
ATOM      9  C   UNL     1      -2.477 -12.597  12.446  0.00  0.00    +0.085 C 
ATOM     10  C   UNL     1      -2.087 -12.545  13.917  0.00  0.00    +0.028 C 
ENDROOT
BRANCH   7  15
ATOM      1  F   UNL     1      -5.796 -11.536  20.786  0.00  0.00    -0.205 F 
ATOM      4  N   UNL     1      -3.063 -11.579  16.748  0.00  0.00    -0.341 N 
ATOM      5  N   UNL     1      -4.545 -10.431  15.556  0.00  0.00    -0.232 NA
ATOM     15  C   UNL     1      -3.371 -11.021  15.539  0.00  0.00    +0.113 A 
ATOM     17  C   UNL     1      -4.107 -11.334  17.601  0.00  0.00    +0.069 A 
ATOM     18  C   UNL     1      -5.019 -10.615  16.834  0.00  0.00    +0.089 A 
ATOM     19  C   UNL     1      -4.326 -11.667  18.939  0.00  0.00    +0.066 A 
ATOM     20  C   UNL     1      -6.227 -10.197  17.418  0.00  0.00    +0.032 A 
ATOM     21  C   UNL     1      -5.533 -11.243  19.504  0.00  0.00    +0.125 A 
ATOM     22  C   UNL     1      -6.468 -10.521  18.759  0.00  0.00    +0.040 A 
ATOM     23  H   UNL     1      -2.216 -12.084  16.976  0.00  0.00    +0.167 HD
ENDBRANCH   7  15
BRANCH   2   6
ATOM      3  N   UNL     1      -5.240  -9.910   9.190  0.00  0.00    -0.305 NA
ATOM      6  C   UNL     1      -2.980 -10.950  10.732  0.00  0.00    +0.059 C 
ATOM     11  C   UNL     1      -3.217  -9.450  10.540  0.00  0.00    +0.034 C 
ATOM     12  C   UNL     1      -4.307 -11.707  10.614  0.00  0.00    +0.034 C 
ATOM     13  C   UNL     1      -3.968  -9.176   9.235  0.00  0.00    +0.085 C 
ATOM     14  C   UNL     1      -5.022 -11.359   9.306  0.00  0.00    +0.085 C 
ATOM     16  C   UNL     1      -5.969  -9.598   7.961  0.00  0.00    +0.104 C 
ENDBRANCH   2   6
TORSDOF 2
ENDMDL
MODEL 3
REMARK VINA RESULT:      -6.6      4.127      7.859
REMARK  Name = 45784234
REMARK  3 active torsions:
REMARK  status: ('A' for Active; 'I' for Inactive)
REMARK    1  A    between atoms: N_2  and  C_6
REMARK    2  A    between atoms: N_3  and  C_16
REMARK    3  A    between atoms: C_7  and  C_15
REMARK                            x       y       z     vdW  Elec       q    Type
REMARK                         _______ _______ _______ _____ _____    ______ ____
ROOT
ATOM      2  N   UNL     1      12.883   8.687  19.198  0.00  0.00    -0.299 NA
ATOM      7  C   UNL     1      12.127   9.271  21.339  0.00  0.00    +0.070 C 
ATOM      8  C   UNL     1      13.141   9.664  20.256  0.00  0.00    +0.096 C 
ATOM      9  C   UNL     1      11.425   8.599  19.112  0.00  0.00    +0.085 C 
ATOM     10  C   UNL     1      11.003   8.550  20.575  0.00  0.00    +0.028 C 
ENDROOT
BRANCH   7  15
ATOM      1  F   UNL     1      10.277  13.888  26.633  0.00  0.00    -0.205 F 
ATOM      4  N   UNL     1      11.653  10.378  23.541  0.00  0.00    -0.341 N 
ATOM      5  N   UNL     1      11.263  11.613  21.735  0.00  0.00    -0.232 NA
ATOM     15  C   UNL     1      11.673  10.445  22.175  0.00  0.00    +0.113 A 
ATOM     17  C   UNL     1      11.200  11.582  24.013  0.00  0.00    +0.069 A 
ATOM     18  C   UNL     1      10.964  12.337  22.866  0.00  0.00    +0.089 A 
ATOM     19  C   UNL     1      10.983  12.064  25.305  0.00  0.00    +0.066 A 
ATOM     20  C   UNL     1      10.483  13.650  22.998  0.00  0.00    +0.032 A 
ATOM     21  C   UNL     1      10.504  13.374  25.416  0.00  0.00    +0.125 A 
ATOM     22  C   UNL     1      10.257  14.155  24.285  0.00  0.00    +0.040 A 
ATOM     23  H   UNL     1      11.923   9.583  24.105  0.00  0.00    +0.167 HD
ENDBRANCH   7  15
BRANCH   2   6
ATOM      3  N   UNL     1      13.834  11.034  15.784  0.00  0.00    -0.305 NA
ATOM      6  C   UNL     1      13.493   9.069  17.926  0.00  0.00    +0.059 C 
ATOM     11  C   UNL     1      14.341  10.331  18.102  0.00  0.00    +0.034 C 
ATOM     12  C   UNL     1      12.423   9.304  16.855  0.00  0.00    +0.034 C 
ATOM     13  C   UNL     1      14.907  10.804  16.761  0.00  0.00    +0.085 C 
ATOM     14  C   UNL     1      13.052   9.810  15.553  0.00  0.00    +0.085 C 
ATOM     16  C   UNL     1      14.385  11.534  14.525  0.00  0.00    +0.104 C 
ENDBRANCH   2   6
TORSDOF 2
ENDMDL
MODEL 4
REMARK VINA RESULT:      -6.6     26.888     29.640
REMARK  Name = 45784234
REMARK  3 active torsions:
REMARK  status: ('A' for Active; 'I' for Inactive)
REMARK    1  A    between atoms: N_2  and  C_6
REMARK    2  A    between atoms: N_3  and  C_16
REMARK    3  A    between atoms: C_7  and  C_15
REMARK                            x       y       z     vdW  Elec       q    Type
REMARK                         _______ _______ _______ _____ _____    ______ ____
ROOT
ATOM      2  N   UNL     1      -4.103 -11.096  17.480  0.00  0.00    -0.299 NA
ATOM      7  C   UNL     1      -5.883 -10.510  18.889  0.00  0.00    +0.070 C 
ATOM      8  C   UNL     1      -5.350 -10.330  17.461  0.00  0.00    +0.096 C 
ATOM      9  C   UNL     1      -4.428 -12.329  18.198  0.00  0.00    +0.085 C 
ATOM     10  C   UNL     1      -5.253 -11.826  19.376  0.00  0.00    +0.028 C 
ENDROOT
BRANCH   7  15
ATOM      1  F   UNL     1     -12.972  -9.193  18.006  0.00  0.00    -0.205 F 
ATOM      4  N   UNL     1      -8.121  -9.666  18.127  0.00  0.00    -0.341 N 
ATOM      5  N   UNL     1      -8.159 -11.137  19.792  0.00  0.00    -0.232 NA
ATOM     15  C   UNL     1      -7.391 -10.463  18.965  0.00  0.00    +0.113 A 
ATOM     17  C   UNL     1      -9.445  -9.837  18.433  0.00  0.00    +0.069 A 
ATOM     18  C   UNL     1      -9.443 -10.760  19.475  0.00  0.00    +0.089 A 
ATOM     19  C   UNL     1     -10.612  -9.281  17.904  0.00  0.00    +0.066 A 
ATOM     20  C   UNL     1     -10.667 -11.164  20.035  0.00  0.00    +0.032 A 
ATOM     21  C   UNL     1     -11.821  -9.695  18.474  0.00  0.00    +0.125 A 
ATOM     22  C   UNL     1     -11.850 -10.619  19.521  0.00  0.00    +0.040 A 
ATOM     23  H   UNL     1      -7.751  -9.057  17.408  0.00  0.00    +0.167 HD
ENDBRANCH   7  15
BRANCH   2   6
ATOM      3  N   UNL     1      -2.520 -10.339  13.608  0.00  0.00    -0.305 NA
ATOM      6  C   UNL     1      -3.587 -11.354  16.137  0.00  0.00    +0.059 C 
ATOM     11  C   UNL     1      -2.157 -10.826  16.008  0.00  0.00    +0.034 C 
ATOM     12  C   UNL     1      -4.480 -10.708  15.074  0.00  0.00    +0.034 C 
ATOM     13  C   UNL     1      -1.635 -10.998  14.578  0.00  0.00    +0.085 C 
ATOM     14  C   UNL     1      -3.883 -10.884  13.675  0.00  0.00    +0.085 C 
ATOM     16  C   UNL     1      -1.983 -10.468  12.255  0.00  0.00    +0.104 C 
ENDBRANCH   2   6
TORSDOF 2
ENDMDL
MODEL 5
REMARK VINA RESULT:      -6.4     27.785     30.320
REMARK  Name = 45784234
REMARK  3 active torsions:
REMARK  status: ('A' for Active; 'I' for Inactive)
REMARK    1  A    between atoms: N_2  and  C_6
REMARK    2  A    between atoms: N_3  and  C_16
REMARK    3  A    between atoms: C_7  and  C_15
REMARK                            x       y       z     vdW  Elec       q    Type
REMARK                         _______ _______ _______ _____ _____    ______ ____
ROOT
ATOM      2  N   UNL     1     -17.159   2.655  27.143  0.00  0.00    -0.299 NA
ATOM      7  C   UNL     1     -17.063   3.741  25.067  0.00  0.00    +0.070 C 
ATOM      8  C   UNL     1     -16.793   3.949  26.563  0.00  0.00    +0.096 C 
ATOM      9  C   UNL     1     -16.596   1.660  26.230  0.00  0.00    +0.085 C 
ATOM     10  C   UNL     1     -16.949   2.221  24.858  0.00  0.00    +0.028 C 
ENDROOT
BRANCH   7  15
ATOM      1  F   UNL     1     -11.762   6.370  20.853  0.00  0.00    -0.205 F 
ATOM      4  N   UNL     1     -14.977   4.075  23.713  0.00  0.00    -0.341 N 
ATOM      5  N   UNL     1     -16.375   5.802  23.775  0.00  0.00    -0.232 NA
ATOM     15  C   UNL     1     -16.161   4.571  24.184  0.00  0.00    +0.113 A 
ATOM     17  C   UNL     1     -14.389   5.050  22.949  0.00  0.00    +0.069 A 
ATOM     18  C   UNL     1     -15.281   6.117  23.003  0.00  0.00    +0.089 A 
ATOM     19  C   UNL     1     -13.189   5.089  22.236  0.00  0.00    +0.066 A 
ATOM     20  C   UNL     1     -14.975   7.301  22.312  0.00  0.00    +0.032 A 
ATOM     21  C   UNL     1     -12.901   6.276  21.554  0.00  0.00    +0.125 A 
ATOM     22  C   UNL     1     -13.776   7.364  21.590  0.00  0.00    +0.040 A 
ATOM     23  H   UNL     1     -14.599   3.154  23.893  0.00  0.00    +0.167 HD
ENDBRANCH   7  15
BRANCH   2   6
ATOM      3  N   UNL     1     -14.453   1.942  30.343  0.00  0.00    -0.305 NA
ATOM      6  C   UNL     1     -16.666   2.498  28.509  0.00  0.00    +0.059 C 
ATOM     11  C   UNL     1     -15.567   3.523  28.798  0.00  0.00    +0.034 C 
ATOM     12  C   UNL     1     -16.131   1.081  28.738  0.00  0.00    +0.034 C 
ATOM     13  C   UNL     1     -14.969   3.309  30.191  0.00  0.00    +0.085 C 
ATOM     14  C   UNL     1     -15.515   0.946  30.134  0.00  0.00    +0.085 C 
ATOM     16  C   UNL     1     -13.840   1.768  31.658  0.00  0.00    +0.104 C 
ENDBRANCH   2   6
TORSDOF 2
ENDMDL
MODEL 6
REMARK VINA RESULT:      -6.3     28.091     30.748
REMARK  Name = 45784234
REMARK  3 active torsions:
REMARK  status: ('A' for Active; 'I' for Inactive)
REMARK    1  A    between atoms: N_2  and  C_6
REMARK    2  A    between atoms: N_3  and  C_16
REMARK    3  A    between atoms: C_7  and  C_15
REMARK                            x       y       z     vdW  Elec       q    Type
REMARK                         _______ _______ _______ _____ _____    ______ ____
ROOT
ATOM      2  N   UNL     1     -16.720   3.692  24.137  0.00  0.00    -0.299 NA
ATOM      7  C   UNL     1     -17.035   2.664  26.220  0.00  0.00    +0.070 C 
ATOM      8  C   UNL     1     -16.080   2.717  25.021  0.00  0.00    +0.096 C 
ATOM      9  C   UNL     1     -17.156   4.773  25.021  0.00  0.00    +0.085 C 
ATOM     10  C   UNL     1     -17.757   4.023  26.202  0.00  0.00    +0.028 C 
ENDROOT
BRANCH   7  15
ATOM      1  F   UNL     1     -12.994   2.603  32.257  0.00  0.00    -0.205 F 
ATOM      4  N   UNL     1     -15.467   3.220  28.100  0.00  0.00    -0.341 N 
ATOM      5  N   UNL     1     -16.453   1.232  28.220  0.00  0.00    -0.232 NA
ATOM     15  C   UNL     1     -16.334   2.337  27.518  0.00  0.00    +0.113 A 
ATOM     17  C   UNL     1     -14.997   2.648  29.253  0.00  0.00    +0.069 A 
ATOM     18  C   UNL     1     -15.627   1.407  29.306  0.00  0.00    +0.089 A 
ATOM     19  C   UNL     1     -14.101   3.094  30.226  0.00  0.00    +0.066 A 
ATOM     20  C   UNL     1     -15.359   0.549  30.385  0.00  0.00    +0.032 A 
ATOM     21  C   UNL     1     -13.847   2.226  31.293  0.00  0.00    +0.125 A 
ATOM     22  C   UNL     1     -14.463   0.976  31.374  0.00  0.00    +0.040 A 
ATOM     23  H   UNL     1     -15.217   4.134  27.746  0.00  0.00    +0.167 HD
ENDBRANCH   7  15
BRANCH   2   6
ATOM      3  N   UNL     1     -14.176   6.296  21.942  0.00  0.00    -0.305 NA
ATOM      6  C   UNL     1     -15.823   4.163  23.084  0.00  0.00    +0.059 C 
ATOM     11  C   UNL     1     -14.468   4.555  23.677  0.00  0.00    +0.034 C 
ATOM     12  C   UNL     1     -16.431   5.355  22.338  0.00  0.00    +0.034 C 
ATOM     13  C   UNL     1     -13.548   5.144  22.605  0.00  0.00    +0.085 C 
ATOM     14  C   UNL     1     -15.447   5.918  21.309  0.00  0.00    +0.085 C 
ATOM     16  C   UNL     1     -13.266   6.879  20.957  0.00  0.00    +0.104 C 
ENDBRANCH   2   6
TORSDOF 2
ENDMDL
MODEL 7
REMARK VINA RESULT:      -6.2     26.914     28.541
REMARK  Name = 45784234
REMARK  3 active torsions:
REMARK  status: ('A' for Active; 'I' for Inactive)
REMARK    1  A    between atoms: N_2  and  C_6
REMARK    2  A    between atoms: N_3  and  C_16
REMARK    3  A    between atoms: C_7  and  C_15
REMARK                            x       y       z     vdW  Elec       q    Type
REMARK                         _______ _______ _______ _____ _____    ______ ____
ROOT
ATOM      2  N   UNL     1      -5.807 -11.971  17.535  0.00  0.00    -0.299 NA
ATOM      7  C   UNL     1      -4.101 -11.863  15.931  0.00  0.00    +0.070 C 
ATOM      8  C   UNL     1      -5.606 -12.114  16.092  0.00  0.00    +0.096 C 
ATOM      9  C   UNL     1      -5.019 -10.797  17.912  0.00  0.00    +0.085 C 
ATOM     10  C   UNL     1      -3.717 -11.005  17.149  0.00  0.00    +0.028 C 
ENDROOT
BRANCH   7  15
ATOM      1  F   UNL     1      -4.037  -8.751   9.367  0.00  0.00    -0.205 F 
ATOM      4  N   UNL     1      -4.709 -10.777  13.751  0.00  0.00    -0.341 N 
ATOM      5  N   UNL     1      -2.539 -11.119  14.088  0.00  0.00    -0.232 NA
ATOM     15  C   UNL     1      -3.744 -11.258  14.593  0.00  0.00    +0.113 A 
ATOM     17  C   UNL     1      -4.085 -10.297  12.629  0.00  0.00    +0.069 A 
ATOM     18  C   UNL     1      -2.731 -10.521  12.864  0.00  0.00    +0.089 A 
ATOM     19  C   UNL     1      -4.572  -9.702  11.464  0.00  0.00    +0.066 A 
ATOM     20  C   UNL     1      -1.794 -10.137  11.890  0.00  0.00    +0.032 A 
ATOM     21  C   UNL     1      -3.626  -9.326  10.506  0.00  0.00    +0.125 A 
ATOM     22  C   UNL     1      -2.261  -9.539  10.712  0.00  0.00    +0.040 A 
ATOM     23  H   UNL     1      -5.706 -10.775  13.922  0.00  0.00    +0.167 HD
ENDBRANCH   7  15
BRANCH   2   6
ATOM      3  N   UNL     1      -9.278 -10.691  19.629  0.00  0.00    -0.305 NA
ATOM      6  C   UNL     1      -7.218 -11.830  17.890  0.00  0.00    +0.059 C 
ATOM     11  C   UNL     1      -7.643 -10.362  17.800  0.00  0.00    +0.034 C 
ATOM     12  C   UNL     1      -7.484 -12.365  19.300  0.00  0.00    +0.034 C 
ATOM     13  C   UNL     1      -9.091 -10.181  18.264  0.00  0.00    +0.085 C 
ATOM     14  C   UNL     1      -8.937 -12.118  19.715  0.00  0.00    +0.085 C 
ATOM     16  C   UNL     1     -10.652 -10.464  20.077  0.00  0.00    +0.104 C 
ENDBRANCH   2   6
TORSDOF 2
ENDMDL
MODEL 8
REMARK VINA RESULT:      -6.2     18.352     21.515
REMARK  Name = 45784234
REMARK  3 active torsions:
REMARK  status: ('A' for Active; 'I' for Inactive)
REMARK    1  A    between atoms: N_2  and  C_6
REMARK    2  A    between atoms: N_3  and  C_16
REMARK    3  A    between atoms: C_7  and  C_15
REMARK                            x       y       z     vdW  Elec       q    Type
REMARK                         _______ _______ _______ _____ _____    ______ ____
ROOT
ATOM      2  N   UNL     1      13.029   4.872  -0.397  0.00  0.00    -0.299 NA
ATOM      7  C   UNL     1      12.986   5.635   1.820  0.00  0.00    +0.070 C 
ATOM      8  C   UNL     1      12.159   5.601   0.528  0.00  0.00    +0.096 C 
ATOM      9  C   UNL     1      13.567   3.760   0.388  0.00  0.00    +0.085 C 
ATOM     10  C   UNL     1      13.928   4.423   1.711  0.00  0.00    +0.028 C 
ENDROOT
BRANCH   7  15
ATOM      1  F   UNL     1      10.014   6.874   8.332  0.00  0.00    -0.205 F 
ATOM      4  N   UNL     1      12.455   6.457   4.131  0.00  0.00    -0.341 N 
ATOM      5  N   UNL     1      11.033   4.975   3.283  0.00  0.00    -0.232 NA
ATOM     15  C   UNL     1      12.131   5.663   3.066  0.00  0.00    +0.113 A 
ATOM     17  C   UNL     1      11.503   6.268   5.099  0.00  0.00    +0.069 A 
ATOM     18  C   UNL     1      10.626   5.339   4.545  0.00  0.00    +0.089 A 
ATOM     19  C   UNL     1      11.337   6.814   6.373  0.00  0.00    +0.066 A 
ATOM     20  C   UNL     1       9.513   4.918   5.292  0.00  0.00    +0.032 A 
ATOM     21  C   UNL     1      10.223   6.383   7.102  0.00  0.00    +0.125 A 
ATOM     22  C   UNL     1       9.326   5.452   6.573  0.00  0.00    +0.040 A 
ATOM     23  H   UNL     1      13.254   7.074   4.197  0.00  0.00    +0.167 HD
ENDBRANCH   7  15
BRANCH   2   6
ATOM      3  N   UNL     1      10.168   2.839  -2.796  0.00  0.00    -0.305 NA
ATOM      6  C   UNL     1      12.319   4.418  -1.590  0.00  0.00    +0.059 C 
ATOM     11  C   UNL     1      10.853   4.856  -1.533  0.00  0.00    +0.034 C 
ATOM     12  C   UNL     1      12.403   2.895  -1.731  0.00  0.00    +0.034 C 
ATOM     13  C   UNL     1      10.069   4.304  -2.727  0.00  0.00    +0.085 C 
ATOM     14  C   UNL     1      11.568   2.407  -2.918  0.00  0.00    +0.085 C 
ATOM     16  C   UNL     1       9.373   2.323  -3.909  0.00  0.00    +0.104 C 
ENDBRANCH   2   6
TORSDOF 2
ENDMDL
MODEL 9
REMARK VINA RESULT:      -6.2     17.381     20.677
REMARK  Name = 45784234
REMARK  3 active torsions:
REMARK  status: ('A' for Active; 'I' for Inactive)
REMARK    1  A    between atoms: N_2  and  C_6
REMARK    2  A    between atoms: N_3  and  C_16
REMARK    3  A    between atoms: C_7  and  C_15
REMARK                            x       y       z     vdW  Elec       q    Type
REMARK                         _______ _______ _______ _____ _____    ______ ____
ROOT
ATOM      2  N   UNL     1      12.382   3.420   0.419  0.00  0.00    -0.299 NA
ATOM      7  C   UNL     1      11.075   3.839   2.320  0.00  0.00    +0.070 C 
ATOM      8  C   UNL     1      12.521   3.600   1.865  0.00  0.00    +0.096 C 
ATOM      9  C   UNL     1      11.439   4.457  -0.001  0.00  0.00    +0.085 C 
ATOM     10  C   UNL     1      10.361   4.390   1.074  0.00  0.00    +0.028 C 
ENDROOT
BRANCH   7  15
ATOM      1  F   UNL     1      11.904   8.867   7.498  0.00  0.00    -0.205 F 
ATOM      4  N   UNL     1      11.833   5.773   3.730  0.00  0.00    -0.341 N 
ATOM      5  N   UNL     1      10.123   4.603   4.534  0.00  0.00    -0.232 NA
ATOM     15  C   UNL     1      10.981   4.720   3.545  0.00  0.00    +0.113 A 
ATOM     17  C   UNL     1      11.504   6.375   4.917  0.00  0.00    +0.069 A 
ATOM     18  C   UNL     1      10.433   5.626   5.399  0.00  0.00    +0.089 A 
ATOM     19  C   UNL     1      12.034   7.477   5.590  0.00  0.00    +0.066 A 
ATOM     20  C   UNL     1       9.845   5.984   6.623  0.00  0.00    +0.032 A 
ATOM     21  C   UNL     1      11.435   7.818   6.807  0.00  0.00    +0.125 A 
ATOM     22  C   UNL     1      10.360   7.086   7.317  0.00  0.00    +0.040 A 
ATOM     23  H   UNL     1      12.576   6.059   3.105  0.00  0.00    +0.167 HD
ENDBRANCH   7  15
BRANCH   2   6
ATOM      3  N   UNL     1      16.010   5.092  -1.034  0.00  0.00    -0.305 NA
ATOM      6  C   UNL     1      13.661   3.516  -0.280  0.00  0.00    +0.059 C 
ATOM     11  C   UNL     1      14.784   3.835   0.711  0.00  0.00    +0.034 C 
ATOM     12  C   UNL     1      13.609   4.589  -1.372  0.00  0.00    +0.034 C 
ATOM     13  C   UNL     1      16.116   4.038  -0.016  0.00  0.00    +0.085 C 
ATOM     14  C   UNL     1      14.980   4.767  -2.032  0.00  0.00    +0.085 C 
ATOM     16  C   UNL     1      17.301   5.310  -1.684  0.00  0.00    +0.104 C 
ENDBRANCH   2   6
TORSDOF 2
ENDMDL
MODEL 10
REMARK VINA RESULT:      -6.1     16.675     19.873
REMARK  Name = 45784234
REMARK  3 active torsions:
REMARK  status: ('A' for Active; 'I' for Inactive)
REMARK    1  A    between atoms: N_2  and  C_6
REMARK    2  A    between atoms: N_3  and  C_16
REMARK    3  A    between atoms: C_7  and  C_15
REMARK                            x       y       z     vdW  Elec       q    Type
REMARK                         _______ _______ _______ _____ _____    ______ ____
ROOT
ATOM      2  N   UNL     1      12.039   4.716   1.309  0.00  0.00    -0.299 NA
ATOM      7  C   UNL     1      10.321   4.754   2.903  0.00  0.00    +0.070 C 
ATOM      8  C   UNL     1      11.780   4.327   2.696  0.00  0.00    +0.096 C 
ATOM      9  C   UNL     1      11.434   6.042   1.170  0.00  0.00    +0.085 C 
ATOM     10  C   UNL     1      10.095   5.878   1.876  0.00  0.00    +0.028 C 
ENDROOT
BRANCH   7  15
ATOM      1  F   UNL     1       9.380   5.026  10.101  0.00  0.00    -0.205 F 
ATOM      4  N   UNL     1      10.216   4.252   5.360  0.00  0.00    -0.341 N 
ATOM      5  N   UNL     1       9.547   6.285   4.761  0.00  0.00    -0.232 NA
ATOM     15  C   UNL     1      10.015   5.133   4.334  0.00  0.00    +0.113 A 
ATOM     17  C   UNL     1       9.852   4.876   6.525  0.00  0.00    +0.069 A 
ATOM     18  C   UNL     1       9.439   6.144   6.125  0.00  0.00    +0.089 A 
ATOM     19  C   UNL     1       9.850   4.454   7.856  0.00  0.00    +0.066 A 
ATOM     20  C   UNL     1       8.994   7.057   7.094  0.00  0.00    +0.032 A 
ATOM     21  C   UNL     1       9.404   5.377   8.808  0.00  0.00    +0.125 A 
ATOM     22  C   UNL     1       8.982   6.656   8.437  0.00  0.00    +0.040 A 
ATOM     23  H   UNL     1      10.569   3.307   5.278  0.00  0.00    +0.167 HD
ENDBRANCH   7  15
BRANCH   2   6
ATOM      3  N   UNL     1      15.647   5.517  -0.792  0.00  0.00    -0.305 NA
ATOM      6  C   UNL     1      13.465   4.720   0.989  0.00  0.00    +0.059 C 
ATOM     11  C   UNL     1      13.993   6.156   0.934  0.00  0.00    +0.034 C 
ATOM     12  C   UNL     1      13.729   4.016  -0.345  0.00  0.00    +0.034 C 
ATOM     13  C   UNL     1      15.461   6.185   0.503  0.00  0.00    +0.085 C 
ATOM     14  C   UNL     1      15.207   4.115  -0.735  0.00  0.00    +0.085 C 
ATOM     16  C   UNL     1      17.044   5.597  -1.215  0.00  0.00    +0.104 C 
ENDBRANCH   2   6
TORSDOF 2
ENDMDL
