MODEL 1
REMARK VINA RESULT:      -7.9      0.000      0.000
REMARK  Name = 11885115
REMARK  4 active torsions:
REMARK  status: ('A' for Active; 'I' for Inactive)
REMARK    1  A    between atoms: O_3  and  C_29
REMARK    2  A    between atoms: O_3  and  C_30
REMARK    3  A    between atoms: C_15  and  C_18
REMARK    4  A    between atoms: C_16  and  C_19
REMARK                            x       y       z     vdW  Elec       q    Type
REMARK                         _______ _______ _______ _____ _____    ______ ____
ROOT
ATOM      1  O   UNL     1      15.330   6.315  21.598  0.00  0.00    -0.267 OA
ATOM      2  O   UNL     1      12.009   7.349  17.862  0.00  0.00    -0.270 OA
ATOM      4  N   UNL     1      11.680   8.968  19.517  0.00  0.00    -0.297 N 
ATOM      5  N   UNL     1      13.952   8.195  21.570  0.00  0.00    -0.311 N 
ATOM      6  C   UNL     1      11.406   8.041  21.808  0.00  0.00    +0.027 C 
ATOM      7  C   UNL     1      12.477  10.235  21.497  0.00  0.00    +0.054 C 
ATOM      8  C   UNL     1      11.515   9.449  22.385  0.00  0.00    +0.018 C 
ATOM      9  C   UNL     1      10.870   8.093  20.366  0.00  0.00    +0.113 C 
ATOM     10  C   UNL     1      12.781   7.367  21.890  0.00  0.00    +0.130 C 
ATOM     11  C   UNL     1      11.912  10.315  20.064  0.00  0.00    +0.117 C 
ATOM     12  C   UNL     1      13.847   9.585  21.465  0.00  0.00    +0.027 A 
ATOM     13  C   UNL     1      14.948  10.334  21.294  0.00  0.00    +0.022 A 
ATOM     14  C   UNL     1      15.191   7.533  21.478  0.00  0.00    +0.259 A 
ATOM     15  C   UNL     1      12.202   8.473  18.320  0.00  0.00    +0.247 C 
ATOM     16  C   UNL     1      16.401   8.396  21.239  0.00  0.00    +0.047 A 
ATOM     17  C   UNL     1      16.242   9.726  21.175  0.00  0.00    +0.015 A 
ENDROOT
BRANCH  15  18
ATOM     18  C   UNL     1      13.082   9.349  17.538  0.00  0.00    +0.037 A 
ATOM     20  C   UNL     1      14.265   9.822  18.099  0.00  0.00    +0.013 A 
ATOM     21  C   UNL     1      12.728   9.703  16.239  0.00  0.00    +0.013 A 
ATOM     24  C   UNL     1      15.102  10.654  17.356  0.00  0.00    +0.001 A 
ATOM     25  C   UNL     1      13.565  10.536  15.495  0.00  0.00    +0.001 A 
ATOM     28  C   UNL     1      14.751  11.011  16.054  0.00  0.00    +0.000 A 
ENDBRANCH  15  18
BRANCH  16  19
ATOM     19  C   UNL     1      17.737   7.802  21.060  0.00  0.00    -0.012 A 
ATOM     22  C   UNL     1      18.853   8.405  21.641  0.00  0.00    +0.012 A 
ATOM     23  C   UNL     1      17.888   6.636  20.308  0.00  0.00    +0.012 A 
ATOM     26  C   UNL     1      20.118   7.843  21.471  0.00  0.00    +0.046 A 
ATOM     27  C   UNL     1      19.152   6.074  20.138  0.00  0.00    +0.046 A 
ATOM     29  C   UNL     1      20.268   6.677  20.719  0.00  0.00    +0.120 A 
BRANCH  29   3
ATOM      3  O   UNL     1      21.502   6.129  20.553  0.00  0.00    -0.495 OA
ATOM     30  C   UNL     1      21.614   4.717  20.723  0.00  0.00    +0.277 C 
ENDBRANCH  29   3
ENDBRANCH  16  19
TORSDOF 3
ENDMDL
MODEL 2
REMARK VINA RESULT:      -7.8     24.941     28.733
REMARK  Name = 11885115
REMARK  4 active torsions:
REMARK  status: ('A' for Active; 'I' for Inactive)
REMARK    1  A    between atoms: O_3  and  C_29
REMARK    2  A    between atoms: O_3  and  C_30
REMARK    3  A    between atoms: C_15  and  C_18
REMARK    4  A    between atoms: C_16  and  C_19
REMARK                            x       y       z     vdW  Elec       q    Type
REMARK                         _______ _______ _______ _____ _____    ______ ____
ROOT
ATOM      1  O   UNL     1     -14.091   8.887  18.023  0.00  0.00    -0.267 OA
ATOM      2  O   UNL     1     -16.513  10.077  22.356  0.00  0.00    -0.270 OA
ATOM      4  N   UNL     1     -15.753   7.877  22.596  0.00  0.00    -0.297 N 
ATOM      5  N   UNL     1     -14.169   7.494  19.891  0.00  0.00    -0.311 N 
ATOM      6  C   UNL     1     -16.335   6.386  20.694  0.00  0.00    +0.027 C 
ATOM      7  C   UNL     1     -14.240   6.024  21.935  0.00  0.00    +0.054 C 
ATOM      8  C   UNL     1     -15.410   5.313  21.260  0.00  0.00    +0.018 C 
ATOM      9  C   UNL     1     -16.851   7.298  21.822  0.00  0.00    +0.113 C 
ATOM     10  C   UNL     1     -15.576   7.171  19.617  0.00  0.00    +0.130 C 
ATOM     11  C   UNL     1     -14.764   6.904  23.088  0.00  0.00    +0.117 C 
ATOM     12  C   UNL     1     -13.480   6.887  20.945  0.00  0.00    +0.027 A 
ATOM     13  C   UNL     1     -12.164   7.100  21.104  0.00  0.00    +0.022 A 
ATOM     14  C   UNL     1     -13.528   8.359  18.983  0.00  0.00    +0.259 A 
ATOM     15  C   UNL     1     -15.687   9.262  22.766  0.00  0.00    +0.247 C 
ATOM     16  C   UNL     1     -12.063   8.616  19.216  0.00  0.00    +0.047 A 
ATOM     17  C   UNL     1     -11.450   7.983  20.227  0.00  0.00    +0.015 A 
ENDROOT
BRANCH  15  18
ATOM     18  C   UNL     1     -14.527   9.816  23.472  0.00  0.00    +0.037 A 
ATOM     20  C   UNL     1     -14.560   9.954  24.857  0.00  0.00    +0.013 A 
ATOM     21  C   UNL     1     -13.399  10.201  22.753  0.00  0.00    +0.013 A 
ATOM     24  C   UNL     1     -13.457  10.480  25.529  0.00  0.00    +0.001 A 
ATOM     25  C   UNL     1     -12.295  10.729  23.424  0.00  0.00    +0.001 A 
ATOM     28  C   UNL     1     -12.324  10.868  24.812  0.00  0.00    +0.000 A 
ENDBRANCH  15  18
BRANCH  16  19
ATOM     19  C   UNL     1     -11.311   9.555  18.368  0.00  0.00    -0.012 A 
ATOM     22  C   UNL     1     -11.113  10.871  18.787  0.00  0.00    +0.012 A 
ATOM     23  C   UNL     1     -10.795   9.131  17.142  0.00  0.00    +0.012 A 
ATOM     26  C   UNL     1     -10.401  11.761  17.983  0.00  0.00    +0.046 A 
ATOM     27  C   UNL     1     -10.082  10.019  16.339  0.00  0.00    +0.046 A 
ATOM     29  C   UNL     1      -9.885  11.335  16.758  0.00  0.00    +0.120 A 
BRANCH  29   3
ATOM      3  O   UNL     1      -9.191  12.203  15.975  0.00  0.00    -0.495 OA
ATOM     30  C   UNL     1      -8.395  13.184  16.639  0.00  0.00    +0.277 C 
ENDBRANCH  29   3
ENDBRANCH  16  19
TORSDOF 3
ENDMDL
MODEL 3
REMARK VINA RESULT:      -7.7     14.487     18.549
REMARK  Name = 11885115
REMARK  4 active torsions:
REMARK  status: ('A' for Active; 'I' for Inactive)
REMARK    1  A    between atoms: O_3  and  C_29
REMARK    2  A    between atoms: O_3  and  C_30
REMARK    3  A    between atoms: C_15  and  C_18
REMARK    4  A    between atoms: C_16  and  C_19
REMARK                            x       y       z     vdW  Elec       q    Type
REMARK                         _______ _______ _______ _____ _____    ______ ____
ROOT
ATOM      1  O   UNL     1       8.388   7.056   4.009  0.00  0.00    -0.267 OA
ATOM      2  O   UNL     1       9.315   4.996  -0.569  0.00  0.00    -0.270 OA
ATOM      4  N   UNL     1      10.542   6.986  -0.469  0.00  0.00    -0.297 N 
ATOM      5  N   UNL     1       9.926   7.920   2.484  0.00  0.00    -0.311 N 
ATOM      6  C   UNL     1       9.218   8.963   0.254  0.00  0.00    +0.027 C 
ATOM      7  C   UNL     1      11.606   8.812   0.833  0.00  0.00    +0.054 C 
ATOM      8  C   UNL     1      10.505   9.770   0.383  0.00  0.00    +0.018 C 
ATOM      9  C   UNL     1       9.393   7.837  -0.782  0.00  0.00    +0.113 C 
ATOM     10  C   UNL     1       8.835   8.421   1.637  0.00  0.00    +0.130 C 
ATOM     11  C   UNL     1      11.800   7.711  -0.230  0.00  0.00    +0.117 C 
ATOM     12  C   UNL     1      11.263   8.173   2.166  0.00  0.00    +0.027 A 
ATOM     13  C   UNL     1      12.239   7.814   3.015  0.00  0.00    +0.022 A 
ATOM     14  C   UNL     1       9.555   7.268   3.676  0.00  0.00    +0.259 A 
ATOM     15  C   UNL     1      10.366   5.604  -0.369  0.00  0.00    +0.247 C 
ATOM     16  C   UNL     1      10.674   6.836   4.585  0.00  0.00    +0.047 A 
ATOM     17  C   UNL     1      11.936   7.131   4.239  0.00  0.00    +0.015 A 
ENDROOT
BRANCH  15  18
ATOM     18  C   UNL     1      11.517   4.790   0.032  0.00  0.00    +0.037 A 
ATOM     20  C   UNL     1      12.369   4.268  -0.938  0.00  0.00    +0.013 A 
ATOM     21  C   UNL     1      11.753   4.542   1.382  0.00  0.00    +0.013 A 
ATOM     24  C   UNL     1      13.465   3.494  -0.557  0.00  0.00    +0.001 A 
ATOM     25  C   UNL     1      12.849   3.767   1.765  0.00  0.00    +0.001 A 
ATOM     28  C   UNL     1      13.704   3.243   0.795  0.00  0.00    +0.000 A 
ENDBRANCH  15  18
BRANCH  16  19
ATOM     19  C   UNL     1      10.403   6.087   5.824  0.00  0.00    -0.012 A 
ATOM     22  C   UNL     1      10.508   6.724   7.061  0.00  0.00    +0.012 A 
ATOM     23  C   UNL     1      10.043   4.740   5.762  0.00  0.00    +0.012 A 
ATOM     26  C   UNL     1      10.252   6.014   8.235  0.00  0.00    +0.046 A 
ATOM     27  C   UNL     1       9.786   4.031   6.934  0.00  0.00    +0.046 A 
ATOM     29  C   UNL     1       9.891   4.667   8.172  0.00  0.00    +0.120 A 
BRANCH  29   3
ATOM      3  O   UNL     1       9.642   3.976   9.316  0.00  0.00    -0.495 OA
ATOM     30  C   UNL     1       8.877   4.639  10.322  0.00  0.00    +0.277 C 
ENDBRANCH  29   3
ENDBRANCH  16  19
TORSDOF 3
ENDMDL
MODEL 4
REMARK VINA RESULT:      -7.7      3.251      6.879
REMARK  Name = 11885115
REMARK  4 active torsions:
REMARK  status: ('A' for Active; 'I' for Inactive)
REMARK    1  A    between atoms: O_3  and  C_29
REMARK    2  A    between atoms: O_3  and  C_30
REMARK    3  A    between atoms: C_15  and  C_18
REMARK    4  A    between atoms: C_16  and  C_19
REMARK                            x       y       z     vdW  Elec       q    Type
REMARK                         _______ _______ _______ _____ _____    ______ ____
ROOT
ATOM      1  O   UNL     1      11.033  10.204  21.994  0.00  0.00    -0.267 OA
ATOM      2  O   UNL     1      14.153   6.310  20.919  0.00  0.00    -0.270 OA
ATOM      4  N   UNL     1      14.030   7.623  18.987  0.00  0.00    -0.297 N 
ATOM      5  N   UNL     1      12.216  10.003  19.995  0.00  0.00    -0.311 N 
ATOM      6  C   UNL     1      11.712   8.172  18.275  0.00  0.00    +0.027 C 
ATOM      7  C   UNL     1      13.531   9.777  17.860  0.00  0.00    +0.054 C 
ATOM      8  C   UNL     1      12.265   9.168  17.261  0.00  0.00    +0.018 C 
ATOM      9  C   UNL     1      12.745   7.067  18.560  0.00  0.00    +0.113 C 
ATOM     10  C   UNL     1      11.314   8.933  19.546  0.00  0.00    +0.130 C 
ATOM     11  C   UNL     1      14.575   8.667  18.104  0.00  0.00    +0.117 C 
ATOM     12  C   UNL     1      13.232  10.487  19.167  0.00  0.00    +0.027 A 
ATOM     13  C   UNL     1      13.965  11.546  19.545  0.00  0.00    +0.022 A 
ATOM     14  C   UNL     1      11.939  10.580  21.249  0.00  0.00    +0.259 A 
ATOM     15  C   UNL     1      14.606   7.183  20.181  0.00  0.00    +0.247 C 
ATOM     16  C   UNL     1      12.809  11.735  21.667  0.00  0.00    +0.047 A 
ATOM     17  C   UNL     1      13.750  12.173  20.817  0.00  0.00    +0.015 A 
ENDROOT
BRANCH  15  18
ATOM     18  C   UNL     1      15.849   7.824  20.623  0.00  0.00    +0.037 A 
ATOM     20  C   UNL     1      15.800   9.051  21.279  0.00  0.00    +0.013 A 
ATOM     21  C   UNL     1      17.071   7.202  20.385  0.00  0.00    +0.013 A 
ATOM     24  C   UNL     1      16.981   9.661  21.701  0.00  0.00    +0.001 A 
ATOM     25  C   UNL     1      18.254   7.812  20.805  0.00  0.00    +0.001 A 
ATOM     28  C   UNL     1      18.208   9.042  21.463  0.00  0.00    +0.000 A 
ENDBRANCH  15  18
BRANCH  16  19
ATOM     19  C   UNL     1      12.652  12.370  22.986  0.00  0.00    -0.012 A 
ATOM     22  C   UNL     1      11.876  13.522  23.119  0.00  0.00    +0.012 A 
ATOM     23  C   UNL     1      13.279  11.820  24.105  0.00  0.00    +0.012 A 
ATOM     26  C   UNL     1      11.727  14.123  24.369  0.00  0.00    +0.046 A 
ATOM     27  C   UNL     1      13.131  12.420  25.355  0.00  0.00    +0.046 A 
ATOM     29  C   UNL     1      12.355  13.572  25.487  0.00  0.00    +0.120 A 
BRANCH  29   3
ATOM      3  O   UNL     1      12.210  14.159  26.705  0.00  0.00    -0.495 OA
ATOM     30  C   UNL     1      11.152  15.106  26.849  0.00  0.00    +0.277 C 
ENDBRANCH  29   3
ENDBRANCH  16  19
TORSDOF 3
ENDMDL
MODEL 5
REMARK VINA RESULT:      -7.7     25.869     28.470
REMARK  Name = 11885115
REMARK  4 active torsions:
REMARK  status: ('A' for Active; 'I' for Inactive)
REMARK    1  A    between atoms: O_3  and  C_29
REMARK    2  A    between atoms: O_3  and  C_30
REMARK    3  A    between atoms: C_15  and  C_18
REMARK    4  A    between atoms: C_16  and  C_19
REMARK                            x       y       z     vdW  Elec       q    Type
REMARK                         _______ _______ _______ _____ _____    ______ ____
ROOT
ATOM      1  O   UNL     1     -13.045  10.002  20.529  0.00  0.00    -0.267 OA
ATOM      2  O   UNL     1     -14.438  11.978  16.034  0.00  0.00    -0.270 OA
ATOM      4  N   UNL     1     -12.114  11.722  15.960  0.00  0.00    -0.297 N 
ATOM      5  N   UNL     1     -11.578  10.338  18.748  0.00  0.00    -0.311 N 
ATOM      6  C   UNL     1     -10.923  12.674  17.923  0.00  0.00    +0.027 C 
ATOM      7  C   UNL     1     -10.023  10.679  16.796  0.00  0.00    +0.054 C 
ATOM      8  C   UNL     1      -9.636  11.997  17.464  0.00  0.00    +0.018 C 
ATOM      9  C   UNL     1     -11.846  12.942  16.722  0.00  0.00    +0.113 C 
ATOM     10  C   UNL     1     -11.593  11.788  18.982  0.00  0.00    +0.130 C 
ATOM     11  C   UNL     1     -10.916  10.961  15.570  0.00  0.00    +0.117 C 
ATOM     12  C   UNL     1     -10.763   9.773  17.763  0.00  0.00    +0.027 A 
ATOM     13  C   UNL     1     -10.669   8.439  17.646  0.00  0.00    +0.022 A 
ATOM     14  C   UNL     1     -12.340   9.545  19.627  0.00  0.00    +0.259 A 
ATOM     15  C   UNL     1     -13.435  11.344  15.709  0.00  0.00    +0.247 C 
ATOM     16  C   UNL     1     -12.251   8.054  19.441  0.00  0.00    +0.047 A 
ATOM     17  C   UNL     1     -11.431   7.570  18.497  0.00  0.00    +0.015 A 
ENDROOT
BRANCH  15  18
ATOM     18  C   UNL     1     -13.670  10.071  15.020  0.00  0.00    +0.037 A 
ATOM     20  C   UNL     1     -13.661  10.024  13.629  0.00  0.00    +0.013 A 
ATOM     21  C   UNL     1     -13.900   8.915  15.762  0.00  0.00    +0.013 A 
ATOM     24  C   UNL     1     -13.884   8.814  12.973  0.00  0.00    +0.001 A 
ATOM     25  C   UNL     1     -14.123   7.703  15.107  0.00  0.00    +0.001 A 
ATOM     28  C   UNL     1     -14.115   7.653  13.712  0.00  0.00    +0.000 A 
ENDBRANCH  15  18
BRANCH  16  19
ATOM     19  C   UNL     1     -13.058   7.135  20.261  0.00  0.00    -0.012 A 
ATOM     22  C   UNL     1     -14.441   7.075  20.089  0.00  0.00    +0.012 A 
ATOM     23  C   UNL     1     -12.439   6.323  21.214  0.00  0.00    +0.012 A 
ATOM     26  C   UNL     1     -15.205   6.204  20.866  0.00  0.00    +0.046 A 
ATOM     27  C   UNL     1     -13.202   5.452  21.991  0.00  0.00    +0.046 A 
ATOM     29  C   UNL     1     -14.585   5.392  21.818  0.00  0.00    +0.120 A 
BRANCH  29   3
ATOM      3  O   UNL     1     -15.330   4.544  22.576  0.00  0.00    -0.495 OA
ATOM     30  C   UNL     1     -14.932   4.368  23.935  0.00  0.00    +0.277 C 
ENDBRANCH  29   3
ENDBRANCH  16  19
TORSDOF 3
ENDMDL
MODEL 6
REMARK VINA RESULT:      -7.7     17.275     20.651
REMARK  Name = 11885115
REMARK  4 active torsions:
REMARK  status: ('A' for Active; 'I' for Inactive)
REMARK    1  A    between atoms: O_3  and  C_29
REMARK    2  A    between atoms: O_3  and  C_30
REMARK    3  A    between atoms: C_15  and  C_18
REMARK    4  A    between atoms: C_16  and  C_19
REMARK                            x       y       z     vdW  Elec       q    Type
REMARK                         _______ _______ _______ _____ _____    ______ ____
ROOT
ATOM      1  O   UNL     1      12.254   7.649   2.915  0.00  0.00    -0.267 OA
ATOM      2  O   UNL     1      13.594   6.744  -1.926  0.00  0.00    -0.270 OA
ATOM      4  N   UNL     1      13.807   4.715  -0.783  0.00  0.00    -0.297 N 
ATOM      5  N   UNL     1      12.755   5.530   2.081  0.00  0.00    -0.311 N 
ATOM      6  C   UNL     1      15.113   4.867   1.328  0.00  0.00    +0.027 C 
ATOM      7  C   UNL     1      13.267   3.248   1.146  0.00  0.00    +0.054 C 
ATOM      8  C   UNL     1      14.679   3.451   1.692  0.00  0.00    +0.018 C 
ATOM      9  C   UNL     1      15.106   5.054  -0.200  0.00  0.00    +0.113 C 
ATOM     10  C   UNL     1      14.185   5.863   2.036  0.00  0.00    +0.130 C 
ATOM     11  C   UNL     1      13.279   3.398  -0.389  0.00  0.00    +0.117 C 
ATOM     12  C   UNL     1      12.300   4.252   1.745  0.00  0.00    +0.027 A 
ATOM     13  C   UNL     1      11.007   3.929   1.911  0.00  0.00    +0.022 A 
ATOM     14  C   UNL     1      11.888   6.522   2.577  0.00  0.00    +0.259 A 
ATOM     15  C   UNL     1      13.155   5.644  -1.596  0.00  0.00    +0.247 C 
ATOM     16  C   UNL     1      10.436   6.146   2.706  0.00  0.00    +0.047 A 
ATOM     17  C   UNL     1      10.064   4.896   2.394  0.00  0.00    +0.015 A 
ENDROOT
BRANCH  15  18
ATOM     18  C   UNL     1      11.816   5.307  -2.091  0.00  0.00    +0.037 A 
ATOM     20  C   UNL     1      11.675   4.615  -3.291  0.00  0.00    +0.013 A 
ATOM     21  C   UNL     1      10.693   5.682  -1.358  0.00  0.00    +0.013 A 
ATOM     24  C   UNL     1      10.402   4.294  -3.762  0.00  0.00    +0.001 A 
ATOM     25  C   UNL     1       9.419   5.361  -1.829  0.00  0.00    +0.001 A 
ATOM     28  C   UNL     1       9.274   4.668  -3.031  0.00  0.00    +0.000 A 
ENDBRANCH  15  18
BRANCH  16  19
ATOM     19  C   UNL     1       9.432   7.127   3.150  0.00  0.00    -0.012 A 
ATOM     22  C   UNL     1       9.013   7.146   4.481  0.00  0.00    +0.012 A 
ATOM     23  C   UNL     1       8.896   8.039   2.239  0.00  0.00    +0.012 A 
ATOM     26  C   UNL     1       8.061   8.074   4.901  0.00  0.00    +0.046 A 
ATOM     27  C   UNL     1       7.945   8.968   2.658  0.00  0.00    +0.046 A 
ATOM     29  C   UNL     1       7.527   8.987   3.989  0.00  0.00    +0.120 A 
BRANCH  29   3
ATOM      3  O   UNL     1       6.598   9.892   4.399  0.00  0.00    -0.495 OA
ATOM     30  C   UNL     1       5.586  10.254   3.461  0.00  0.00    +0.277 C 
ENDBRANCH  29   3
ENDBRANCH  16  19
TORSDOF 3
ENDMDL
MODEL 7
REMARK VINA RESULT:      -7.6      2.004      3.050
REMARK  Name = 11885115
REMARK  4 active torsions:
REMARK  status: ('A' for Active; 'I' for Inactive)
REMARK    1  A    between atoms: O_3  and  C_29
REMARK    2  A    between atoms: O_3  and  C_30
REMARK    3  A    between atoms: C_15  and  C_18
REMARK    4  A    between atoms: C_16  and  C_19
REMARK                            x       y       z     vdW  Elec       q    Type
REMARK                         _______ _______ _______ _____ _____    ______ ____
ROOT
ATOM      1  O   UNL     1      15.964   6.243  18.555  0.00  0.00    -0.267 OA
ATOM      2  O   UNL     1      14.799  10.772  16.509  0.00  0.00    -0.270 OA
ATOM      4  N   UNL     1      13.256  10.397  18.227  0.00  0.00    -0.297 N 
ATOM      5  N   UNL     1      14.322   7.666  19.401  0.00  0.00    -0.311 N 
ATOM      6  C   UNL     1      12.152   8.172  18.135  0.00  0.00    +0.027 C 
ATOM      7  C   UNL     1      12.578   9.237  20.313  0.00  0.00    +0.054 C 
ATOM      8  C   UNL     1      11.564   8.412  19.522  0.00  0.00    +0.018 C 
ATOM      9  C   UNL     1      12.412   9.511  17.424  0.00  0.00    +0.113 C 
ATOM     10  C   UNL     1      13.430   7.336  18.281  0.00  0.00    +0.130 C 
ATOM     11  C   UNL     1      12.802  10.593  19.613  0.00  0.00    +0.117 C 
ATOM     12  C   UNL     1      13.901   8.506  20.436  0.00  0.00    +0.027 A 
ATOM     13  C   UNL     1      14.683   8.697  21.510  0.00  0.00    +0.022 A 
ATOM     14  C   UNL     1      15.570   7.016  19.430  0.00  0.00    +0.259 A 
ATOM     15  C   UNL     1      14.417  10.934  17.667  0.00  0.00    +0.247 C 
ATOM     16  C   UNL     1      16.444   7.288  20.625  0.00  0.00    +0.047 A 
ATOM     17  C   UNL     1      15.975   8.081  21.600  0.00  0.00    +0.015 A 
ENDROOT
BRANCH  15  18
ATOM     18  C   UNL     1      15.285  11.746  18.526  0.00  0.00    +0.037 A 
ATOM     20  C   UNL     1      15.173  13.133  18.511  0.00  0.00    +0.013 A 
ATOM     21  C   UNL     1      16.219  11.124  19.351  0.00  0.00    +0.013 A 
ATOM     24  C   UNL     1      15.998  13.906  19.328  0.00  0.00    +0.001 A 
ATOM     25  C   UNL     1      17.045  11.897  20.169  0.00  0.00    +0.001 A 
ATOM     28  C   UNL     1      16.934  13.287  20.157  0.00  0.00    +0.000 A 
ENDBRANCH  15  18
BRANCH  16  19
ATOM     19  C   UNL     1      17.797   6.714  20.726  0.00  0.00    -0.012 A 
ATOM     22  C   UNL     1      18.180   5.675  19.877  0.00  0.00    +0.012 A 
ATOM     23  C   UNL     1      18.696   7.208  21.672  0.00  0.00    +0.012 A 
ATOM     26  C   UNL     1      19.461   5.131  19.973  0.00  0.00    +0.046 A 
ATOM     27  C   UNL     1      19.977   6.665  21.768  0.00  0.00    +0.046 A 
ATOM     29  C   UNL     1      20.360   5.626  20.919  0.00  0.00    +0.120 A 
BRANCH  29   3
ATOM      3  O   UNL     1      21.608   5.095  21.012  0.00  0.00    -0.495 OA
ATOM     30  C   UNL     1      21.701   3.684  21.206  0.00  0.00    +0.277 C 
ENDBRANCH  29   3
ENDBRANCH  16  19
TORSDOF 3
ENDMDL
MODEL 8
REMARK VINA RESULT:      -7.5     27.890     31.433
REMARK  Name = 11885115
REMARK  4 active torsions:
REMARK  status: ('A' for Active; 'I' for Inactive)
REMARK    1  A    between atoms: O_3  and  C_29
REMARK    2  A    between atoms: O_3  and  C_30
REMARK    3  A    between atoms: C_15  and  C_18
REMARK    4  A    between atoms: C_16  and  C_19
REMARK                            x       y       z     vdW  Elec       q    Type
REMARK                         _______ _______ _______ _____ _____    ______ ____
ROOT
ATOM      1  O   UNL     1     -11.315  -9.593  18.389  0.00  0.00    -0.267 OA
ATOM      2  O   UNL     1      -6.706 -10.618  20.327  0.00  0.00    -0.270 OA
ATOM      4  N   UNL     1      -7.414 -12.556  19.225  0.00  0.00    -0.297 N 
ATOM      5  N   UNL     1     -10.154 -11.577  17.997  0.00  0.00    -0.311 N 
ATOM      6  C   UNL     1      -9.706 -13.298  19.841  0.00  0.00    +0.027 C 
ATOM      7  C   UNL     1      -8.863 -13.695  17.562  0.00  0.00    +0.054 C 
ATOM      8  C   UNL     1      -9.680 -14.308  18.698  0.00  0.00    +0.018 C 
ATOM      9  C   UNL     1      -8.275 -12.997  20.323  0.00  0.00    +0.113 C 
ATOM     10  C   UNL     1     -10.433 -12.034  19.365  0.00  0.00    +0.130 C 
ATOM     11  C   UNL     1      -7.421 -13.434  18.044  0.00  0.00    +0.117 C 
ATOM     12  C   UNL     1      -9.480 -12.394  17.085  0.00  0.00    +0.027 A 
ATOM     13  C   UNL     1      -9.344 -12.010  15.806  0.00  0.00    +0.022 A 
ATOM     14  C   UNL     1     -10.687 -10.328  17.625  0.00  0.00    +0.259 A 
ATOM     15  C   UNL     1      -6.713 -11.353  19.342  0.00  0.00    +0.247 C 
ATOM     16  C   UNL     1     -10.476  -9.903  16.196  0.00  0.00    +0.047 A 
ATOM     17  C   UNL     1      -9.846 -10.742  15.361  0.00  0.00    +0.015 A 
ENDROOT
BRANCH  15  18
ATOM     18  C   UNL     1      -5.930 -10.897  18.189  0.00  0.00    +0.037 A 
ATOM     20  C   UNL     1      -4.602 -11.293  18.053  0.00  0.00    +0.013 A 
ATOM     21  C   UNL     1      -6.519 -10.070  17.235  0.00  0.00    +0.013 A 
ATOM     24  C   UNL     1      -3.857 -10.860  16.956  0.00  0.00    +0.001 A 
ATOM     25  C   UNL     1      -5.774  -9.636  16.138  0.00  0.00    +0.001 A 
ATOM     28  C   UNL     1      -4.443 -10.031  15.999  0.00  0.00    +0.000 A 
ENDBRANCH  15  18
BRANCH  16  19
ATOM     19  C   UNL     1     -10.933  -8.587  15.717  0.00  0.00    -0.012 A 
ATOM     22  C   UNL     1     -12.074  -8.492  14.920  0.00  0.00    +0.012 A 
ATOM     23  C   UNL     1     -10.224  -7.435  16.060  0.00  0.00    +0.012 A 
ATOM     26  C   UNL     1     -12.505  -7.246  14.465  0.00  0.00    +0.046 A 
ATOM     27  C   UNL     1     -10.656  -6.189  15.607  0.00  0.00    +0.046 A 
ATOM     29  C   UNL     1     -11.796  -6.094  14.809  0.00  0.00    +0.120 A 
BRANCH  29   3
ATOM      3  O   UNL     1     -12.218  -4.879  14.366  0.00  0.00    -0.495 OA
ATOM     30  C   UNL     1     -12.331  -4.706  12.954  0.00  0.00    +0.277 C 
ENDBRANCH  29   3
ENDBRANCH  16  19
TORSDOF 3
ENDMDL
MODEL 9
REMARK VINA RESULT:      -7.4     26.984     30.030
REMARK  Name = 11885115
REMARK  4 active torsions:
REMARK  status: ('A' for Active; 'I' for Inactive)
REMARK    1  A    between atoms: O_3  and  C_29
REMARK    2  A    between atoms: O_3  and  C_30
REMARK    3  A    between atoms: C_15  and  C_18
REMARK    4  A    between atoms: C_16  and  C_19
REMARK                            x       y       z     vdW  Elec       q    Type
REMARK                         _______ _______ _______ _____ _____    ______ ____
ROOT
ATOM      1  O   UNL     1      -6.714 -10.004  14.084  0.00  0.00    -0.267 OA
ATOM      2  O   UNL     1      -4.722 -14.432  12.508  0.00  0.00    -0.270 OA
ATOM      4  N   UNL     1      -2.927 -13.093  13.183  0.00  0.00    -0.297 N 
ATOM      5  N   UNL     1      -4.453 -10.544  14.256  0.00  0.00    -0.311 N 
ATOM      6  C   UNL     1      -2.939 -10.806  12.205  0.00  0.00    +0.027 C 
ATOM      7  C   UNL     1      -2.021 -11.167  14.461  0.00  0.00    +0.054 C 
ATOM      8  C   UNL     1      -1.818 -10.400  13.156  0.00  0.00    +0.018 C 
ATOM      9  C   UNL     1      -2.893 -12.322  11.939  0.00  0.00    +0.113 C 
ATOM     10  C   UNL     1      -4.279 -10.365  12.808  0.00  0.00    +0.130 C 
ATOM     11  C   UNL     1      -1.934 -12.683  14.190  0.00  0.00    +0.117 C 
ATOM     12  C   UNL     1      -3.366 -10.841  15.083  0.00  0.00    +0.027 A 
ATOM     13  C   UNL     1      -3.521 -10.879  16.416  0.00  0.00    +0.022 A 
ATOM     14  C   UNL     1      -5.739 -10.301  14.776  0.00  0.00    +0.259 A 
ATOM     15  C   UNL     1      -3.892 -14.088  13.348  0.00  0.00    +0.247 C 
ATOM     16  C   UNL     1      -5.892 -10.398  16.270  0.00  0.00    +0.047 A 
ATOM     17  C   UNL     1      -4.807 -10.658  17.014  0.00  0.00    +0.015 A 
ENDROOT
BRANCH  15  18
ATOM     18  C   UNL     1      -3.954 -14.780  14.640  0.00  0.00    +0.037 A 
ATOM     20  C   UNL     1      -4.763 -14.280  15.656  0.00  0.00    +0.013 A 
ATOM     21  C   UNL     1      -3.202 -15.935  14.843  0.00  0.00    +0.013 A 
ATOM     24  C   UNL     1      -4.822 -14.937  16.884  0.00  0.00    +0.001 A 
ATOM     25  C   UNL     1      -3.261 -16.594  16.072  0.00  0.00    +0.001 A 
ATOM     28  C   UNL     1      -4.071 -16.094  17.092  0.00  0.00    +0.000 A 
ENDBRANCH  15  18
BRANCH  16  19
ATOM     19  C   UNL     1      -7.206 -10.228  16.913  0.00  0.00    -0.012 A 
ATOM     22  C   UNL     1      -7.858  -8.996  16.855  0.00  0.00    +0.012 A 
ATOM     23  C   UNL     1      -7.799 -11.299  17.583  0.00  0.00    +0.012 A 
ATOM     26  C   UNL     1      -9.102  -8.836  17.465  0.00  0.00    +0.046 A 
ATOM     27  C   UNL     1      -9.042 -11.140  18.192  0.00  0.00    +0.046 A 
ATOM     29  C   UNL     1      -9.695  -9.908  18.134  0.00  0.00    +0.120 A 
BRANCH  29   3
ATOM      3  O   UNL     1     -10.908  -9.751  18.729  0.00  0.00    -0.495 OA
ATOM     30  C   UNL     1     -11.054 -10.265  20.052  0.00  0.00    +0.277 C 
ENDBRANCH  29   3
ENDBRANCH  16  19
TORSDOF 3
ENDMDL
MODEL 10
REMARK VINA RESULT:      -7.3     27.293     30.376
REMARK  Name = 11885115
REMARK  4 active torsions:
REMARK  status: ('A' for Active; 'I' for Inactive)
REMARK    1  A    between atoms: O_3  and  C_29
REMARK    2  A    between atoms: O_3  and  C_30
REMARK    3  A    between atoms: C_15  and  C_18
REMARK    4  A    between atoms: C_16  and  C_19
REMARK                            x       y       z     vdW  Elec       q    Type
REMARK                         _______ _______ _______ _____ _____    ______ ____
ROOT
ATOM      1  O   UNL     1      -6.123 -13.646  16.214  0.00  0.00    -0.267 OA
ATOM      2  O   UNL     1     -11.053 -12.343  15.965  0.00  0.00    -0.270 OA
ATOM      4  N   UNL     1     -10.510 -12.478  18.237  0.00  0.00    -0.297 N 
ATOM      5  N   UNL     1      -7.419 -13.106  18.076  0.00  0.00    -0.311 N 
ATOM      6  C   UNL     1      -9.352 -14.581  18.884  0.00  0.00    +0.027 C 
ATOM      7  C   UNL     1      -8.832 -12.485  20.066  0.00  0.00    +0.054 C 
ATOM      8  C   UNL     1      -9.048 -13.985  20.255  0.00  0.00    +0.018 C 
ATOM      9  C   UNL     1     -10.617 -13.936  18.288  0.00  0.00    +0.113 C 
ATOM     10  C   UNL     1      -8.126 -14.391  17.982  0.00  0.00    +0.130 C 
ATOM     11  C   UNL     1     -10.118 -11.843  19.505  0.00  0.00    +0.117 C 
ATOM     12  C   UNL     1      -7.678 -12.214  19.120  0.00  0.00    +0.027 A 
ATOM     13  C   UNL     1      -6.936 -11.103  19.259  0.00  0.00    +0.022 A 
ATOM     14  C   UNL     1      -6.404 -12.869  17.129  0.00  0.00    +0.259 A 
ATOM     15  C   UNL     1     -10.725 -11.815  17.026  0.00  0.00    +0.247 C 
ATOM     16  C   UNL     1      -5.622 -11.593  17.283  0.00  0.00    +0.047 A 
ATOM     17  C   UNL     1      -5.897 -10.789  18.321  0.00  0.00    +0.015 A 
ENDROOT
BRANCH  15  18
ATOM     18  C   UNL     1     -10.523 -10.363  16.990  0.00  0.00    +0.037 A 
ATOM     20  C   UNL     1     -11.600  -9.508  17.212  0.00  0.00    +0.013 A 
ATOM     21  C   UNL     1      -9.256  -9.846  16.735  0.00  0.00    +0.013 A 
ATOM     24  C   UNL     1     -11.409  -8.127  17.178  0.00  0.00    +0.001 A 
ATOM     25  C   UNL     1      -9.064  -8.464  16.700  0.00  0.00    +0.001 A 
ATOM     28  C   UNL     1     -10.141  -7.605  16.922  0.00  0.00    +0.000 A 
ENDBRANCH  15  18
BRANCH  16  19
ATOM     19  C   UNL     1      -4.584 -11.214  16.310  0.00  0.00    -0.012 A 
ATOM     22  C   UNL     1      -4.931 -10.950  14.984  0.00  0.00    +0.012 A 
ATOM     23  C   UNL     1      -3.251 -11.118  16.712  0.00  0.00    +0.012 A 
ATOM     26  C   UNL     1      -3.948 -10.592  14.062  0.00  0.00    +0.046 A 
ATOM     27  C   UNL     1      -2.267 -10.759  15.792  0.00  0.00    +0.046 A 
ATOM     29  C   UNL     1      -2.615 -10.496  14.466  0.00  0.00    +0.120 A 
BRANCH  29   3
ATOM      3  O   UNL     1      -1.656 -10.147  13.567  0.00  0.00    -0.495 OA
ATOM     30  C   UNL     1      -1.932 -10.405  12.191  0.00  0.00    +0.277 C 
ENDBRANCH  29   3
ENDBRANCH  16  19
TORSDOF 3
ENDMDL
