MODEL 1
REMARK VINA RESULT:      -6.6      0.000      0.000
REMARK  Name = 75536772
REMARK  9 active torsions:
REMARK  status: ('A' for Active; 'I' for Inactive)
REMARK    1  A    between atoms: O_2  and  C_9
REMARK    2  A    between atoms: O_4  and  C_20
REMARK    3  A    between atoms: O_4  and  C_26
REMARK    4  A    between atoms: N_5  and  C_8
REMARK    5  A    between atoms: N_5  and  C_13
REMARK    6  A    between atoms: N_6  and  C_12
REMARK    7  A    between atoms: N_7  and  C_21
REMARK    8  A    between atoms: C_10  and  C_12
REMARK    9  A    between atoms: C_13  and  C_14
REMARK                            x       y       z     vdW  Elec       q    Type
REMARK                         _______ _______ _______ _____ _____    ______ ____
ROOT
ATOM      1  O   UNL     1      12.769  13.352  23.820  0.00  0.00    -0.371 OA
ATOM      8  C   UNL     1      11.315  11.653  23.044  0.00  0.00    +0.111 C 
ATOM      9  C   UNL     1      12.164  11.067  24.157  0.00  0.00    +0.164 C 
ATOM     10  C   UNL     1      13.214  12.138  24.453  0.00  0.00    +0.165 C 
ATOM     11  C   UNL     1      11.450  13.145  23.301  0.00  0.00    +0.181 C 
ENDROOT
BRANCH   9   2
ATOM      2  O   UNL     1      11.327  10.905  25.304  0.00  0.00    -0.388 OA
ATOM     29  H   UNL     1      11.619  11.551  25.970  0.00  0.00    +0.210 HD
ENDBRANCH   9   2
BRANCH   8   5
ATOM      5  N   UNL     1      11.841  11.305  21.725  0.00  0.00    -0.305 NA
ATOM     28  H   UNL     1      11.348  11.845  21.013  0.00  0.00    +0.123 HD
BRANCH   5  13
ATOM     13  C   UNL     1      11.655   9.887  21.443  0.00  0.00    +0.116 C 
BRANCH  13  14
ATOM     14  C   UNL     1      12.063   9.536  20.037  0.00  0.00    -0.033 A 
ATOM     16  C   UNL     1      13.007  10.316  19.369  0.00  0.00    +0.008 A 
ATOM     17  C   UNL     1      11.498   8.429  19.404  0.00  0.00    +0.008 A 
ATOM     18  C   UNL     1      13.386   9.989  18.067  0.00  0.00    +0.046 A 
ATOM     19  C   UNL     1      11.877   8.103  18.102  0.00  0.00    +0.046 A 
ATOM     20  C   UNL     1      12.820   8.882  17.433  0.00  0.00    +0.120 A 
BRANCH  20   4
ATOM      4  O   UNL     1      13.190   8.564  16.163  0.00  0.00    -0.495 OA
ATOM     26  C   UNL     1      14.307   9.264  15.617  0.00  0.00    +0.277 C 
ENDBRANCH  20   4
ENDBRANCH  13  14
ENDBRANCH   5  13
ENDBRANCH   8   5
BRANCH  10  12
ATOM     12  C   UNL     1      14.596  11.797  23.916  0.00  0.00    +0.140 C 
BRANCH  12   6
ATOM      3  O   UNL     1      15.930  10.738  21.613  0.00  0.00    -0.253 OA
ATOM      6  N   UNL     1      14.683  10.417  23.534  0.00  0.00    -0.297 N 
ATOM      7  N   UNL     1      15.274   8.582  22.273  0.00  0.00    -0.269 N 
ATOM     15  C   UNL     1      15.357   9.973  22.385  0.00  0.00    +0.304 C 
ATOM     30  H   UNL     1      14.224   9.728  24.122  0.00  0.00    +0.150 HD
ATOM     31  H   UNL     1      14.760   8.096  23.002  0.00  0.00    +0.156 HD
BRANCH   7  21
ATOM     21  C   UNL     1      15.820   7.760  21.260  0.00  0.00    +0.035 A 
ATOM     22  C   UNL     1      15.024   7.340  20.195  0.00  0.00    +0.023 A 
ATOM     23  C   UNL     1      17.158   7.370  21.326  0.00  0.00    +0.023 A 
ATOM     24  C   UNL     1      15.565   6.529  19.197  0.00  0.00    +0.002 A 
ATOM     25  C   UNL     1      17.699   6.559  20.330  0.00  0.00    +0.002 A 
ATOM     27  C   UNL     1      16.903   6.139  19.264  0.00  0.00    +0.000 A 
ENDBRANCH   7  21
ENDBRANCH  12   6
ENDBRANCH  10  12
TORSDOF 8
ENDMDL
MODEL 2
REMARK VINA RESULT:      -6.5      1.331      1.956
REMARK  Name = 75536772
REMARK  9 active torsions:
REMARK  status: ('A' for Active; 'I' for Inactive)
REMARK    1  A    between atoms: O_2  and  C_9
REMARK    2  A    between atoms: O_4  and  C_20
REMARK    3  A    between atoms: O_4  and  C_26
REMARK    4  A    between atoms: N_5  and  C_8
REMARK    5  A    between atoms: N_5  and  C_13
REMARK    6  A    between atoms: N_6  and  C_12
REMARK    7  A    between atoms: N_7  and  C_21
REMARK    8  A    between atoms: C_10  and  C_12
REMARK    9  A    between atoms: C_13  and  C_14
REMARK                            x       y       z     vdW  Elec       q    Type
REMARK                         _______ _______ _______ _____ _____    ______ ____
ROOT
ATOM      1  O   UNL     1      12.043  13.226  22.939  0.00  0.00    -0.371 OA
ATOM      8  C   UNL     1      10.970  11.326  23.859  0.00  0.00    +0.111 C 
ATOM      9  C   UNL     1      12.462  11.180  24.097  0.00  0.00    +0.164 C 
ATOM     10  C   UNL     1      13.099  12.314  23.294  0.00  0.00    +0.165 C 
ATOM     11  C   UNL     1      10.840  12.819  23.603  0.00  0.00    +0.181 C 
ENDROOT
BRANCH   9   2
ATOM      2  O   UNL     1      12.705  11.400  25.489  0.00  0.00    -0.388 OA
ATOM     29  H   UNL     1      13.667  11.359  25.626  0.00  0.00    +0.210 HD
ENDBRANCH   9   2
BRANCH   8   5
ATOM      5  N   UNL     1      10.533  10.560  22.693  0.00  0.00    -0.305 NA
ATOM     28  H   UNL     1       9.517  10.612  22.618  0.00  0.00    +0.123 HD
BRANCH   5  13
ATOM     13  C   UNL     1      10.919   9.160  22.810  0.00  0.00    +0.116 C 
BRANCH  13  14
ATOM     14  C   UNL     1      11.464   8.618  21.515  0.00  0.00    -0.033 A 
ATOM     16  C   UNL     1      11.901   7.296  21.440  0.00  0.00    +0.008 A 
ATOM     17  C   UNL     1      11.529   9.439  20.389  0.00  0.00    +0.008 A 
ATOM     18  C   UNL     1      12.404   6.794  20.240  0.00  0.00    +0.046 A 
ATOM     19  C   UNL     1      12.032   8.937  19.189  0.00  0.00    +0.046 A 
ATOM     20  C   UNL     1      12.469   7.614  19.114  0.00  0.00    +0.120 A 
BRANCH  20   4
ATOM      4  O   UNL     1      12.960   7.124  17.944  0.00  0.00    -0.495 OA
ATOM     26  C   UNL     1      13.706   8.023  17.125  0.00  0.00    +0.277 C 
ENDBRANCH  20   4
ENDBRANCH  13  14
ENDBRANCH   5  13
ENDBRANCH   8   5
BRANCH  10  12
ATOM     12  C   UNL     1      13.777  11.846  22.015  0.00  0.00    +0.140 C 
BRANCH  12   6
ATOM      3  O   UNL     1      15.493  10.492  20.164  0.00  0.00    -0.253 OA
ATOM      6  N   UNL     1      14.353  10.542  22.177  0.00  0.00    -0.297 N 
ATOM      7  N   UNL     1      15.598   8.677  21.650  0.00  0.00    -0.269 N 
ATOM     15  C   UNL     1      15.189   9.943  21.220  0.00  0.00    +0.304 C 
ATOM     30  H   UNL     1      14.138  10.025  23.022  0.00  0.00    +0.150 HD
ATOM     31  H   UNL     1      15.255   8.370  22.556  0.00  0.00    +0.156 HD
BRANCH   7  21
ATOM     21  C   UNL     1      16.439   7.762  20.975  0.00  0.00    +0.035 A 
ATOM     22  C   UNL     1      17.773   7.624  21.359  0.00  0.00    +0.023 A 
ATOM     23  C   UNL     1      15.934   6.996  19.924  0.00  0.00    +0.023 A 
ATOM     24  C   UNL     1      18.601   6.722  20.692  0.00  0.00    +0.002 A 
ATOM     25  C   UNL     1      16.762   6.095  19.256  0.00  0.00    +0.002 A 
ATOM     27  C   UNL     1      18.096   5.956  19.640  0.00  0.00    +0.000 A 
ENDBRANCH   7  21
ENDBRANCH  12   6
ENDBRANCH  10  12
TORSDOF 8
ENDMDL
MODEL 3
REMARK VINA RESULT:      -6.1     27.380     29.672
REMARK  Name = 75536772
REMARK  9 active torsions:
REMARK  status: ('A' for Active; 'I' for Inactive)
REMARK    1  A    between atoms: O_2  and  C_9
REMARK    2  A    between atoms: O_4  and  C_20
REMARK    3  A    between atoms: O_4  and  C_26
REMARK    4  A    between atoms: N_5  and  C_8
REMARK    5  A    between atoms: N_5  and  C_13
REMARK    6  A    between atoms: N_6  and  C_12
REMARK    7  A    between atoms: N_7  and  C_21
REMARK    8  A    between atoms: C_10  and  C_12
REMARK    9  A    between atoms: C_13  and  C_14
REMARK                            x       y       z     vdW  Elec       q    Type
REMARK                         _______ _______ _______ _____ _____    ______ ____
ROOT
ATOM      1  O   UNL     1     -17.645   5.301  23.358  0.00  0.00    -0.371 OA
ATOM      8  C   UNL     1     -15.416   4.770  22.762  0.00  0.00    +0.111 C 
ATOM      9  C   UNL     1     -15.872   3.763  23.803  0.00  0.00    +0.164 C 
ATOM     10  C   UNL     1     -17.219   4.294  24.296  0.00  0.00    +0.165 C 
ATOM     11  C   UNL     1     -16.741   5.308  22.247  0.00  0.00    +0.181 C 
ENDROOT
BRANCH   9   2
ATOM      2  O   UNL     1     -16.078   2.514  23.140  0.00  0.00    -0.388 OA
ATOM     29  H   UNL     1     -16.743   2.659  22.446  0.00  0.00    +0.210 HD
ENDBRANCH   9   2
BRANCH   8   5
ATOM      5  N   UNL     1     -14.619   5.839  23.360  0.00  0.00    -0.305 NA
ATOM     28  H   UNL     1     -14.861   5.928  24.347  0.00  0.00    +0.123 HD
BRANCH   5  13
ATOM     13  C   UNL     1     -14.875   7.114  22.702  0.00  0.00    +0.116 C 
BRANCH  13  14
ATOM     14  C   UNL     1     -13.702   7.563  21.871  0.00  0.00    -0.033 A 
ATOM     16  C   UNL     1     -12.876   6.619  21.263  0.00  0.00    +0.008 A 
ATOM     17  C   UNL     1     -13.444   8.924  21.709  0.00  0.00    +0.008 A 
ATOM     18  C   UNL     1     -11.791   7.035  20.492  0.00  0.00    +0.046 A 
ATOM     19  C   UNL     1     -12.358   9.340  20.939  0.00  0.00    +0.046 A 
ATOM     20  C   UNL     1     -11.532   8.396  20.330  0.00  0.00    +0.120 A 
BRANCH  20   4
ATOM      4  O   UNL     1     -10.473   8.802  19.578  0.00  0.00    -0.495 OA
ATOM     26  C   UNL     1     -10.627  10.013  18.840  0.00  0.00    +0.277 C 
ENDBRANCH  20   4
ENDBRANCH  13  14
ENDBRANCH   5  13
ENDBRANCH   8   5
BRANCH  10  12
ATOM     12  C   UNL     1     -17.154   4.925  25.678  0.00  0.00    +0.140 C 
BRANCH  12   6
ATOM      3  O   UNL     1     -17.514   3.605  28.195  0.00  0.00    -0.253 OA
ATOM      6  N   UNL     1     -16.132   4.317  26.482  0.00  0.00    -0.297 N 
ATOM      7  N   UNL     1     -15.204   3.188  28.263  0.00  0.00    -0.269 N 
ATOM     15  C   UNL     1     -16.388   3.686  27.710  0.00  0.00    +0.304 C 
ATOM     30  H   UNL     1     -15.174   4.353  26.148  0.00  0.00    +0.150 HD
ATOM     31  H   UNL     1     -14.353   3.340  27.728  0.00  0.00    +0.156 HD
BRANCH   7  21
ATOM     21  C   UNL     1     -15.042   2.492  29.483  0.00  0.00    +0.035 A 
ATOM     22  C   UNL     1     -15.317   1.127  29.551  0.00  0.00    +0.023 A 
ATOM     23  C   UNL     1     -14.607   3.173  30.621  0.00  0.00    +0.023 A 
ATOM     24  C   UNL     1     -15.158   0.442  30.756  0.00  0.00    +0.002 A 
ATOM     25  C   UNL     1     -14.449   2.490  31.825  0.00  0.00    +0.002 A 
ATOM     27  C   UNL     1     -14.723   1.123  31.893  0.00  0.00    +0.000 A 
ENDBRANCH   7  21
ENDBRANCH  12   6
ENDBRANCH  10  12
TORSDOF 8
ENDMDL
MODEL 4
REMARK VINA RESULT:      -5.9     14.218     18.407
REMARK  Name = 75536772
REMARK  9 active torsions:
REMARK  status: ('A' for Active; 'I' for Inactive)
REMARK    1  A    between atoms: O_2  and  C_9
REMARK    2  A    between atoms: O_4  and  C_20
REMARK    3  A    between atoms: O_4  and  C_26
REMARK    4  A    between atoms: N_5  and  C_8
REMARK    5  A    between atoms: N_5  and  C_13
REMARK    6  A    between atoms: N_6  and  C_12
REMARK    7  A    between atoms: N_7  and  C_21
REMARK    8  A    between atoms: C_10  and  C_12
REMARK    9  A    between atoms: C_13  and  C_14
REMARK                            x       y       z     vdW  Elec       q    Type
REMARK                         _______ _______ _______ _____ _____    ______ ____
ROOT
ATOM      1  O   UNL     1      13.153   2.818   1.666  0.00  0.00    -0.371 OA
ATOM      8  C   UNL     1      11.311   4.238   2.107  0.00  0.00    +0.111 C 
ATOM      9  C   UNL     1      11.757   4.484   0.677  0.00  0.00    +0.164 C 
ATOM     10  C   UNL     1      13.067   3.708   0.537  0.00  0.00    +0.165 C 
ATOM     11  C   UNL     1      11.921   2.876   2.394  0.00  0.00    +0.181 C 
ENDROOT
BRANCH   9   2
ATOM      2  O   UNL     1      10.779   3.907  -0.190  0.00  0.00    -0.388 OA
ATOM     29  H   UNL     1       9.905   4.190   0.129  0.00  0.00    +0.210 HD
ENDBRANCH   9   2
BRANCH   8   5
ATOM      5  N   UNL     1      11.845   5.247   3.019  0.00  0.00    -0.305 NA
ATOM     28  H   UNL     1      12.356   4.784   3.771  0.00  0.00    +0.123 HD
BRANCH   5  13
ATOM     13  C   UNL     1      10.775   6.042   3.607  0.00  0.00    +0.116 C 
BRANCH  13  14
ATOM     14  C   UNL     1      10.700   5.866   5.101  0.00  0.00    -0.033 A 
ATOM     16  C   UNL     1      11.546   6.596   5.934  0.00  0.00    +0.008 A 
ATOM     17  C   UNL     1       9.781   4.972   5.651  0.00  0.00    +0.008 A 
ATOM     18  C   UNL     1      11.476   6.433   7.317  0.00  0.00    +0.046 A 
ATOM     19  C   UNL     1       9.710   4.809   7.034  0.00  0.00    +0.046 A 
ATOM     20  C   UNL     1      10.557   5.539   7.867  0.00  0.00    +0.120 A 
BRANCH  20   4
ATOM      4  O   UNL     1      10.488   5.381   9.217  0.00  0.00    -0.495 OA
ATOM     26  C   UNL     1       9.411   4.595   9.724  0.00  0.00    +0.277 C 
ENDBRANCH  20   4
ENDBRANCH  13  14
ENDBRANCH   5  13
ENDBRANCH   8   5
BRANCH  10  12
ATOM     12  C   UNL     1      14.302   4.596   0.534  0.00  0.00    +0.140 C 
BRANCH  12   6
ATOM      3  O   UNL     1      14.909   7.197   1.570  0.00  0.00    -0.253 OA
ATOM      6  N   UNL     1      14.722   4.910   1.870  0.00  0.00    -0.297 N 
ATOM      7  N   UNL     1      15.387   6.214   3.649  0.00  0.00    -0.269 N 
ATOM     15  C   UNL     1      15.003   6.216   2.305  0.00  0.00    +0.304 C 
ATOM     30  H   UNL     1      14.830   4.148   2.530  0.00  0.00    +0.150 HD
ATOM     31  H   UNL     1      15.412   5.311   4.115  0.00  0.00    +0.156 HD
BRANCH   7  21
ATOM     21  C   UNL     1      15.748   7.323   4.449  0.00  0.00    +0.035 A 
ATOM     22  C   UNL     1      16.966   7.969   4.240  0.00  0.00    +0.023 A 
ATOM     23  C   UNL     1      14.884   7.772   5.449  0.00  0.00    +0.023 A 
ATOM     24  C   UNL     1      17.321   9.062   5.029  0.00  0.00    +0.002 A 
ATOM     25  C   UNL     1      15.239   8.864   6.239  0.00  0.00    +0.002 A 
ATOM     27  C   UNL     1      16.457   9.511   6.029  0.00  0.00    +0.000 A 
ENDBRANCH   7  21
ENDBRANCH  12   6
ENDBRANCH  10  12
TORSDOF 8
ENDMDL
MODEL 5
REMARK VINA RESULT:      -5.9     27.346     29.409
REMARK  Name = 75536772
REMARK  9 active torsions:
REMARK  status: ('A' for Active; 'I' for Inactive)
REMARK    1  A    between atoms: O_2  and  C_9
REMARK    2  A    between atoms: O_4  and  C_20
REMARK    3  A    between atoms: O_4  and  C_26
REMARK    4  A    between atoms: N_5  and  C_8
REMARK    5  A    between atoms: N_5  and  C_13
REMARK    6  A    between atoms: N_6  and  C_12
REMARK    7  A    between atoms: N_7  and  C_21
REMARK    8  A    between atoms: C_10  and  C_12
REMARK    9  A    between atoms: C_13  and  C_14
REMARK                            x       y       z     vdW  Elec       q    Type
REMARK                         _______ _______ _______ _____ _____    ______ ____
ROOT
ATOM      1  O   UNL     1      -2.974 -12.727  12.723  0.00  0.00    -0.371 OA
ATOM      8  C   UNL     1      -4.142 -10.698  12.373  0.00  0.00    +0.111 C 
ATOM      9  C   UNL     1      -2.664 -10.372  12.479  0.00  0.00    +0.164 C 
ATOM     10  C   UNL     1      -2.006 -11.680  12.920  0.00  0.00    +0.165 C 
ATOM     11  C   UNL     1      -4.112 -12.182  12.044  0.00  0.00    +0.181 C 
ENDROOT
BRANCH   9   2
ATOM      2  O   UNL     1      -2.197 -10.033  11.172  0.00  0.00    -0.388 OA
ATOM     29  H   UNL     1      -2.454 -10.757  10.575  0.00  0.00    +0.210 HD
ENDBRANCH   9   2
BRANCH   8   5
ATOM      5  N   UNL     1      -4.839 -10.462  13.636  0.00  0.00    -0.305 NA
ATOM     28  H   UNL     1      -4.224 -10.711  14.411  0.00  0.00    +0.123 HD
BRANCH   5  13
ATOM     13  C   UNL     1      -6.049 -11.268  13.727  0.00  0.00    +0.116 C 
BRANCH  13  14
ATOM     14  C   UNL     1      -6.961 -10.791  14.827  0.00  0.00    -0.033 A 
ATOM     16  C   UNL     1      -6.531  -9.799  15.708  0.00  0.00    +0.008 A 
ATOM     17  C   UNL     1      -8.235 -11.340  14.962  0.00  0.00    +0.008 A 
ATOM     18  C   UNL     1      -7.376  -9.356  16.726  0.00  0.00    +0.046 A 
ATOM     19  C   UNL     1      -9.080 -10.897  15.980  0.00  0.00    +0.046 A 
ATOM     20  C   UNL     1      -8.651  -9.906  16.861  0.00  0.00    +0.120 A 
BRANCH  20   4
ATOM      4  O   UNL     1      -9.475  -9.473  17.854  0.00  0.00    -0.495 OA
ATOM     26  C   UNL     1     -10.316  -8.359  17.561  0.00  0.00    +0.277 C 
ENDBRANCH  20   4
ENDBRANCH  13  14
ENDBRANCH   5  13
ENDBRANCH   8   5
BRANCH  10  12
ATOM     12  C   UNL     1      -1.586 -11.686  14.382  0.00  0.00    +0.140 C 
BRANCH  12   6
ATOM      3  O   UNL     1      -3.344 -10.511  16.314  0.00  0.00    -0.253 OA
ATOM      6  N   UNL     1      -2.546 -12.373  15.197  0.00  0.00    -0.297 N 
ATOM      7  N   UNL     1      -4.206 -12.647  16.772  0.00  0.00    -0.269 N 
ATOM     15  C   UNL     1      -3.376 -11.725  16.127  0.00  0.00    +0.304 C 
ATOM     30  H   UNL     1      -2.621 -13.381  15.103  0.00  0.00    +0.150 HD
ATOM     31  H   UNL     1      -4.105 -13.620  16.497  0.00  0.00    +0.156 HD
BRANCH   7  21
ATOM     21  C   UNL     1      -5.177 -12.391  17.767  0.00  0.00    +0.035 A 
ATOM     22  C   UNL     1      -4.905 -11.485  18.792  0.00  0.00    +0.023 A 
ATOM     23  C   UNL     1      -6.408 -13.045  17.724  0.00  0.00    +0.023 A 
ATOM     24  C   UNL     1      -5.863 -11.234  19.774  0.00  0.00    +0.002 A 
ATOM     25  C   UNL     1      -7.366 -12.795  18.705  0.00  0.00    +0.002 A 
ATOM     27  C   UNL     1      -7.095 -11.888  19.730  0.00  0.00    +0.000 A 
ENDBRANCH   7  21
ENDBRANCH  12   6
ENDBRANCH  10  12
TORSDOF 8
ENDMDL
MODEL 6
REMARK VINA RESULT:      -5.8     27.193     28.983
REMARK  Name = 75536772
REMARK  9 active torsions:
REMARK  status: ('A' for Active; 'I' for Inactive)
REMARK    1  A    between atoms: O_2  and  C_9
REMARK    2  A    between atoms: O_4  and  C_20
REMARK    3  A    between atoms: O_4  and  C_26
REMARK    4  A    between atoms: N_5  and  C_8
REMARK    5  A    between atoms: N_5  and  C_13
REMARK    6  A    between atoms: N_6  and  C_12
REMARK    7  A    between atoms: N_7  and  C_21
REMARK    8  A    between atoms: C_10  and  C_12
REMARK    9  A    between atoms: C_13  and  C_14
REMARK                            x       y       z     vdW  Elec       q    Type
REMARK                         _______ _______ _______ _____ _____    ______ ____
ROOT
ATOM      1  O   UNL     1      -8.800 -11.279  16.994  0.00  0.00    -0.371 OA
ATOM      8  C   UNL     1      -7.242  -9.573  17.511  0.00  0.00    +0.111 C 
ATOM      9  C   UNL     1      -8.441  -8.922  16.845  0.00  0.00    +0.164 C 
ATOM     10  C   UNL     1      -9.292 -10.090  16.346  0.00  0.00    +0.165 C 
ATOM     11  C   UNL     1      -7.822 -10.900  17.970  0.00  0.00    +0.181 C 
ENDROOT
BRANCH   9   2
ATOM      2  O   UNL     1      -9.166  -8.213  17.851  0.00  0.00    -0.388 OA
ATOM     29  H   UNL     1      -9.383  -8.848  18.555  0.00  0.00    +0.210 HD
ENDBRANCH   9   2
BRANCH   8   5
ATOM      5  N   UNL     1      -6.148  -9.785  16.564  0.00  0.00    -0.305 NA
ATOM     28  H   UNL     1      -6.445 -10.453  15.852  0.00  0.00    +0.123 HD
BRANCH   5  13
ATOM     13  C   UNL     1      -4.968 -10.314  17.235  0.00  0.00    +0.116 C 
BRANCH  13  14
ATOM     14  C   UNL     1      -4.037 -11.003  16.273  0.00  0.00    -0.033 A 
ATOM     16  C   UNL     1      -4.478 -12.109  15.546  0.00  0.00    +0.008 A 
ATOM     17  C   UNL     1      -2.734 -10.534  16.109  0.00  0.00    +0.008 A 
ATOM     18  C   UNL     1      -3.615 -12.746  14.654  0.00  0.00    +0.046 A 
ATOM     19  C   UNL     1      -1.872 -11.172  15.217  0.00  0.00    +0.046 A 
ATOM     20  C   UNL     1      -2.312 -12.277  14.489  0.00  0.00    +0.120 A 
BRANCH  20   4
ATOM      4  O   UNL     1      -1.471 -12.899  13.619  0.00  0.00    -0.495 OA
ATOM     26  C   UNL     1      -1.863 -14.185  13.143  0.00  0.00    +0.277 C 
ENDBRANCH  20   4
ENDBRANCH  13  14
ENDBRANCH   5  13
ENDBRANCH   8   5
BRANCH  10  12
ATOM     12  C   UNL     1      -9.215 -10.299  14.841  0.00  0.00    +0.140 C 
BRANCH  12   6
ATOM      3  O   UNL     1      -7.461 -11.185  12.757  0.00  0.00    -0.253 OA
ATOM      6  N   UNL     1      -8.125  -9.563  14.268  0.00  0.00    -0.297 N 
ATOM      7  N   UNL     1      -6.332  -9.130  12.888  0.00  0.00    -0.269 N 
ATOM     15  C   UNL     1      -7.306 -10.068  13.244  0.00  0.00    +0.304 C 
ATOM     30  H   UNL     1      -7.931  -8.635  14.627  0.00  0.00    +0.150 HD
ATOM     31  H   UNL     1      -6.342  -8.248  13.391  0.00  0.00    +0.156 HD
BRANCH   7  21
ATOM     21  C   UNL     1      -5.324  -9.259  11.903  0.00  0.00    +0.035 A 
ATOM     22  C   UNL     1      -5.446  -8.591  10.686  0.00  0.00    +0.023 A 
ATOM     23  C   UNL     1      -4.206 -10.056  12.152  0.00  0.00    +0.023 A 
ATOM     24  C   UNL     1      -4.453  -8.719   9.716  0.00  0.00    +0.002 A 
ATOM     25  C   UNL     1      -3.212 -10.185  11.183  0.00  0.00    +0.002 A 
ATOM     27  C   UNL     1      -3.334  -9.516   9.965  0.00  0.00    +0.000 A 
ENDBRANCH   7  21
ENDBRANCH  12   6
ENDBRANCH  10  12
TORSDOF 8
ENDMDL
MODEL 7
REMARK VINA RESULT:      -5.7     14.671     18.272
REMARK  Name = 75536772
REMARK  9 active torsions:
REMARK  status: ('A' for Active; 'I' for Inactive)
REMARK    1  A    between atoms: O_2  and  C_9
REMARK    2  A    between atoms: O_4  and  C_20
REMARK    3  A    between atoms: O_4  and  C_26
REMARK    4  A    between atoms: N_5  and  C_8
REMARK    5  A    between atoms: N_5  and  C_13
REMARK    6  A    between atoms: N_6  and  C_12
REMARK    7  A    between atoms: N_7  and  C_21
REMARK    8  A    between atoms: C_10  and  C_12
REMARK    9  A    between atoms: C_13  and  C_14
REMARK                            x       y       z     vdW  Elec       q    Type
REMARK                         _______ _______ _______ _____ _____    ______ ____
ROOT
ATOM      1  O   UNL     1      10.666   7.881   7.521  0.00  0.00    -0.371 OA
ATOM      8  C   UNL     1       9.126   6.098   7.290  0.00  0.00    +0.111 C 
ATOM      9  C   UNL     1      10.526   5.513   7.251  0.00  0.00    +0.164 C 
ATOM     10  C   UNL     1      11.455   6.725   7.182  0.00  0.00    +0.165 C 
ATOM     11  C   UNL     1       9.370   7.446   7.949  0.00  0.00    +0.181 C 
ENDROOT
BRANCH   9   2
ATOM      2  O   UNL     1      10.747   4.826   8.485  0.00  0.00    -0.388 OA
ATOM     29  H   UNL     1      11.423   4.146   8.322  0.00  0.00    +0.210 HD
ENDBRANCH   9   2
BRANCH   8   5
ATOM      5  N   UNL     1       8.576   6.269   5.947  0.00  0.00    -0.305 NA
ATOM     28  H   UNL     1       9.325   6.170   5.261  0.00  0.00    +0.123 HD
BRANCH   5  13
ATOM     13  C   UNL     1       7.975   7.587   5.791  0.00  0.00    +0.116 C 
BRANCH  13  14
ATOM     14  C   UNL     1       8.055   8.076   4.369  0.00  0.00    -0.033 A 
ATOM     16  C   UNL     1       7.289   9.168   3.961  0.00  0.00    +0.008 A 
ATOM     17  C   UNL     1       8.896   7.435   3.459  0.00  0.00    +0.008 A 
ATOM     18  C   UNL     1       7.364   9.620   2.644  0.00  0.00    +0.046 A 
ATOM     19  C   UNL     1       8.971   7.888   2.142  0.00  0.00    +0.046 A 
ATOM     20  C   UNL     1       8.206   8.980   1.734  0.00  0.00    +0.120 A 
BRANCH  20   4
ATOM      4  O   UNL     1       8.279   9.422   0.449  0.00  0.00    -0.495 OA
ATOM     26  C   UNL     1       9.479   9.137  -0.268  0.00  0.00    +0.277 C 
ENDBRANCH  20   4
ENDBRANCH  13  14
ENDBRANCH   5  13
ENDBRANCH   8   5
BRANCH  10  12
ATOM     12  C   UNL     1      12.062   6.948   5.805  0.00  0.00    +0.140 C 
BRANCH  12   6
ATOM      3  O   UNL     1      12.588   6.829   2.992  0.00  0.00    -0.253 OA
ATOM      6  N   UNL     1      11.776   5.851   4.925  0.00  0.00    -0.297 N 
ATOM      7  N   UNL     1      11.677   4.664   2.953  0.00  0.00    -0.269 N 
ATOM     15  C   UNL     1      12.065   5.867   3.551  0.00  0.00    +0.304 C 
ATOM     30  H   UNL     1      11.335   5.025   5.316  0.00  0.00    +0.150 HD
ATOM     31  H   UNL     1      11.257   3.968   3.562  0.00  0.00    +0.156 HD
BRANCH   7  21
ATOM     21  C   UNL     1      11.799   4.293   1.594  0.00  0.00    +0.035 A 
ATOM     22  C   UNL     1      12.924   3.596   1.157  0.00  0.00    +0.023 A 
ATOM     23  C   UNL     1      10.790   4.625   0.689  0.00  0.00    +0.023 A 
ATOM     24  C   UNL     1      13.043   3.231  -0.183  0.00  0.00    +0.002 A 
ATOM     25  C   UNL     1      10.908   4.261  -0.652  0.00  0.00    +0.002 A 
ATOM     27  C   UNL     1      12.034   3.563  -1.089  0.00  0.00    +0.000 A 
ENDBRANCH   7  21
ENDBRANCH  12   6
ENDBRANCH  10  12
TORSDOF 8
ENDMDL
MODEL 8
REMARK VINA RESULT:      -5.7     14.885     18.770
REMARK  Name = 75536772
REMARK  9 active torsions:
REMARK  status: ('A' for Active; 'I' for Inactive)
REMARK    1  A    between atoms: O_2  and  C_9
REMARK    2  A    between atoms: O_4  and  C_20
REMARK    3  A    between atoms: O_4  and  C_26
REMARK    4  A    between atoms: N_5  and  C_8
REMARK    5  A    between atoms: N_5  and  C_13
REMARK    6  A    between atoms: N_6  and  C_12
REMARK    7  A    between atoms: N_7  and  C_21
REMARK    8  A    between atoms: C_10  and  C_12
REMARK    9  A    between atoms: C_13  and  C_14
REMARK                            x       y       z     vdW  Elec       q    Type
REMARK                         _______ _______ _______ _____ _____    ______ ____
ROOT
ATOM      1  O   UNL     1      13.569   4.854  -0.046  0.00  0.00    -0.371 OA
ATOM      8  C   UNL     1      14.866   5.294   1.886  0.00  0.00    +0.111 C 
ATOM      9  C   UNL     1      14.681   3.791   1.781  0.00  0.00    +0.164 C 
ATOM     10  C   UNL     1      13.664   3.600   0.656  0.00  0.00    +0.165 C 
ATOM     11  C   UNL     1      14.569   5.744   0.465  0.00  0.00    +0.181 C 
ENDROOT
BRANCH   9   2
ATOM      2  O   UNL     1      15.930   3.224   1.382  0.00  0.00    -0.388 OA
ATOM     29  H   UNL     1      15.734   2.444   0.835  0.00  0.00    +0.210 HD
ENDBRANCH   9   2
BRANCH   8   5
ATOM      5  N   UNL     1      13.919   5.890   2.827  0.00  0.00    -0.305 NA
ATOM     28  H   UNL     1      13.041   6.081   2.344  0.00  0.00    +0.123 HD
BRANCH   5  13
ATOM     13  C   UNL     1      14.434   7.141   3.367  0.00  0.00    +0.116 C 
BRANCH  13  14
ATOM     14  C   UNL     1      13.571   7.668   4.483  0.00  0.00    -0.033 A 
ATOM     16  C   UNL     1      13.790   7.247   5.794  0.00  0.00    +0.008 A 
ATOM     17  C   UNL     1      12.552   8.579   4.204  0.00  0.00    +0.008 A 
ATOM     18  C   UNL     1      12.991   7.736   6.827  0.00  0.00    +0.046 A 
ATOM     19  C   UNL     1      11.753   9.068   5.238  0.00  0.00    +0.046 A 
ATOM     20  C   UNL     1      11.972   8.647   6.549  0.00  0.00    +0.120 A 
BRANCH  20   4
ATOM      4  O   UNL     1      11.193   9.124   7.557  0.00  0.00    -0.495 OA
ATOM     26  C   UNL     1      10.346  10.232   7.254  0.00  0.00    +0.277 C 
ENDBRANCH  20   4
ENDBRANCH  13  14
ENDBRANCH   5  13
ENDBRANCH   8   5
BRANCH  10  12
ATOM     12  C   UNL     1      12.275   3.222   1.148  0.00  0.00    +0.140 C 
BRANCH  12   6
ATOM      3  O   UNL     1      10.157   4.920   2.062  0.00  0.00    -0.253 OA
ATOM      6  N   UNL     1      12.058   3.674   2.493  0.00  0.00    -0.297 N 
ATOM      7  N   UNL     1      11.036   4.781   4.235  0.00  0.00    -0.269 N 
ATOM     15  C   UNL     1      10.992   4.509   2.865  0.00  0.00    +0.304 C 
ATOM     30  H   UNL     1      12.714   3.381   3.209  0.00  0.00    +0.150 HD
ATOM     31  H   UNL     1      11.797   4.359   4.759  0.00  0.00    +0.156 HD
BRANCH   7  21
ATOM     21  C   UNL     1      10.144   5.578   4.990  0.00  0.00    +0.035 A 
ATOM     22  C   UNL     1      10.067   5.424   6.373  0.00  0.00    +0.023 A 
ATOM     23  C   UNL     1       9.340   6.521   4.348  0.00  0.00    +0.023 A 
ATOM     24  C   UNL     1       9.187   6.210   7.116  0.00  0.00    +0.002 A 
ATOM     25  C   UNL     1       8.459   7.307   5.090  0.00  0.00    +0.002 A 
ATOM     27  C   UNL     1       8.383   7.153   6.475  0.00  0.00    +0.000 A 
ENDBRANCH   7  21
ENDBRANCH  12   6
ENDBRANCH  10  12
TORSDOF 8
ENDMDL
MODEL 9
REMARK VINA RESULT:      -5.6     27.202     29.689
REMARK  Name = 75536772
REMARK  9 active torsions:
REMARK  status: ('A' for Active; 'I' for Inactive)
REMARK    1  A    between atoms: O_2  and  C_9
REMARK    2  A    between atoms: O_4  and  C_20
REMARK    3  A    between atoms: O_4  and  C_26
REMARK    4  A    between atoms: N_5  and  C_8
REMARK    5  A    between atoms: N_5  and  C_13
REMARK    6  A    between atoms: N_6  and  C_12
REMARK    7  A    between atoms: N_7  and  C_21
REMARK    8  A    between atoms: C_10  and  C_12
REMARK    9  A    between atoms: C_13  and  C_14
REMARK                            x       y       z     vdW  Elec       q    Type
REMARK                         _______ _______ _______ _____ _____    ______ ____
ROOT
ATOM      1  O   UNL     1     -15.700   3.711  22.714  0.00  0.00    -0.371 OA
ATOM      8  C   UNL     1     -17.053   4.318  24.559  0.00  0.00    +0.111 C 
ATOM      9  C   UNL     1     -16.915   5.534  23.662  0.00  0.00    +0.164 C 
ATOM     10  C   UNL     1     -15.864   5.139  22.626  0.00  0.00    +0.165 C 
ATOM     11  C   UNL     1     -16.687   3.188  23.611  0.00  0.00    +0.181 C 
ENDROOT
BRANCH   9   2
ATOM      2  O   UNL     1     -18.168   5.734  23.003  0.00  0.00    -0.388 OA
ATOM     29  H   UNL     1     -18.401   6.674  23.101  0.00  0.00    +0.210 HD
ENDBRANCH   9   2
BRANCH   8   5
ATOM      5  N   UNL     1     -16.123   4.370  25.686  0.00  0.00    -0.305 NA
ATOM     28  H   UNL     1     -15.519   3.548  25.662  0.00  0.00    +0.123 HD
BRANCH   5  13
ATOM     13  C   UNL     1     -16.837   4.385  26.956  0.00  0.00    +0.116 C 
BRANCH  13  14
ATOM     14  C   UNL     1     -16.491   3.193  27.808  0.00  0.00    -0.033 A 
ATOM     16  C   UNL     1     -15.432   3.265  28.712  0.00  0.00    +0.008 A 
ATOM     17  C   UNL     1     -17.232   2.017  27.695  0.00  0.00    +0.008 A 
ATOM     18  C   UNL     1     -15.112   2.162  29.503  0.00  0.00    +0.046 A 
ATOM     19  C   UNL     1     -16.913   0.913  28.486  0.00  0.00    +0.046 A 
ATOM     20  C   UNL     1     -15.853   0.986  29.389  0.00  0.00    +0.120 A 
BRANCH  20   4
ATOM      4  O   UNL     1     -15.542  -0.091  30.161  0.00  0.00    -0.495 OA
ATOM     26  C   UNL     1     -14.181  -0.519  30.160  0.00  0.00    +0.277 C 
ENDBRANCH  20   4
ENDBRANCH  13  14
ENDBRANCH   5  13
ENDBRANCH   8   5
BRANCH  10  12
ATOM     12  C   UNL     1     -14.509   5.791  22.855  0.00  0.00    +0.140 C 
BRANCH  12   6
ATOM      3  O   UNL     1     -12.102   6.086  21.331  0.00  0.00    -0.253 OA
ATOM      6  N   UNL     1     -14.238   6.794  21.865  0.00  0.00    -0.297 N 
ATOM      7  N   UNL     1     -13.053   7.949  20.262  0.00  0.00    -0.269 N 
ATOM     15  C   UNL     1     -13.028   6.874  21.157  0.00  0.00    +0.304 C 
ATOM     30  H   UNL     1     -14.956   7.485  21.675  0.00  0.00    +0.150 HD
ATOM     31  H   UNL     1     -13.903   8.505  20.242  0.00  0.00    +0.156 HD
BRANCH   7  21
ATOM     21  C   UNL     1     -12.033   8.361  19.374  0.00  0.00    +0.035 A 
ATOM     22  C   UNL     1     -12.009   7.880  18.066  0.00  0.00    +0.023 A 
ATOM     23  C   UNL     1     -11.049   9.250  19.808  0.00  0.00    +0.023 A 
ATOM     24  C   UNL     1     -11.002   8.286  17.191  0.00  0.00    +0.002 A 
ATOM     25  C   UNL     1     -10.042   9.657  18.934  0.00  0.00    +0.002 A 
ATOM     27  C   UNL     1     -10.018   9.176  17.624  0.00  0.00    +0.000 A 
ENDBRANCH   7  21
ENDBRANCH  12   6
ENDBRANCH  10  12
TORSDOF 8
ENDMDL
MODEL 10
REMARK VINA RESULT:      -5.5     24.084     26.650
REMARK  Name = 75536772
REMARK  9 active torsions:
REMARK  status: ('A' for Active; 'I' for Inactive)
REMARK    1  A    between atoms: O_2  and  C_9
REMARK    2  A    between atoms: O_4  and  C_20
REMARK    3  A    between atoms: O_4  and  C_26
REMARK    4  A    between atoms: N_5  and  C_8
REMARK    5  A    between atoms: N_5  and  C_13
REMARK    6  A    between atoms: N_6  and  C_12
REMARK    7  A    between atoms: N_7  and  C_21
REMARK    8  A    between atoms: C_10  and  C_12
REMARK    9  A    between atoms: C_13  and  C_14
REMARK                            x       y       z     vdW  Elec       q    Type
REMARK                         _______ _______ _______ _____ _____    ______ ____
ROOT
ATOM      1  O   UNL     1     -10.577  12.666  17.541  0.00  0.00    -0.371 OA
ATOM      8  C   UNL     1      -9.802  10.595  16.694  0.00  0.00    +0.111 C 
ATOM      9  C   UNL     1     -11.189  10.841  16.127  0.00  0.00    +0.164 C 
ATOM     10  C   UNL     1     -11.708  12.066  16.881  0.00  0.00    +0.165 C 
ATOM     11  C   UNL     1      -9.385  11.995  17.115  0.00  0.00    +0.181 C 
ENDROOT
BRANCH   9   2
ATOM      2  O   UNL     1     -11.043  11.171  14.745  0.00  0.00    -0.388 OA
ATOM     29  H   UNL     1     -11.732  11.822  14.527  0.00  0.00    +0.210 HD
ENDBRANCH   9   2
BRANCH   8   5
ATOM      5  N   UNL     1      -9.842   9.698  17.847  0.00  0.00    -0.305 NA
ATOM     28  H   UNL     1      -8.888   9.458  18.120  0.00  0.00    +0.123 HD
BRANCH   5  13
ATOM     13  C   UNL     1     -10.556   8.468  17.530  0.00  0.00    +0.116 C 
BRANCH  13  14
ATOM     14  C   UNL     1     -11.555   8.108  18.597  0.00  0.00    -0.033 A 
ATOM     16  C   UNL     1     -12.914   8.048  18.289  0.00  0.00    +0.008 A 
ATOM     17  C   UNL     1     -11.121   7.833  19.894  0.00  0.00    +0.008 A 
ATOM     18  C   UNL     1     -13.840   7.713  19.277  0.00  0.00    +0.046 A 
ATOM     19  C   UNL     1     -12.047   7.499  20.882  0.00  0.00    +0.046 A 
ATOM     20  C   UNL     1     -13.406   7.439  20.574  0.00  0.00    +0.120 A 
BRANCH  20   4
ATOM      4  O   UNL     1     -14.308   7.112  21.538  0.00  0.00    -0.495 OA
ATOM     26  C   UNL     1     -14.199   5.813  22.117  0.00  0.00    +0.277 C 
ENDBRANCH  20   4
ENDBRANCH  13  14
ENDBRANCH   5  13
ENDBRANCH   8   5
BRANCH  10  12
ATOM     12  C   UNL     1     -12.755  11.734  17.933  0.00  0.00    +0.140 C 
BRANCH  12   6
ATOM      3  O   UNL     1     -14.127  11.327  20.414  0.00  0.00    -0.253 OA
ATOM      6  N   UNL     1     -12.156  11.544  19.223  0.00  0.00    -0.297 N 
ATOM      7  N   UNL     1     -12.047  11.192  21.498  0.00  0.00    -0.269 N 
ATOM     15  C   UNL     1     -12.898  11.349  20.399  0.00  0.00    +0.304 C 
ATOM     30  H   UNL     1     -11.143  11.560  19.289  0.00  0.00    +0.150 HD
ATOM     31  H   UNL     1     -11.050  11.237  21.311  0.00  0.00    +0.156 HD
BRANCH   7  21
ATOM     21  C   UNL     1     -12.407  10.977  22.848  0.00  0.00    +0.035 A 
ATOM     22  C   UNL     1     -11.681  11.587  23.871  0.00  0.00    +0.023 A 
ATOM     23  C   UNL     1     -13.490  10.154  23.158  0.00  0.00    +0.023 A 
ATOM     24  C   UNL     1     -12.035  11.373  25.202  0.00  0.00    +0.002 A 
ATOM     25  C   UNL     1     -13.845   9.939  24.489  0.00  0.00    +0.002 A 
ATOM     27  C   UNL     1     -13.118  10.550  25.512  0.00  0.00    +0.000 A 
ENDBRANCH   7  21
ENDBRANCH  12   6
ENDBRANCH  10  12
TORSDOF 8
ENDMDL
