MODEL 1
REMARK VINA RESULT:      -6.8      0.000      0.000
REMARK  Name = 26763048
REMARK  9 active torsions:
REMARK  status: ('A' for Active; 'I' for Inactive)
REMARK    1  A    between atoms: N_7  and  C_12
REMARK    2  A    between atoms: N_8  and  C_21
REMARK    3  A    between atoms: N_8  and  C_22
REMARK    4  A    between atoms: N_9  and  C_23
REMARK    5  A    between atoms: C_11  and  C_16
REMARK    6  A    between atoms: C_16  and  C_18
REMARK    7  A    between atoms: C_18  and  C_20
REMARK    8  A    between atoms: C_21  and  C_24
REMARK    9  A    between atoms: C_22  and  C_25
REMARK                            x       y       z     vdW  Elec       q    Type
REMARK                         _______ _______ _______ _____ _____    ______ ____
ROOT
ATOM      2  O   UNL     1      15.152   6.374  19.511  0.00  0.00    -0.274 OA
ATOM      5  N   UNL     1      12.197   8.297  19.782  0.00  0.00    -0.285 NA
ATOM      6  N   UNL     1      14.028   7.059  21.391  0.00  0.00    -0.313 N 
ATOM     10  C   UNL     1      12.885   7.121  19.239  0.00  0.00    +0.145 C 
ATOM     11  C   UNL     1      11.718   8.016  21.136  0.00  0.00    +0.075 C 
ATOM     12  C   UNL     1      11.922   8.435  17.463  0.00  0.00    +0.090 C 
ATOM     13  C   UNL     1      13.102   7.512  17.784  0.00  0.00    +0.052 C 
ATOM     14  C   UNL     1      11.172   8.610  18.786  0.00  0.00    +0.107 C 
ATOM     15  C   UNL     1      12.961   7.826  22.016  0.00  0.00    +0.123 C 
ATOM     17  C   UNL     1      14.143   6.849  20.030  0.00  0.00    +0.230 C 
ATOM     29  H   UNL     1      14.826   6.816  21.970  0.00  0.00    +0.149 HD
ENDROOT
BRANCH  12   7
ATOM      3  O   UNL     1      13.363   8.847  15.022  0.00  0.00    -0.253 OA
ATOM      7  N   UNL     1      12.378   9.697  16.933  0.00  0.00    -0.295 N 
ATOM      9  N   UNL     1      13.389  11.152  15.471  0.00  0.00    -0.269 N 
ATOM     19  C   UNL     1      13.079   9.813  15.728  0.00  0.00    +0.304 C 
ATOM     30  H   UNL     1      12.247  10.532  17.496  0.00  0.00    +0.151 HD
ATOM     31  H   UNL     1      13.083  11.842  16.153  0.00  0.00    +0.156 HD
BRANCH   9  23
ATOM      1  S   UNL     1      14.585  12.948  12.182  0.00  0.00    -0.103 S 
ATOM     23  C   UNL     1      14.086  11.684  14.361  0.00  0.00    +0.042 A 
ATOM     26  C   UNL     1      15.476  11.501  14.108  0.00  0.00    +0.031 A 
ATOM     27  C   UNL     1      13.479  12.452  13.391  0.00  0.00    +0.068 A 
ATOM     28  C   UNL     1      15.879  12.135  12.954  0.00  0.00    +0.047 A 
ENDBRANCH   9  23
ENDBRANCH  12   7
BRANCH  11  16
ATOM     16  C   UNL     1      10.850   9.139  21.710  0.00  0.00    +0.029 C 
BRANCH  16  18
ATOM     18  C   UNL     1      11.679  10.093  22.563  0.00  0.00    +0.097 C 
BRANCH  18  20
ATOM      4  O   UNL     1      12.101  11.751  20.883  0.00  0.00    -0.276 OA
ATOM      8  N   UNL     1      11.147  12.499  22.861  0.00  0.00    -0.302 N 
ATOM     20  C   UNL     1      11.669  11.514  22.014  0.00  0.00    +0.216 C 
BRANCH   8  21
ATOM     21  C   UNL     1      10.624  12.267  24.206  0.00  0.00    +0.104 C 
ATOM     24  C   UNL     1      11.134  13.303  25.184  0.00  0.00    +0.024 C 
ENDBRANCH   8  21
BRANCH   8  22
ATOM     22  C   UNL     1      11.110  13.885  22.412  0.00  0.00    +0.104 C 
ATOM     25  C   UNL     1       9.763  14.241  21.818  0.00  0.00    +0.024 C 
ENDBRANCH   8  22
ENDBRANCH  18  20
ENDBRANCH  16  18
ENDBRANCH  11  16
TORSDOF 7
ENDMDL
MODEL 2
REMARK VINA RESULT:      -6.2     26.748     28.750
REMARK  Name = 26763048
REMARK  9 active torsions:
REMARK  status: ('A' for Active; 'I' for Inactive)
REMARK    1  A    between atoms: N_7  and  C_12
REMARK    2  A    between atoms: N_8  and  C_21
REMARK    3  A    between atoms: N_8  and  C_22
REMARK    4  A    between atoms: N_9  and  C_23
REMARK    5  A    between atoms: C_11  and  C_16
REMARK    6  A    between atoms: C_16  and  C_18
REMARK    7  A    between atoms: C_18  and  C_20
REMARK    8  A    between atoms: C_21  and  C_24
REMARK    9  A    between atoms: C_22  and  C_25
REMARK                            x       y       z     vdW  Elec       q    Type
REMARK                         _______ _______ _______ _____ _____    ______ ____
ROOT
ATOM      2  O   UNL     1      -5.534 -14.453  16.477  0.00  0.00    -0.274 OA
ATOM      5  N   UNL     1      -4.089 -11.358  15.564  0.00  0.00    -0.285 NA
ATOM      6  N   UNL     1      -3.715 -14.033  15.142  0.00  0.00    -0.313 N 
ATOM     10  C   UNL     1      -4.531 -12.274  16.619  0.00  0.00    +0.145 C 
ATOM     11  C   UNL     1      -2.740 -11.717  15.121  0.00  0.00    +0.075 C 
ATOM     12  C   UNL     1      -5.595 -10.125  16.861  0.00  0.00    +0.090 C 
ATOM     13  C   UNL     1      -5.820 -11.623  17.100  0.00  0.00    +0.052 C 
ATOM     14  C   UNL     1      -4.243 -10.026  16.150  0.00  0.00    +0.107 C 
ATOM     15  C   UNL     1      -2.845 -13.094  14.451  0.00  0.00    +0.123 C 
ATOM     17  C   UNL     1      -4.682 -13.670  16.060  0.00  0.00    +0.230 C 
ATOM     29  H   UNL     1      -3.734 -14.988  14.797  0.00  0.00    +0.149 HD
ENDROOT
BRANCH  12   7
ATOM      3  O   UNL     1      -8.107  -9.144  17.825  0.00  0.00    -0.253 OA
ATOM      7  N   UNL     1      -6.660  -9.558  16.070  0.00  0.00    -0.295 N 
ATOM      9  N   UNL     1      -8.701  -8.606  15.619  0.00  0.00    -0.269 N 
ATOM     19  C   UNL     1      -7.862  -9.101  16.622  0.00  0.00    +0.304 C 
ATOM     30  H   UNL     1      -6.564  -9.558  15.060  0.00  0.00    +0.151 HD
ATOM     31  H   UNL     1      -8.356  -8.637  14.663  0.00  0.00    +0.156 HD
BRANCH   9  23
ATOM      1  S   UNL     1     -12.540  -7.871  16.066  0.00  0.00    -0.103 S 
ATOM     23  C   UNL     1      -9.996  -8.056  15.763  0.00  0.00    +0.042 A 
ATOM     26  C   UNL     1     -10.293  -6.662  15.769  0.00  0.00    +0.031 A 
ATOM     27  C   UNL     1     -11.128  -8.827  15.916  0.00  0.00    +0.068 A 
ATOM     28  C   UNL     1     -11.640  -6.421  15.926  0.00  0.00    +0.047 A 
ENDBRANCH   9  23
ENDBRANCH  12   7
BRANCH  11  16
ATOM     16  C   UNL     1      -2.145 -10.710  14.133  0.00  0.00    +0.029 C 
BRANCH  16  18
ATOM     18  C   UNL     1      -2.180 -11.251  12.708  0.00  0.00    +0.097 C 
BRANCH  18  20
ATOM      4  O   UNL     1      -1.474  -9.510  11.218  0.00  0.00    -0.276 OA
ATOM      8  N   UNL     1      -3.753  -9.933  11.313  0.00  0.00    -0.302 N 
ATOM     20  C   UNL     1      -2.420 -10.152  11.681  0.00  0.00    +0.216 C 
BRANCH   8  21
ATOM     21  C   UNL     1      -4.905 -10.667  11.831  0.00  0.00    +0.104 C 
ATOM     24  C   UNL     1      -5.849  -9.754  12.585  0.00  0.00    +0.024 C 
ENDBRANCH   8  21
BRANCH   8  22
ATOM     22  C   UNL     1      -4.067  -8.893  10.341  0.00  0.00    +0.104 C 
ATOM     25  C   UNL     1      -4.383  -9.479   8.981  0.00  0.00    +0.024 C 
ENDBRANCH   8  22
ENDBRANCH  18  20
ENDBRANCH  16  18
ENDBRANCH  11  16
TORSDOF 7
ENDMDL
MODEL 3
REMARK VINA RESULT:      -6.0     12.724     15.327
REMARK  Name = 26763048
REMARK  9 active torsions:
REMARK  status: ('A' for Active; 'I' for Inactive)
REMARK    1  A    between atoms: N_7  and  C_12
REMARK    2  A    between atoms: N_8  and  C_21
REMARK    3  A    between atoms: N_8  and  C_22
REMARK    4  A    between atoms: N_9  and  C_23
REMARK    5  A    between atoms: C_11  and  C_16
REMARK    6  A    between atoms: C_16  and  C_18
REMARK    7  A    between atoms: C_18  and  C_20
REMARK    8  A    between atoms: C_21  and  C_24
REMARK    9  A    between atoms: C_22  and  C_25
REMARK                            x       y       z     vdW  Elec       q    Type
REMARK                         _______ _______ _______ _____ _____    ______ ____
ROOT
ATOM      2  O   UNL     1      10.053   4.195   8.370  0.00  0.00    -0.274 OA
ATOM      5  N   UNL     1       9.487   6.646   5.883  0.00  0.00    -0.285 NA
ATOM      6  N   UNL     1       9.234   6.329   8.587  0.00  0.00    -0.313 N 
ATOM     10  C   UNL     1       9.255   5.287   6.383  0.00  0.00    +0.145 C 
ATOM     11  C   UNL     1       8.554   7.579   6.516  0.00  0.00    +0.075 C 
ATOM     12  C   UNL     1      10.158   5.226   4.150  0.00  0.00    +0.090 C 
ATOM     13  C   UNL     1      10.135   4.446   5.469  0.00  0.00    +0.052 C 
ATOM     14  C   UNL     1       9.389   6.520   4.429  0.00  0.00    +0.107 C 
ATOM     15  C   UNL     1       8.913   7.624   8.007  0.00  0.00    +0.123 C 
ATOM     17  C   UNL     1       9.594   5.214   7.854  0.00  0.00    +0.230 C 
ATOM     29  H   UNL     1       9.375   6.292   9.592  0.00  0.00    +0.149 HD
ENDROOT
BRANCH  12   7
ATOM      3  O   UNL     1      11.452   4.168   1.824  0.00  0.00    -0.253 OA
ATOM      7  N   UNL     1      11.511   5.487   3.722  0.00  0.00    -0.295 N 
ATOM      9  N   UNL     1      13.390   5.358   2.408  0.00  0.00    -0.269 N 
ATOM     19  C   UNL     1      12.070   4.927   2.567  0.00  0.00    +0.304 C 
ATOM     30  H   UNL     1      12.108   6.043   4.325  0.00  0.00    +0.151 HD
ATOM     31  H   UNL     1      13.764   5.990   3.111  0.00  0.00    +0.156 HD
BRANCH   9  23
ATOM      1  S   UNL     1      15.654   5.144  -0.802  0.00  0.00    -0.103 S 
ATOM     23  C   UNL     1      14.294   5.022   1.373  0.00  0.00    +0.042 A 
ATOM     26  C   UNL     1      15.090   3.840   1.338  0.00  0.00    +0.031 A 
ATOM     27  C   UNL     1      14.502   5.820   0.269  0.00  0.00    +0.068 A 
ATOM     28  C   UNL     1      15.876   3.780   0.209  0.00  0.00    +0.047 A 
ENDBRANCH   9  23
ENDBRANCH  12   7
BRANCH  11  16
ATOM     16  C   UNL     1       8.627   8.991   5.928  0.00  0.00    +0.029 C 
BRANCH  16  18
ATOM     18  C   UNL     1       9.815   9.761   6.493  0.00  0.00    +0.097 C 
BRANCH  18  20
ATOM      4  O   UNL     1      10.607  10.569   4.379  0.00  0.00    -0.276 OA
ATOM      8  N   UNL     1      12.180   9.577   5.765  0.00  0.00    -0.302 N 
ATOM     20  C   UNL     1      10.890  10.012   5.442  0.00  0.00    +0.216 C 
BRANCH   8  21
ATOM     21  C   UNL     1      12.563   8.914   7.010  0.00  0.00    +0.104 C 
ATOM     24  C   UNL     1      12.649   7.413   6.833  0.00  0.00    +0.024 C 
ENDBRANCH   8  21
BRANCH   8  22
ATOM     22  C   UNL     1      13.263   9.772   4.809  0.00  0.00    +0.104 C 
ATOM     25  C   UNL     1      13.209   8.751   3.692  0.00  0.00    +0.024 C 
ENDBRANCH   8  22
ENDBRANCH  18  20
ENDBRANCH  16  18
ENDBRANCH  11  16
TORSDOF 7
ENDMDL
MODEL 4
REMARK VINA RESULT:      -5.8     27.795     30.250
REMARK  Name = 26763048
REMARK  9 active torsions:
REMARK  status: ('A' for Active; 'I' for Inactive)
REMARK    1  A    between atoms: N_7  and  C_12
REMARK    2  A    between atoms: N_8  and  C_21
REMARK    3  A    between atoms: N_8  and  C_22
REMARK    4  A    between atoms: N_9  and  C_23
REMARK    5  A    between atoms: C_11  and  C_16
REMARK    6  A    between atoms: C_16  and  C_18
REMARK    7  A    between atoms: C_18  and  C_20
REMARK    8  A    between atoms: C_21  and  C_24
REMARK    9  A    between atoms: C_22  and  C_25
REMARK                            x       y       z     vdW  Elec       q    Type
REMARK                         _______ _______ _______ _____ _____    ______ ____
ROOT
ATOM      2  O   UNL     1      -3.526 -12.236  19.491  0.00  0.00    -0.274 OA
ATOM      5  N   UNL     1      -5.880 -10.691  17.351  0.00  0.00    -0.285 NA
ATOM      6  N   UNL     1      -3.329 -11.672  17.275  0.00  0.00    -0.313 N 
ATOM     10  C   UNL     1      -5.111 -10.665  18.599  0.00  0.00    +0.145 C 
ATOM     11  C   UNL     1      -5.066 -10.173  16.249  0.00  0.00    +0.075 C 
ATOM     12  C   UNL     1      -7.469 -10.462  19.052  0.00  0.00    +0.090 C 
ATOM     13  C   UNL     1      -6.165 -11.011  19.641  0.00  0.00    +0.052 C 
ATOM     14  C   UNL     1      -7.099  -9.944  17.659  0.00  0.00    +0.107 C 
ATOM     15  C   UNL     1      -3.914 -11.167  16.043  0.00  0.00    +0.123 C 
ATOM     17  C   UNL     1      -3.949 -11.627  18.509  0.00  0.00    +0.230 C 
ATOM     29  H   UNL     1      -2.497 -12.249  17.191  0.00  0.00    +0.149 HD
ENDROOT
BRANCH  12   7
ATOM      3  O   UNL     1      -9.960 -10.487  20.464  0.00  0.00    -0.253 OA
ATOM      7  N   UNL     1      -8.484 -11.486  18.992  0.00  0.00    -0.295 N 
ATOM      9  N   UNL     1     -10.465 -12.549  19.461  0.00  0.00    -0.269 N 
ATOM     19  C   UNL     1      -9.679 -11.422  19.717  0.00  0.00    +0.304 C 
ATOM     30  H   UNL     1      -8.292 -12.325  18.455  0.00  0.00    +0.151 HD
ATOM     31  H   UNL     1     -10.095 -13.240  18.814  0.00  0.00    +0.156 HD
BRANCH   9  23
ATOM      1  S   UNL     1     -14.251 -12.749  20.511  0.00  0.00    -0.103 S 
ATOM     23  C   UNL     1     -11.738 -12.859  19.995  0.00  0.00    +0.042 A 
ATOM     26  C   UNL     1     -12.010 -13.951  20.869  0.00  0.00    +0.031 A 
ATOM     27  C   UNL     1     -12.869 -12.123  19.718  0.00  0.00    +0.068 A 
ATOM     28  C   UNL     1     -13.338 -14.008  21.228  0.00  0.00    +0.047 A 
ENDBRANCH   9  23
ENDBRANCH  12   7
BRANCH  11  16
ATOM     16  C   UNL     1      -5.851 -10.019  14.944  0.00  0.00    +0.029 C 
BRANCH  16  18
ATOM     18  C   UNL     1      -5.166 -10.758  13.800  0.00  0.00    +0.097 C 
BRANCH  18  20
ATOM      4  O   UNL     1      -6.130  -9.309  12.150  0.00  0.00    -0.276 OA
ATOM      8  N   UNL     1      -3.919  -9.930  11.820  0.00  0.00    -0.302 N 
ATOM     20  C   UNL     1      -5.131  -9.931  12.520  0.00  0.00    +0.216 C 
BRANCH   8  21
ATOM     21  C   UNL     1      -2.711 -10.649  12.219  0.00  0.00    +0.104 C 
ATOM     24  C   UNL     1      -1.461  -9.924  11.768  0.00  0.00    +0.024 C 
ENDBRANCH   8  21
BRANCH   8  22
ATOM     22  C   UNL     1      -3.807  -9.170  10.581  0.00  0.00    +0.104 C 
ATOM     25  C   UNL     1      -4.194 -10.007   9.379  0.00  0.00    +0.024 C 
ENDBRANCH   8  22
ENDBRANCH  18  20
ENDBRANCH  16  18
ENDBRANCH  11  16
TORSDOF 7
ENDMDL
MODEL 5
REMARK VINA RESULT:      -5.8     11.022     14.364
REMARK  Name = 26763048
REMARK  9 active torsions:
REMARK  status: ('A' for Active; 'I' for Inactive)
REMARK    1  A    between atoms: N_7  and  C_12
REMARK    2  A    between atoms: N_8  and  C_21
REMARK    3  A    between atoms: N_8  and  C_22
REMARK    4  A    between atoms: N_9  and  C_23
REMARK    5  A    between atoms: C_11  and  C_16
REMARK    6  A    between atoms: C_16  and  C_18
REMARK    7  A    between atoms: C_18  and  C_20
REMARK    8  A    between atoms: C_21  and  C_24
REMARK    9  A    between atoms: C_22  and  C_25
REMARK                            x       y       z     vdW  Elec       q    Type
REMARK                         _______ _______ _______ _____ _____    ______ ____
ROOT
ATOM      2  O   UNL     1       9.883   4.041   8.036  0.00  0.00    -0.274 OA
ATOM      5  N   UNL     1       9.659   6.790   5.822  0.00  0.00    -0.285 NA
ATOM      6  N   UNL     1       9.217   6.198   8.454  0.00  0.00    -0.313 N 
ATOM     10  C   UNL     1       9.293   5.408   6.149  0.00  0.00    +0.145 C 
ATOM     11  C   UNL     1       8.762   7.721   6.508  0.00  0.00    +0.075 C 
ATOM     12  C   UNL     1      10.323   5.519   3.974  0.00  0.00    +0.090 C 
ATOM     13  C   UNL     1      10.161   4.603   5.192  0.00  0.00    +0.052 C 
ATOM     14  C   UNL     1       9.640   6.834   4.360  0.00  0.00    +0.107 C 
ATOM     15  C   UNL     1       9.032   7.571   8.012  0.00  0.00    +0.123 C 
ATOM     17  C   UNL     1       9.535   5.145   7.618  0.00  0.00    +0.230 C 
ATOM     29  H   UNL     1       9.293   6.038   9.455  0.00  0.00    +0.149 HD
ENDROOT
BRANCH  12   7
ATOM      3  O   UNL     1      11.679   4.601   1.623  0.00  0.00    -0.253 OA
ATOM      7  N   UNL     1      11.716   5.713   3.650  0.00  0.00    -0.295 N 
ATOM      9  N   UNL     1      13.659   5.567   2.434  0.00  0.00    -0.269 N 
ATOM     19  C   UNL     1      12.303   5.229   2.475  0.00  0.00    +0.304 C 
ATOM     30  H   UNL     1      12.314   6.157   4.339  0.00  0.00    +0.151 HD
ATOM     31  H   UNL     1      14.034   6.094   3.219  0.00  0.00    +0.156 HD
BRANCH   9  23
ATOM      1  S   UNL     1      16.252   5.547  -0.525  0.00  0.00    -0.103 S 
ATOM     23  C   UNL     1      14.598   5.265   1.420  0.00  0.00    +0.042 A 
ATOM     26  C   UNL     1      15.087   3.960   1.124  0.00  0.00    +0.031 A 
ATOM     27  C   UNL     1      15.150   6.223   0.598  0.00  0.00    +0.068 A 
ATOM     28  C   UNL     1      15.993   3.969   0.087  0.00  0.00    +0.047 A 
ENDBRANCH   9  23
ENDBRANCH  12   7
BRANCH  11  16
ATOM     16  C   UNL     1       8.979   9.179   6.092  0.00  0.00    +0.029 C 
BRANCH  16  18
ATOM     18  C   UNL     1       9.881   9.906   7.083  0.00  0.00    +0.097 C 
BRANCH  18  20
ATOM      4  O   UNL     1       9.559  12.096   6.160  0.00  0.00    -0.276 OA
ATOM      8  N   UNL     1       9.262  11.881   8.451  0.00  0.00    -0.302 N 
ATOM     20  C   UNL     1       9.556  11.392   7.173  0.00  0.00    +0.216 C 
BRANCH   8  21
ATOM     21  C   UNL     1       9.245  11.088   9.678  0.00  0.00    +0.104 C 
ATOM     24  C   UNL     1       9.746  11.888  10.861  0.00  0.00    +0.024 C 
ENDBRANCH   8  21
BRANCH   8  22
ATOM     22  C   UNL     1       8.949  13.295   8.623  0.00  0.00    +0.104 C 
ATOM     25  C   UNL     1       7.467  13.560   8.460  0.00  0.00    +0.024 C 
ENDBRANCH   8  22
ENDBRANCH  18  20
ENDBRANCH  16  18
ENDBRANCH  11  16
TORSDOF 7
ENDMDL
MODEL 6
REMARK VINA RESULT:      -5.7     27.279     29.413
REMARK  Name = 26763048
REMARK  9 active torsions:
REMARK  status: ('A' for Active; 'I' for Inactive)
REMARK    1  A    between atoms: N_7  and  C_12
REMARK    2  A    between atoms: N_8  and  C_21
REMARK    3  A    between atoms: N_8  and  C_22
REMARK    4  A    between atoms: N_9  and  C_23
REMARK    5  A    between atoms: C_11  and  C_16
REMARK    6  A    between atoms: C_16  and  C_18
REMARK    7  A    between atoms: C_18  and  C_20
REMARK    8  A    between atoms: C_21  and  C_24
REMARK    9  A    between atoms: C_22  and  C_25
REMARK                            x       y       z     vdW  Elec       q    Type
REMARK                         _______ _______ _______ _____ _____    ______ ____
ROOT
ATOM      2  O   UNL     1      -8.511 -14.275  17.529  0.00  0.00    -0.274 OA
ATOM      5  N   UNL     1      -6.227 -11.645  18.144  0.00  0.00    -0.285 NA
ATOM      6  N   UNL     1      -6.216 -14.297  17.478  0.00  0.00    -0.313 N 
ATOM     10  C   UNL     1      -7.358 -12.459  18.601  0.00  0.00    +0.145 C 
ATOM     11  C   UNL     1      -4.967 -12.334  18.428  0.00  0.00    +0.075 C 
ATOM     12  C   UNL     1      -7.925 -10.118  18.650  0.00  0.00    +0.090 C 
ATOM     13  C   UNL     1      -8.534 -11.508  18.438  0.00  0.00    +0.052 C 
ATOM     14  C   UNL     1      -6.419 -10.353  18.803  0.00  0.00    +0.107 C 
ATOM     15  C   UNL     1      -4.944 -13.595  17.553  0.00  0.00    +0.123 C 
ATOM     17  C   UNL     1      -7.438 -13.732  17.791  0.00  0.00    +0.230 C 
ATOM     29  H   UNL     1      -6.224 -15.192  16.999  0.00  0.00    +0.149 HD
ENDROOT
BRANCH  12   7
ATOM      3  O   UNL     1     -10.502  -9.115  17.903  0.00  0.00    -0.253 OA
ATOM      7  N   UNL     1      -8.222  -9.244  17.541  0.00  0.00    -0.295 N 
ATOM      9  N   UNL     1      -9.496  -7.968  16.119  0.00  0.00    -0.269 N 
ATOM     19  C   UNL     1      -9.515  -8.798  17.243  0.00  0.00    +0.304 C 
ATOM     30  H   UNL     1      -7.470  -9.000  16.905  0.00  0.00    +0.151 HD
ATOM     31  H   UNL     1      -8.595  -7.797  15.678  0.00  0.00    +0.156 HD
BRANCH   9  23
ATOM      1  S   UNL     1     -12.590  -6.863  13.954  0.00  0.00    -0.103 S 
ATOM     23  C   UNL     1     -10.590  -7.319  15.500  0.00  0.00    +0.042 A 
ATOM     26  C   UNL     1     -11.054  -6.012  15.829  0.00  0.00    +0.031 A 
ATOM     27  C   UNL     1     -11.336  -7.896  14.496  0.00  0.00    +0.068 A 
ATOM     28  C   UNL     1     -12.137  -5.640  15.064  0.00  0.00    +0.047 A 
ENDBRANCH   9  23
ENDBRANCH  12   7
BRANCH  11  16
ATOM     16  C   UNL     1      -3.734 -11.477  18.125  0.00  0.00    +0.029 C 
BRANCH  16  18
ATOM     18  C   UNL     1      -3.862 -10.791  16.769  0.00  0.00    +0.097 C 
BRANCH  18  20
ATOM      4  O   UNL     1      -1.542 -10.829  16.163  0.00  0.00    -0.276 OA
ATOM      8  N   UNL     1      -3.027 -11.765  14.645  0.00  0.00    -0.302 N 
ATOM     20  C   UNL     1      -2.697 -11.123  15.844  0.00  0.00    +0.216 C 
BRANCH   8  21
ATOM     21  C   UNL     1      -4.377 -12.133  14.226  0.00  0.00    +0.104 C 
ATOM     24  C   UNL     1      -4.454 -13.589  13.821  0.00  0.00    +0.024 C 
ENDBRANCH   8  21
BRANCH   8  22
ATOM     22  C   UNL     1      -1.970 -12.109  13.702  0.00  0.00    +0.104 C 
ATOM     25  C   UNL     1      -1.915 -11.130  12.548  0.00  0.00    +0.024 C 
ENDBRANCH   8  22
ENDBRANCH  18  20
ENDBRANCH  16  18
ENDBRANCH  11  16
TORSDOF 7
ENDMDL
MODEL 7
REMARK VINA RESULT:      -5.7     26.353     29.557
REMARK  Name = 26763048
REMARK  9 active torsions:
REMARK  status: ('A' for Active; 'I' for Inactive)
REMARK    1  A    between atoms: N_7  and  C_12
REMARK    2  A    between atoms: N_8  and  C_21
REMARK    3  A    between atoms: N_8  and  C_22
REMARK    4  A    between atoms: N_9  and  C_23
REMARK    5  A    between atoms: C_11  and  C_16
REMARK    6  A    between atoms: C_16  and  C_18
REMARK    7  A    between atoms: C_18  and  C_20
REMARK    8  A    between atoms: C_21  and  C_24
REMARK    9  A    between atoms: C_22  and  C_25
REMARK                            x       y       z     vdW  Elec       q    Type
REMARK                         _______ _______ _______ _____ _____    ______ ____
ROOT
ATOM      2  O   UNL     1     -11.520   8.657  36.244  0.00  0.00    -0.274 OA
ATOM      5  N   UNL     1     -12.508   8.411  32.857  0.00  0.00    -0.285 NA
ATOM      6  N   UNL     1     -10.816   9.874  34.429  0.00  0.00    -0.313 N 
ATOM     10  C   UNL     1     -12.881   8.588  34.264  0.00  0.00    +0.145 C 
ATOM     11  C   UNL     1     -12.106   9.695  32.280  0.00  0.00    +0.075 C 
ATOM     12  C   UNL     1     -14.068   6.725  33.301  0.00  0.00    +0.090 C 
ATOM     13  C   UNL     1     -13.473   7.232  34.620  0.00  0.00    +0.052 C 
ATOM     14  C   UNL     1     -13.673   7.767  32.251  0.00  0.00    +0.107 C 
ATOM     15  C   UNL     1     -10.815  10.118  32.995  0.00  0.00    +0.123 C 
ATOM     17  C   UNL     1     -11.670   8.996  35.071  0.00  0.00    +0.230 C 
ATOM     29  H   UNL     1     -10.029  10.233  34.962  0.00  0.00    +0.149 HD
ENDROOT
BRANCH  12   7
ATOM      3  O   UNL     1     -15.506   4.612  32.008  0.00  0.00    -0.253 OA
ATOM      7  N   UNL     1     -13.564   5.414  32.973  0.00  0.00    -0.295 N 
ATOM      9  N   UNL     1     -13.585   3.270  32.149  0.00  0.00    -0.269 N 
ATOM     19  C   UNL     1     -14.335   4.434  32.338  0.00  0.00    +0.304 C 
ATOM     30  H   UNL     1     -12.629   5.165  33.281  0.00  0.00    +0.151 HD
ATOM     31  H   UNL     1     -12.622   3.276  32.477  0.00  0.00    +0.156 HD
BRANCH   9  23
ATOM      1  S   UNL     1     -14.338   0.200  29.807  0.00  0.00    -0.103 S 
ATOM     23  C   UNL     1     -13.998   2.059  31.547  0.00  0.00    +0.042 A 
ATOM     26  C   UNL     1     -14.758   1.044  32.196  0.00  0.00    +0.031 A 
ATOM     27  C   UNL     1     -13.701   1.729  30.242  0.00  0.00    +0.068 A 
ATOM     28  C   UNL     1     -15.013  -0.023  31.364  0.00  0.00    +0.047 A 
ENDBRANCH   9  23
ENDBRANCH  12   7
BRANCH  11  16
ATOM     16  C   UNL     1     -11.855   9.621  30.771  0.00  0.00    +0.029 C 
BRANCH  16  18
ATOM     18  C   UNL     1     -12.334  10.888  30.071  0.00  0.00    +0.097 C 
BRANCH  18  20
ATOM      4  O   UNL     1     -14.350  10.259  28.935  0.00  0.00    -0.276 OA
ATOM      8  N   UNL     1     -12.500  10.690  27.603  0.00  0.00    -0.302 N 
ATOM     20  C   UNL     1     -13.164  10.581  28.830  0.00  0.00    +0.216 C 
BRANCH   8  21
ATOM     21  C   UNL     1     -11.099  11.069  27.430  0.00  0.00    +0.104 C 
ATOM     24  C   UNL     1     -10.233   9.863  27.135  0.00  0.00    +0.024 C 
ENDBRANCH   8  21
BRANCH   8  22
ATOM     22  C   UNL     1     -13.222  10.405  26.369  0.00  0.00    +0.104 C 
ATOM     25  C   UNL     1     -13.137  11.561  25.395  0.00  0.00    +0.024 C 
ENDBRANCH   8  22
ENDBRANCH  18  20
ENDBRANCH  16  18
ENDBRANCH  11  16
TORSDOF 7
ENDMDL
MODEL 8
REMARK VINA RESULT:      -5.7     27.200     29.353
REMARK  Name = 26763048
REMARK  9 active torsions:
REMARK  status: ('A' for Active; 'I' for Inactive)
REMARK    1  A    between atoms: N_7  and  C_12
REMARK    2  A    between atoms: N_8  and  C_21
REMARK    3  A    between atoms: N_8  and  C_22
REMARK    4  A    between atoms: N_9  and  C_23
REMARK    5  A    between atoms: C_11  and  C_16
REMARK    6  A    between atoms: C_16  and  C_18
REMARK    7  A    between atoms: C_18  and  C_20
REMARK    8  A    between atoms: C_21  and  C_24
REMARK    9  A    between atoms: C_22  and  C_25
REMARK                            x       y       z     vdW  Elec       q    Type
REMARK                         _______ _______ _______ _____ _____    ______ ____
ROOT
ATOM      2  O   UNL     1      -7.943 -13.331  18.710  0.00  0.00    -0.274 OA
ATOM      5  N   UNL     1      -6.027 -10.985  16.885  0.00  0.00    -0.285 NA
ATOM      6  N   UNL     1      -5.944 -13.617  17.619  0.00  0.00    -0.313 N 
ATOM     10  C   UNL     1      -6.699 -11.357  18.134  0.00  0.00    +0.145 C 
ATOM     11  C   UNL     1      -4.692 -11.583  16.836  0.00  0.00    +0.075 C 
ATOM     12  C   UNL     1      -7.508  -9.232  17.338  0.00  0.00    +0.090 C 
ATOM     13  C   UNL     1      -7.943 -10.481  18.111  0.00  0.00    +0.052 C 
ATOM     14  C   UNL     1      -6.081  -9.523  16.865  0.00  0.00    +0.107 C 
ATOM     15  C   UNL     1      -4.890 -13.103  16.758  0.00  0.00    +0.123 C 
ATOM     17  C   UNL     1      -6.957 -12.846  18.156  0.00  0.00    +0.230 C 
ATOM     29  H   UNL     1      -6.042 -14.626  17.681  0.00  0.00    +0.149 HD
ENDROOT
BRANCH  12   7
ATOM      3  O   UNL     1      -9.885  -7.635  17.396  0.00  0.00    -0.253 OA
ATOM      7  N   UNL     1      -8.396  -8.967  16.232  0.00  0.00    -0.295 N 
ATOM      9  N   UNL     1     -10.204  -8.096  15.116  0.00  0.00    -0.269 N 
ATOM     19  C   UNL     1      -9.543  -8.173  16.345  0.00  0.00    +0.304 C 
ATOM     30  H   UNL     1      -8.221  -9.438  15.350  0.00  0.00    +0.151 HD
ATOM     31  H   UNL     1      -9.794  -8.597  14.332  0.00  0.00    +0.156 HD
BRANCH   9  23
ATOM      1  S   UNL     1     -13.827  -6.905  14.150  0.00  0.00    -0.103 S 
ATOM     23  C   UNL     1     -11.394  -7.394  14.812  0.00  0.00    +0.042 A 
ATOM     26  C   UNL     1     -11.534  -5.976  14.840  0.00  0.00    +0.031 A 
ATOM     27  C   UNL     1     -12.566  -8.023  14.452  0.00  0.00    +0.068 A 
ATOM     28  C   UNL     1     -12.807  -5.576  14.500  0.00  0.00    +0.047 A 
ENDBRANCH   9  23
ENDBRANCH  12   7
BRANCH  11  16
ATOM     16  C   UNL     1      -3.867 -11.111  15.636  0.00  0.00    +0.029 C 
BRANCH  16  18
ATOM     18  C   UNL     1      -4.318 -11.799  14.353  0.00  0.00    +0.097 C 
BRANCH  18  20
ATOM      4  O   UNL     1      -5.984 -10.313  13.478  0.00  0.00    -0.276 OA
ATOM      8  N   UNL     1      -4.027 -10.517  12.249  0.00  0.00    -0.302 N 
ATOM     20  C   UNL     1      -4.865 -10.810  13.331  0.00  0.00    +0.216 C 
BRANCH   8  21
ATOM     21  C   UNL     1      -2.696 -11.079  12.033  0.00  0.00    +0.104 C 
ATOM     24  C   UNL     1      -1.676  -9.995  11.756  0.00  0.00    +0.024 C 
ENDBRANCH   8  21
BRANCH   8  22
ATOM     22  C   UNL     1      -4.481  -9.585  11.222  0.00  0.00    +0.104 C 
ATOM     25  C   UNL     1      -4.948 -10.313   9.980  0.00  0.00    +0.024 C 
ENDBRANCH   8  22
ENDBRANCH  18  20
ENDBRANCH  16  18
ENDBRANCH  11  16
TORSDOF 7
ENDMDL
MODEL 9
REMARK VINA RESULT:      -5.7      1.560      2.048
REMARK  Name = 26763048
REMARK  9 active torsions:
REMARK  status: ('A' for Active; 'I' for Inactive)
REMARK    1  A    between atoms: N_7  and  C_12
REMARK    2  A    between atoms: N_8  and  C_21
REMARK    3  A    between atoms: N_8  and  C_22
REMARK    4  A    between atoms: N_9  and  C_23
REMARK    5  A    between atoms: C_11  and  C_16
REMARK    6  A    between atoms: C_16  and  C_18
REMARK    7  A    between atoms: C_18  and  C_20
REMARK    8  A    between atoms: C_21  and  C_24
REMARK    9  A    between atoms: C_22  and  C_25
REMARK                            x       y       z     vdW  Elec       q    Type
REMARK                         _______ _______ _______ _____ _____    ______ ____
ROOT
ATOM      2  O   UNL     1      15.417   6.085  19.734  0.00  0.00    -0.274 OA
ATOM      5  N   UNL     1      13.755   9.201  19.551  0.00  0.00    -0.285 NA
ATOM      6  N   UNL     1      14.777   7.495  21.428  0.00  0.00    -0.313 N 
ATOM     10  C   UNL     1      13.787   7.773  19.217  0.00  0.00    +0.145 C 
ATOM     11  C   UNL     1      13.211   9.388  20.898  0.00  0.00    +0.075 C 
ATOM     12  C   UNL     1      13.561   9.106  17.222  0.00  0.00    +0.090 C 
ATOM     13  C   UNL     1      14.153   7.791  17.740  0.00  0.00    +0.052 C 
ATOM     14  C   UNL     1      12.999   9.813  18.459  0.00  0.00    +0.107 C 
ATOM     15  C   UNL     1      14.217   8.762  21.873  0.00  0.00    +0.123 C 
ATOM     17  C   UNL     1      14.766   7.055  20.118  0.00  0.00    +0.230 C 
ATOM     29  H   UNL     1      15.365   6.990  22.084  0.00  0.00    +0.149 HD
ENDROOT
BRANCH  12   7
ATOM      3  O   UNL     1      13.218  10.640  14.828  0.00  0.00    -0.253 OA
ATOM      7  N   UNL     1      14.563   9.902  16.558  0.00  0.00    -0.295 N 
ATOM      9  N   UNL     1      15.467  11.299  14.973  0.00  0.00    -0.269 N 
ATOM     19  C   UNL     1      14.313  10.625  15.385  0.00  0.00    +0.304 C 
ATOM     30  H   UNL     1      15.513   9.880  16.916  0.00  0.00    +0.151 HD
ATOM     31  H   UNL     1      16.302  11.189  15.544  0.00  0.00    +0.156 HD
BRANCH   9  23
ATOM      1  S   UNL     1      15.876  14.234  12.386  0.00  0.00    -0.103 S 
ATOM     23  C   UNL     1      15.628  12.133  13.843  0.00  0.00    +0.042 A 
ATOM     26  C   UNL     1      15.765  11.670  12.502  0.00  0.00    +0.031 A 
ATOM     27  C   UNL     1      15.671  13.508  13.923  0.00  0.00    +0.068 A 
ATOM     28  C   UNL     1      15.907  12.709  11.609  0.00  0.00    +0.047 A 
ENDBRANCH   9  23
ENDBRANCH  12   7
BRANCH  11  16
ATOM     16  C   UNL     1      12.997  10.861  21.258  0.00  0.00    +0.029 C 
BRANCH  16  18
ATOM     18  C   UNL     1      11.522  11.157  21.505  0.00  0.00    +0.097 C 
BRANCH  18  20
ATOM      4  O   UNL     1      11.000  10.045  23.564  0.00  0.00    -0.276 OA
ATOM      8  N   UNL     1      11.052  12.364  23.622  0.00  0.00    -0.302 N 
ATOM     20  C   UNL     1      11.168  11.122  22.987  0.00  0.00    +0.216 C 
BRANCH   8  21
ATOM     21  C   UNL     1      11.242  13.663  22.981  0.00  0.00    +0.104 C 
ATOM     24  C   UNL     1       9.964  14.154  22.337  0.00  0.00    +0.024 C 
ENDBRANCH   8  21
BRANCH   8  22
ATOM     22  C   UNL     1      10.708  12.415  25.038  0.00  0.00    +0.104 C 
ATOM     25  C   UNL     1      11.086  13.746  25.653  0.00  0.00    +0.024 C 
ENDBRANCH   8  22
ENDBRANCH  18  20
ENDBRANCH  16  18
ENDBRANCH  11  16
TORSDOF 7
ENDMDL
MODEL 10
REMARK VINA RESULT:      -5.7      7.242     10.662
REMARK  Name = 26763048
REMARK  9 active torsions:
REMARK  status: ('A' for Active; 'I' for Inactive)
REMARK    1  A    between atoms: N_7  and  C_12
REMARK    2  A    between atoms: N_8  and  C_21
REMARK    3  A    between atoms: N_8  and  C_22
REMARK    4  A    between atoms: N_9  and  C_23
REMARK    5  A    between atoms: C_11  and  C_16
REMARK    6  A    between atoms: C_16  and  C_18
REMARK    7  A    between atoms: C_18  and  C_20
REMARK    8  A    between atoms: C_21  and  C_24
REMARK    9  A    between atoms: C_22  and  C_25
REMARK                            x       y       z     vdW  Elec       q    Type
REMARK                         _______ _______ _______ _____ _____    ______ ____
ROOT
ATOM      2  O   UNL     1      21.365   4.586  20.558  0.00  0.00    -0.274 OA
ATOM      5  N   UNL     1      19.010   7.017  21.583  0.00  0.00    -0.285 NA
ATOM      6  N   UNL     1      19.288   5.054  19.701  0.00  0.00    -0.313 N 
ATOM     10  C   UNL     1      20.371   6.694  21.143  0.00  0.00    +0.145 C 
ATOM     11  C   UNL     1      18.129   7.164  20.423  0.00  0.00    +0.075 C 
ATOM     12  C   UNL     1      20.416   7.863  23.249  0.00  0.00    +0.090 C 
ATOM     13  C   UNL     1      21.168   6.805  22.434  0.00  0.00    +0.052 C 
ATOM     14  C   UNL     1      19.172   8.203  22.425  0.00  0.00    +0.107 C 
ATOM     15  C   UNL     1      18.030   5.781  19.764  0.00  0.00    +0.123 C 
ATOM     17  C   UNL     1      20.390   5.334  20.485  0.00  0.00    +0.230 C 
ATOM     29  H   UNL     1      19.295   4.182  19.180  0.00  0.00    +0.149 HD
ENDROOT
BRANCH  12   7
ATOM      3  O   UNL     1      21.323   8.891  25.764  0.00  0.00    -0.253 OA
ATOM      7  N   UNL     1      20.073   7.365  24.559  0.00  0.00    -0.295 N 
ATOM      9  N   UNL     1      20.061   7.237  26.852  0.00  0.00    -0.269 N 
ATOM     19  C   UNL     1      20.562   7.926  25.744  0.00  0.00    +0.304 C 
ATOM     30  H   UNL     1      19.510   6.523  24.622  0.00  0.00    +0.151 HD
ATOM     31  H   UNL     1      19.437   6.455  26.673  0.00  0.00    +0.156 HD
BRANCH   9  23
ATOM      1  S   UNL     1      21.229   8.571  30.364  0.00  0.00    -0.103 S 
ATOM     23  C   UNL     1      20.314   7.492  28.220  0.00  0.00    +0.042 A 
ATOM     26  C   UNL     1      19.780   6.735  29.302  0.00  0.00    +0.031 A 
ATOM     27  C   UNL     1      21.120   8.521  28.656  0.00  0.00    +0.068 A 
ATOM     28  C   UNL     1      20.198   7.214  30.524  0.00  0.00    +0.047 A 
ENDBRANCH   9  23
ENDBRANCH  12   7
BRANCH  11  16
ATOM     16  C   UNL     1      16.728   7.658  20.792  0.00  0.00    +0.029 C 
BRANCH  16  18
ATOM     18  C   UNL     1      15.681   6.577  20.546  0.00  0.00    +0.097 C 
BRANCH  18  20
ATOM      4  O   UNL     1      15.004   7.130  18.314  0.00  0.00    -0.276 OA
ATOM      8  N   UNL     1      13.354   7.194  19.944  0.00  0.00    -0.302 N 
ATOM     20  C   UNL     1      14.663   6.991  19.491  0.00  0.00    +0.216 C 
BRANCH   8  21
ATOM     21  C   UNL     1      12.904   7.041  21.326  0.00  0.00    +0.104 C 
ATOM     24  C   UNL     1      11.591   6.290  21.400  0.00  0.00    +0.024 C 
ENDBRANCH   8  21
BRANCH   8  22
ATOM     22  C   UNL     1      12.323   7.601  18.998  0.00  0.00    +0.104 C 
ATOM     25  C   UNL     1      12.171   9.107  18.955  0.00  0.00    +0.024 C 
ENDBRANCH   8  22
ENDBRANCH  18  20
ENDBRANCH  16  18
ENDBRANCH  11  16
TORSDOF 7
ENDMDL
