REMARK  Name = 7144103
REMARK  4 active torsions:
REMARK  status: ('A' for Active; 'I' for Inactive)
REMARK    1  A    between atoms: O_3  and  C_27
REMARK    2  A    between atoms: O_3  and  C_30
REMARK    3  A    between atoms: C_15  and  C_20
REMARK    4  A    between atoms: C_17  and  C_21
REMARK                            x       y       z     vdW  Elec       q    Type
REMARK                         _______ _______ _______ _____ _____    ______ ____
ROOT
ATOM      1  O   UNL     1      -2.942   2.614   2.269  0.00  0.00    -0.268 OA
ATOM      2  O   UNL     1      -3.922  -1.471  -0.577  0.00  0.00    -0.268 OA
ATOM      4  N   UNL     1      -1.599   1.959   0.465  0.00  0.00    -0.311 N 
ATOM      5  N   UNL     1      -2.112  -0.388  -1.584  0.00  0.00    -0.295 N 
ATOM      8  C   UNL     1      -2.462   2.042  -1.950  0.00  0.00    +0.027 C 
ATOM      9  C   UNL     1      -0.200   1.198  -1.479  0.00  0.00    +0.054 C 
ATOM     10  C   UNL     1      -0.994   2.201  -2.314  0.00  0.00    +0.018 C 
ATOM     11  C   UNL     1      -2.638   2.407  -0.474  0.00  0.00    +0.130 C 
ATOM     12  C   UNL     1      -2.943   0.613  -2.251  0.00  0.00    +0.113 C 
ATOM     13  C   UNL     1      -0.667  -0.236  -1.812  0.00  0.00    +0.117 C 
ATOM     14  C   UNL     1      -0.357   1.463   0.020  0.00  0.00    +0.034 A 
ATOM     15  C   UNL     1       0.631   1.209   0.917  0.00  0.00    +0.002 A 
ATOM     16  C   UNL     1      -1.881   2.172   1.826  0.00  0.00    +0.252 A 
ATOM     17  C   UNL     1      -2.713  -1.347  -0.766  0.00  0.00    +0.266 C 
ATOM     18  C   UNL     1       0.374   1.412   2.330  0.00  0.00    +0.015 A 
ATOM     19  C   UNL     1      -0.800   1.848   2.784  0.00  0.00    +0.071 A 
ENDROOT
BRANCH  17  21
ATOM      6  N   UNL     1      -1.442  -1.904   1.179  0.00  0.00    -0.247 NA
ATOM      7  N   UNL     1      -0.680  -4.355   0.048  0.00  0.00    -0.259 NA
ATOM     21  C   UNL     1      -1.846  -2.286  -0.044  0.00  0.00    +0.144 A 
ATOM     24  C   UNL     1      -1.476  -3.484  -0.604  0.00  0.00    +0.143 A 
ATOM     28  C   UNL     1      -0.646  -2.775   1.832  0.00  0.00    +0.131 A 
ATOM     29  C   UNL     1      -0.272  -3.978   1.276  0.00  0.00    +0.130 A 
ENDBRANCH  17  21
BRANCH  15  20
ATOM     20  C   UNL     1       1.959   0.712   0.493  0.00  0.00    -0.016 A 
ATOM     22  C   UNL     1       2.182  -0.658   0.387  0.00  0.00    +0.012 A 
ATOM     23  C   UNL     1       2.975   1.617   0.205  0.00  0.00    +0.012 A 
ATOM     25  C   UNL     1       3.433  -1.126  -0.013  0.00  0.00    +0.046 A 
ATOM     26  C   UNL     1       4.227   1.148  -0.195  0.00  0.00    +0.046 A 
ATOM     27  C   UNL     1       4.456  -0.223  -0.303  0.00  0.00    +0.120 A 
BRANCH  27   3
ATOM      3  O   UNL     1       5.677  -0.681  -0.692  0.00  0.00    -0.495 OA
ATOM     30  C   UNL     1       6.678   0.297  -0.974  0.00  0.00    +0.277 C 
ENDBRANCH  27   3
ENDBRANCH  15  20
TORSDOF 3
