REMARK  Name = 11886128
REMARK  5 active torsions:
REMARK  status: ('A' for Active; 'I' for Inactive)
REMARK    1  A    between atoms: S_1  and  N_8
REMARK    2  A    between atoms: S_1  and  C_19
REMARK    3  A    between atoms: N_7  and  C_14
REMARK    4  A    between atoms: N_8  and  C_15
REMARK    5  A    between atoms: C_18  and  C_20
REMARK                            x       y       z     vdW  Elec       q    Type
REMARK                         _______ _______ _______ _____ _____    ______ ____
ROOT
ATOM      3  O   UNL     1      -0.850   0.915   1.734  0.00  0.00    -0.370 OA
ATOM      4  O   UNL     1       0.382  -1.835   0.834  0.00  0.00    -0.370 OA
ATOM     12  C   UNL     1       0.412  -0.503   0.291  0.00  0.00    +0.175 C 
ATOM     13  C   UNL     1      -0.950   0.115   0.545  0.00  0.00    +0.170 C 
ATOM     14  C   UNL     1       1.379   0.356   1.083  0.00  0.00    +0.168 C 
ATOM     15  C   UNL     1      -1.858  -1.070   0.786  0.00  0.00    +0.133 C 
ATOM     16  C   UNL     1       0.506   0.912   2.203  0.00  0.00    +0.190 C 
ATOM     17  C   UNL     1      -0.912  -2.084   1.400  0.00  0.00    +0.183 C 
ENDROOT
BRANCH  14   7
ATOM      7  N   UNL     1       2.042   1.366   0.254  0.00  0.00    -0.217 N 
ATOM      9  N   UNL     1       1.480   2.564   0.064  0.00  0.00    -0.043 NA
ATOM     10  N   UNL     1       3.422   2.433  -1.023  0.00  0.00    -0.108 NA
ATOM     11  N   UNL     1       2.331   3.215  -0.720  0.00  0.00    -0.023 NA
ATOM     18  C   UNL     1       3.221   1.291  -0.408  0.00  0.00    +0.182 A 
BRANCH  18  20
ATOM     20  C   UNL     1       4.085   0.138  -0.416  0.00  0.00    +0.021 A 
ATOM     22  C   UNL     1       5.080   0.003   0.554  0.00  0.00    +0.011 A 
ATOM     23  C   UNL     1       3.932  -0.845  -1.395  0.00  0.00    +0.011 A 
ATOM     26  C   UNL     1       5.918  -1.112   0.546  0.00  0.00    +0.001 A 
ATOM     27  C   UNL     1       4.770  -1.960  -1.403  0.00  0.00    +0.001 A 
ATOM     28  C   UNL     1       5.763  -2.094  -0.432  0.00  0.00    +0.000 A 
ENDBRANCH  18  20
ENDBRANCH  14   7
BRANCH  15   8
ATOM      8  N   UNL     1      -2.418  -1.559  -0.451  0.00  0.00    -0.182 NA
ATOM     29  H   UNL     1      -1.845  -1.445  -1.296  0.00  0.00    +0.149 HD
BRANCH   8   1
ATOM      1  S   UNL     1      -4.102  -1.693  -0.622  0.00  0.00    +0.065 S 
ATOM      5  O   UNL     1      -4.635  -2.491   0.466  0.00  0.00    -0.153 OA
ATOM      6  O   UNL     1      -4.406  -2.038  -1.997  0.00  0.00    -0.153 OA
BRANCH   1  19
ATOM      2  S   UNL     1      -4.206   1.042  -1.649  0.00  0.00    -0.077 S 
ATOM     19  C   UNL     1      -4.627  -0.023  -0.381  0.00  0.00    +0.142 A 
ATOM     21  C   UNL     1      -5.313   0.604   0.627  0.00  0.00    +0.036 A 
ATOM     24  C   UNL     1      -5.499   1.991   0.357  0.00  0.00    +0.010 A 
ATOM     25  C   UNL     1      -4.946   2.362  -0.848  0.00  0.00    +0.047 A 
ENDBRANCH   1  19
ENDBRANCH   8   1
ENDBRANCH  15   8
TORSDOF 5
