MODEL 1
REMARK VINA RESULT:      -6.6      0.000      0.000
REMARK  Name = 38028459
REMARK  11 active torsions:
REMARK  status: ('A' for Active; 'I' for Inactive)
REMARK    1  A    between atoms: N_3  and  C_14
REMARK    2  A    between atoms: N_4  and  C_19
REMARK    3  A    between atoms: N_5  and  C_27
REMARK    4  A    between atoms: C_7  and  C_11
REMARK    5  A    between atoms: C_8  and  C_14
REMARK    6  A    between atoms: C_10  and  C_15
REMARK    7  A    between atoms: C_11  and  C_16
REMARK    8  A    between atoms: C_11  and  C_17
REMARK    9  A    between atoms: C_12  and  C_18
REMARK   10  A    between atoms: C_15  and  C_22
REMARK   11  A    between atoms: C_27  and  C_28
REMARK                            x       y       z     vdW  Elec       q    Type
REMARK                         _______ _______ _______ _____ _____    ______ ____
ROOT
ATOM      7  C   UNL     1      -5.939 -10.530  15.555  0.00  0.00    +0.000 C 
ATOM      8  C   UNL     1      -6.684 -10.640  16.909  0.00  0.00    +0.032 C 
ATOM      9  C   UNL     1      -4.934 -11.681  15.401  0.00  0.00    +0.012 C 
ATOM     10  C   UNL     1      -3.889 -11.698  16.533  0.00  0.00    +0.023 C 
ATOM     12  C   UNL     1      -4.533 -11.539  17.895  0.00  0.00    -0.073 C 
ATOM     13  C   UNL     1      -5.787 -11.078  18.043  0.00  0.00    -0.022 C 
ATOM     18  C   UNL     1      -3.716 -11.966  19.083  0.00  0.00    +0.039 C 
ENDROOT
BRANCH   7  11
ATOM     11  C   UNL     1      -6.911 -10.527  14.370  0.00  0.00    -0.013 C 
ATOM     16  C   UNL     1      -6.157 -10.294  13.064  0.00  0.00    +0.007 C 
ATOM     17  C   UNL     1      -7.689 -11.838  14.319  0.00  0.00    +0.007 C 
ENDBRANCH   7  11
BRANCH   8  14
ATOM     14  C   UNL     1      -7.363  -9.316  17.276  0.00  0.00    +0.113 C 
BRANCH  14   3
ATOM      2  O   UNL     1      -9.998 -10.126  16.459  0.00  0.00    -0.253 OA
ATOM      3  N   UNL     1      -8.490  -9.543  18.126  0.00  0.00    -0.299 N 
ATOM      4  N   UNL     1     -10.666 -10.091  18.682  0.00  0.00    -0.297 N 
ATOM     26  C   UNL     1      -9.746  -9.939  17.648  0.00  0.00    +0.300 C 
ATOM     33  H   UNL     1      -8.362  -9.481  19.131  0.00  0.00    +0.150 HD
ATOM     34  H   UNL     1     -10.373  -9.834  19.620  0.00  0.00    +0.151 HD
BRANCH   4  19
ATOM     19  C   UNL     1     -12.039 -10.492  18.467  0.00  0.00    +0.074 C 
ATOM     20  C   UNL     1     -12.260 -11.948  18.893  0.00  0.00    +0.022 C 
ATOM     21  C   UNL     1     -13.009  -9.549  19.186  0.00  0.00    +0.022 C 
ATOM     23  C   UNL     1     -12.233 -12.123  20.411  0.00  0.00    +0.002 C 
ATOM     24  C   UNL     1     -12.981  -9.728  20.704  0.00  0.00    +0.002 C 
ATOM     25  C   UNL     1     -13.214 -11.181  21.104  0.00  0.00    +0.000 C 
ENDBRANCH   4  19
ENDBRANCH  14   3
ENDBRANCH   8  14
BRANCH  10  15
ATOM     15  C   UNL     1      -2.813 -10.630  16.305  0.00  0.00    +0.103 C 
BRANCH  15  22
ATOM      1  O   UNL     1      -1.112 -11.814  15.058  0.00  0.00    -0.276 OA
ATOM      5  N   UNL     1      -2.273 -10.074  14.045  0.00  0.00    -0.311 N 
ATOM     22  C   UNL     1      -1.962 -10.928  15.092  0.00  0.00    +0.214 C 
ATOM     35  H   UNL     1      -2.998  -9.374  14.167  0.00  0.00    +0.149 HD
BRANCH   5  27
ATOM     27  C   UNL     1      -1.615 -10.130  12.759  0.00  0.00    +0.141 C 
BRANCH  27  28
ATOM      6  N   UNL     1      -3.859 -12.283  10.607  0.00  0.00    -0.263 NA
ATOM     28  C   UNL     1      -2.555 -10.542  11.663  0.00  0.00    -0.012 A 
ATOM     29  C   UNL     1      -2.992  -9.627  10.712  0.00  0.00    +0.008 A 
ATOM     30  C   UNL     1      -3.014 -11.846  11.568  0.00  0.00    +0.115 A 
ATOM     31  C   UNL     1      -3.861 -10.039   9.707  0.00  0.00    +0.020 A 
ATOM     32  C   UNL     1      -4.261 -11.365   9.699  0.00  0.00    +0.111 A 
ENDBRANCH  27  28
ENDBRANCH   5  27
ENDBRANCH  15  22
ENDBRANCH  10  15
TORSDOF 8
ENDMDL
MODEL 2
REMARK VINA RESULT:      -6.6     28.068     32.177
REMARK  Name = 38028459
REMARK  11 active torsions:
REMARK  status: ('A' for Active; 'I' for Inactive)
REMARK    1  A    between atoms: N_3  and  C_14
REMARK    2  A    between atoms: N_4  and  C_19
REMARK    3  A    between atoms: N_5  and  C_27
REMARK    4  A    between atoms: C_7  and  C_11
REMARK    5  A    between atoms: C_8  and  C_14
REMARK    6  A    between atoms: C_10  and  C_15
REMARK    7  A    between atoms: C_11  and  C_16
REMARK    8  A    between atoms: C_11  and  C_17
REMARK    9  A    between atoms: C_12  and  C_18
REMARK   10  A    between atoms: C_15  and  C_22
REMARK   11  A    between atoms: C_27  and  C_28
REMARK                            x       y       z     vdW  Elec       q    Type
REMARK                         _______ _______ _______ _____ _____    ______ ____
ROOT
ATOM      7  C   UNL     1      17.336   7.705  21.152  0.00  0.00    +0.000 C 
ATOM      8  C   UNL     1      18.884   7.759  21.162  0.00  0.00    +0.032 C 
ATOM      9  C   UNL     1      16.763   8.891  20.362  0.00  0.00    +0.012 C 
ATOM     10  C   UNL     1      17.201  10.247  20.948  0.00  0.00    +0.023 C 
ATOM     12  C   UNL     1      18.687  10.281  21.238  0.00  0.00    -0.073 C 
ATOM     13  C   UNL     1      19.425   9.160  21.316  0.00  0.00    -0.022 C 
ATOM     18  C   UNL     1      19.316  11.638  21.390  0.00  0.00    +0.039 C 
ENDROOT
BRANCH   7  11
ATOM     11  C   UNL     1      16.816   6.390  20.562  0.00  0.00    -0.013 C 
ATOM     16  C   UNL     1      15.329   6.503  20.238  0.00  0.00    +0.007 C 
ATOM     17  C   UNL     1      17.614   6.013  19.318  0.00  0.00    +0.007 C 
ENDBRANCH   7  11
BRANCH   8  14
ATOM     14  C   UNL     1      19.461   6.863  22.264  0.00  0.00    +0.113 C 
BRANCH  14   3
ATOM      2  O   UNL     1      21.541   5.610  23.803  0.00  0.00    -0.253 OA
ATOM      3  N   UNL     1      20.540   6.072  21.760  0.00  0.00    -0.299 N 
ATOM      4  N   UNL     1      22.453   4.775  21.838  0.00  0.00    -0.297 N 
ATOM     26  C   UNL     1      21.517   5.493  22.579  0.00  0.00    +0.300 C 
ATOM     33  H   UNL     1      20.568   5.861  20.767  0.00  0.00    +0.150 HD
ATOM     34  H   UNL     1      22.383   4.809  20.826  0.00  0.00    +0.151 HD
BRANCH   4  19
ATOM     19  C   UNL     1      23.570   4.078  22.437  0.00  0.00    +0.074 C 
ATOM     20  C   UNL     1      23.384   2.559  22.344  0.00  0.00    +0.022 C 
ATOM     21  C   UNL     1      24.895   4.514  21.804  0.00  0.00    +0.022 C 
ATOM     23  C   UNL     1      23.556   2.035  20.920  0.00  0.00    +0.002 C 
ATOM     24  C   UNL     1      25.066   3.986  20.380  0.00  0.00    +0.002 C 
ATOM     25  C   UNL     1      24.887   2.473  20.315  0.00  0.00    +0.000 C 
ENDBRANCH   4  19
ENDBRANCH  14   3
ENDBRANCH   8  14
BRANCH  10  15
ATOM     15  C   UNL     1      16.389  10.595  22.200  0.00  0.00    +0.103 C 
BRANCH  15  22
ATOM      1  O   UNL     1      14.332   9.421  22.694  0.00  0.00    -0.276 OA
ATOM      5  N   UNL     1      14.347  11.063  21.050  0.00  0.00    -0.311 N 
ATOM     22  C   UNL     1      14.920  10.273  22.035  0.00  0.00    +0.214 C 
ATOM     35  H   UNL     1      14.916  11.747  20.561  0.00  0.00    +0.149 HD
BRANCH   5  27
ATOM     27  C   UNL     1      12.953  10.972  20.677  0.00  0.00    +0.141 C 
BRANCH  27  28
ATOM      6  N   UNL     1      11.720   7.775  19.079  0.00  0.00    -0.263 NA
ATOM     28  C   UNL     1      12.714   9.903  19.651  0.00  0.00    -0.012 A 
ATOM     29  C   UNL     1      13.234  10.014  18.366  0.00  0.00    +0.008 A 
ATOM     30  C   UNL     1      11.971   8.774  19.955  0.00  0.00    +0.115 A 
ATOM     31  C   UNL     1      12.997   9.007  17.437  0.00  0.00    +0.020 A 
ATOM     32  C   UNL     1      12.241   7.918  17.839  0.00  0.00    +0.111 A 
ENDBRANCH  27  28
ENDBRANCH   5  27
ENDBRANCH  15  22
ENDBRANCH  10  15
TORSDOF 8
ENDMDL
MODEL 3
REMARK VINA RESULT:      -6.6     27.356     31.058
REMARK  Name = 38028459
REMARK  11 active torsions:
REMARK  status: ('A' for Active; 'I' for Inactive)
REMARK    1  A    between atoms: N_3  and  C_14
REMARK    2  A    between atoms: N_4  and  C_19
REMARK    3  A    between atoms: N_5  and  C_27
REMARK    4  A    between atoms: C_7  and  C_11
REMARK    5  A    between atoms: C_8  and  C_14
REMARK    6  A    between atoms: C_10  and  C_15
REMARK    7  A    between atoms: C_11  and  C_16
REMARK    8  A    between atoms: C_11  and  C_17
REMARK    9  A    between atoms: C_12  and  C_18
REMARK   10  A    between atoms: C_15  and  C_22
REMARK   11  A    between atoms: C_27  and  C_28
REMARK                            x       y       z     vdW  Elec       q    Type
REMARK                         _______ _______ _______ _____ _____    ______ ____
ROOT
ATOM      7  C   UNL     1      13.244   8.636  19.541  0.00  0.00    +0.000 C 
ATOM      8  C   UNL     1      13.722   7.681  18.419  0.00  0.00    +0.032 C 
ATOM      9  C   UNL     1      12.484   9.829  18.943  0.00  0.00    +0.012 C 
ATOM     10  C   UNL     1      13.347  10.633  17.953  0.00  0.00    +0.023 C 
ATOM     12  C   UNL     1      14.069   9.730  16.974  0.00  0.00    -0.073 C 
ATOM     13  C   UNL     1      14.214   8.412  17.192  0.00  0.00    -0.022 C 
ATOM     18  C   UNL     1      14.580  10.370  15.713  0.00  0.00    +0.039 C 
ENDROOT
BRANCH   7  11
ATOM     11  C   UNL     1      12.358   7.915  20.563  0.00  0.00    -0.013 C 
ATOM     16  C   UNL     1      12.912   8.101  21.972  0.00  0.00    +0.007 C 
ATOM     17  C   UNL     1      10.923   8.425  20.474  0.00  0.00    +0.007 C 
ENDBRANCH   7  11
BRANCH   8  14
ATOM     14  C   UNL     1      14.817   6.736  18.926  0.00  0.00    +0.113 C 
BRANCH  14   3
ATOM      2  O   UNL     1      16.248   6.370  21.393  0.00  0.00    -0.253 OA
ATOM      3  N   UNL     1      15.957   7.474  19.370  0.00  0.00    -0.299 N 
ATOM      4  N   UNL     1      17.683   8.089  20.781  0.00  0.00    -0.297 N 
ATOM     26  C   UNL     1      16.601   7.234  20.591  0.00  0.00    +0.300 C 
ATOM     33  H   UNL     1      16.366   8.162  18.746  0.00  0.00    +0.150 HD
ATOM     34  H   UNL     1      17.839   8.817  20.090  0.00  0.00    +0.151 HD
BRANCH   4  19
ATOM     19  C   UNL     1      18.521   8.056  21.959  0.00  0.00    +0.074 C 
ATOM     20  C   UNL     1      19.543   6.916  21.875  0.00  0.00    +0.022 C 
ATOM     21  C   UNL     1      19.211   9.405  22.184  0.00  0.00    +0.022 C 
ATOM     23  C   UNL     1      20.643   7.192  20.851  0.00  0.00    +0.002 C 
ATOM     24  C   UNL     1      20.313   9.677  21.159  0.00  0.00    +0.002 C 
ATOM     25  C   UNL     1      21.322   8.536  21.102  0.00  0.00    +0.000 C 
ENDBRANCH   4  19
ENDBRANCH  14   3
ENDBRANCH   8  14
BRANCH  10  15
ATOM     15  C   UNL     1      14.336  11.541  18.694  0.00  0.00    +0.103 C 
BRANCH  15  22
ATOM      1  O   UNL     1      12.877  13.421  19.129  0.00  0.00    -0.276 OA
ATOM      5  N   UNL     1      13.959  12.377  20.901  0.00  0.00    -0.311 N 
ATOM     22  C   UNL     1      13.633  12.557  19.566  0.00  0.00    +0.214 C 
ATOM     35  H   UNL     1      14.593  11.629  21.166  0.00  0.00    +0.149 HD
BRANCH   5  27
ATOM     27  C   UNL     1      13.433  13.207  21.961  0.00  0.00    +0.141 C 
BRANCH  27  28
ATOM      6  N   UNL     1      12.154  11.823  25.239  0.00  0.00    -0.263 NA
ATOM     28  C   UNL     1      12.617  12.416  22.942  0.00  0.00    -0.012 A 
ATOM     29  C   UNL     1      11.602  11.568  22.510  0.00  0.00    +0.008 A 
ATOM     30  C   UNL     1      12.851  12.507  24.304  0.00  0.00    +0.115 A 
ATOM     31  C   UNL     1      10.864  10.847  23.443  0.00  0.00    +0.020 A 
ATOM     32  C   UNL     1      11.177  11.008  24.783  0.00  0.00    +0.111 A 
ENDBRANCH  27  28
ENDBRANCH   5  27
ENDBRANCH  15  22
ENDBRANCH  10  15
TORSDOF 8
ENDMDL
MODEL 4
REMARK VINA RESULT:      -6.5      3.319      9.021
REMARK  Name = 38028459
REMARK  11 active torsions:
REMARK  status: ('A' for Active; 'I' for Inactive)
REMARK    1  A    between atoms: N_3  and  C_14
REMARK    2  A    between atoms: N_4  and  C_19
REMARK    3  A    between atoms: N_5  and  C_27
REMARK    4  A    between atoms: C_7  and  C_11
REMARK    5  A    between atoms: C_8  and  C_14
REMARK    6  A    between atoms: C_10  and  C_15
REMARK    7  A    between atoms: C_11  and  C_16
REMARK    8  A    between atoms: C_11  and  C_17
REMARK    9  A    between atoms: C_12  and  C_18
REMARK   10  A    between atoms: C_15  and  C_22
REMARK   11  A    between atoms: C_27  and  C_28
REMARK                            x       y       z     vdW  Elec       q    Type
REMARK                         _______ _______ _______ _____ _____    ______ ____
ROOT
ATOM      7  C   UNL     1      -6.839 -10.907  17.890  0.00  0.00    +0.000 C 
ATOM      8  C   UNL     1      -6.162 -11.265  16.544  0.00  0.00    +0.032 C 
ATOM      9  C   UNL     1      -8.368 -10.954  17.751  0.00  0.00    +0.012 C 
ATOM     10  C   UNL     1      -8.885  -9.984  16.672  0.00  0.00    +0.023 C 
ATOM     12  C   UNL     1      -8.085 -10.091  15.390  0.00  0.00    -0.073 C 
ATOM     13  C   UNL     1      -6.877 -10.679  15.349  0.00  0.00    -0.022 C 
ATOM     18  C   UNL     1      -8.727  -9.547  14.145  0.00  0.00    +0.039 C 
ENDROOT
BRANCH   7  11
ATOM     11  C   UNL     1      -6.391 -11.842  19.019  0.00  0.00    -0.013 C 
ATOM     16  C   UNL     1      -5.609 -11.066  20.074  0.00  0.00    +0.007 C 
ATOM     17  C   UNL     1      -7.598 -12.537  19.643  0.00  0.00    +0.007 C 
ENDBRANCH   7  11
BRANCH   8  14
ATOM     14  C   UNL     1      -4.694 -10.825  16.528  0.00  0.00    +0.113 C 
BRANCH  14   3
ATOM      2  O   UNL     1      -3.008 -12.143  14.608  0.00  0.00    -0.253 OA
ATOM      3  N   UNL     1      -4.325 -10.337  15.237  0.00  0.00    -0.299 N 
ATOM      4  N   UNL     1      -3.295 -10.346  13.166  0.00  0.00    -0.297 N 
ATOM     26  C   UNL     1      -3.496 -11.042  14.355  0.00  0.00    +0.300 C 
ATOM     33  H   UNL     1      -4.735  -9.467  14.909  0.00  0.00    +0.150 HD
ATOM     34  H   UNL     1      -3.682  -9.410  13.094  0.00  0.00    +0.151 HD
BRANCH   4  19
ATOM     19  C   UNL     1      -2.478 -10.847  12.083  0.00  0.00    +0.074 C 
ATOM     20  C   UNL     1      -3.195 -11.974  11.330  0.00  0.00    +0.022 C 
ATOM     21  C   UNL     1      -2.067  -9.718  11.133  0.00  0.00    +0.022 C 
ATOM     23  C   UNL     1      -4.361 -11.463  10.485  0.00  0.00    +0.002 C 
ATOM     24  C   UNL     1      -3.236  -9.210  10.288  0.00  0.00    +0.002 C 
ATOM     25  C   UNL     1      -3.925 -10.346   9.540  0.00  0.00    +0.000 C 
ENDBRANCH   4  19
ENDBRANCH  14   3
ENDBRANCH   8  14
BRANCH  10  15
ATOM     15  C   UNL     1      -8.903  -8.541  17.190  0.00  0.00    +0.103 C 
BRANCH  15  22
ATOM      1  O   UNL     1     -11.257  -8.352  17.713  0.00  0.00    -0.276 OA
ATOM      5  N   UNL     1     -10.281  -6.825  16.258  0.00  0.00    -0.311 N 
ATOM     22  C   UNL     1     -10.280  -7.922  17.105  0.00  0.00    +0.214 C 
ATOM     35  H   UNL     1      -9.418  -6.543  15.802  0.00  0.00    +0.149 HD
BRANCH   5  27
ATOM     27  C   UNL     1     -11.462  -6.038  15.987  0.00  0.00    +0.141 C 
BRANCH  27  28
ATOM      6  N   UNL     1     -12.385  -7.522  12.634  0.00  0.00    -0.263 NA
ATOM     28  C   UNL     1     -11.886  -6.135  14.550  0.00  0.00    -0.012 A 
ATOM     29  C   UNL     1     -12.166  -4.994  13.807  0.00  0.00    +0.008 A 
ATOM     30  C   UNL     1     -12.010  -7.365  13.923  0.00  0.00    +0.115 A 
ATOM     31  C   UNL     1     -12.554  -5.116  12.477  0.00  0.00    +0.020 A 
ATOM     32  C   UNL     1     -12.648  -6.390  11.943  0.00  0.00    +0.111 A 
ENDBRANCH  27  28
ENDBRANCH   5  27
ENDBRANCH  15  22
ENDBRANCH  10  15
TORSDOF 8
ENDMDL
MODEL 5
REMARK VINA RESULT:      -6.4     28.202     31.447
REMARK  Name = 38028459
REMARK  11 active torsions:
REMARK  status: ('A' for Active; 'I' for Inactive)
REMARK    1  A    between atoms: N_3  and  C_14
REMARK    2  A    between atoms: N_4  and  C_19
REMARK    3  A    between atoms: N_5  and  C_27
REMARK    4  A    between atoms: C_7  and  C_11
REMARK    5  A    between atoms: C_8  and  C_14
REMARK    6  A    between atoms: C_10  and  C_15
REMARK    7  A    between atoms: C_11  and  C_16
REMARK    8  A    between atoms: C_11  and  C_17
REMARK    9  A    between atoms: C_12  and  C_18
REMARK   10  A    between atoms: C_15  and  C_22
REMARK   11  A    between atoms: C_27  and  C_28
REMARK                            x       y       z     vdW  Elec       q    Type
REMARK                         _______ _______ _______ _____ _____    ______ ____
ROOT
ATOM      7  C   UNL     1      18.360   7.148  20.394  0.00  0.00    +0.000 C 
ATOM      8  C   UNL     1      18.114   8.081  21.605  0.00  0.00    +0.032 C 
ATOM      9  C   UNL     1      19.133   5.895  20.830  0.00  0.00    +0.012 C 
ATOM     10  C   UNL     1      20.494   6.241  21.464  0.00  0.00    +0.023 C 
ATOM     12  C   UNL     1      20.372   7.352  22.487  0.00  0.00    -0.073 C 
ATOM     13  C   UNL     1      19.295   8.155  22.544  0.00  0.00    -0.022 C 
ATOM     18  C   UNL     1      21.497   7.489  23.474  0.00  0.00    +0.039 C 
ENDROOT
BRANCH   7  11
ATOM     11  C   UNL     1      17.049   6.739  19.715  0.00  0.00    -0.013 C 
ATOM     16  C   UNL     1      17.303   5.649  18.678  0.00  0.00    +0.007 C 
ATOM     17  C   UNL     1      16.037   6.268  20.756  0.00  0.00    +0.007 C 
ENDBRANCH   7  11
BRANCH   8  14
ATOM     14  C   UNL     1      17.736   9.494  21.147  0.00  0.00    +0.113 C 
BRANCH  14   3
ATOM      2  O   UNL     1      15.423   9.808  19.469  0.00  0.00    -0.253 OA
ATOM      3  N   UNL     1      16.411   9.825  21.570  0.00  0.00    -0.299 N 
ATOM      4  N   UNL     1      14.155  10.286  21.354  0.00  0.00    -0.297 N 
ATOM     26  C   UNL     1      15.333   9.960  20.686  0.00  0.00    +0.300 C 
ATOM     33  H   UNL     1      16.221   9.902  22.564  0.00  0.00    +0.150 HD
ATOM     34  H   UNL     1      14.210  10.464  22.352  0.00  0.00    +0.151 HD
BRANCH   4  19
ATOM     19  C   UNL     1      12.891  10.484  20.679  0.00  0.00    +0.074 C 
ATOM     20  C   UNL     1      12.183   9.147  20.433  0.00  0.00    +0.022 C 
ATOM     21  C   UNL     1      11.995  11.451  21.459  0.00  0.00    +0.022 C 
ATOM     23  C   UNL     1      11.633   8.531  21.718  0.00  0.00    +0.002 C 
ATOM     24  C   UNL     1      11.444  10.832  22.744  0.00  0.00    +0.002 C 
ATOM     25  C   UNL     1      10.736   9.509  22.472  0.00  0.00    +0.000 C 
ENDBRANCH   4  19
ENDBRANCH  14   3
ENDBRANCH   8  14
BRANCH  10  15
ATOM     15  C   UNL     1      21.529   6.594  20.390  0.00  0.00    +0.103 C 
BRANCH  15  22
ATOM      1  O   UNL     1      23.909   6.236  20.623  0.00  0.00    -0.276 OA
ATOM      5  N   UNL     1      22.485   4.405  20.476  0.00  0.00    -0.311 N 
ATOM     22  C   UNL     1      22.783   5.759  20.511  0.00  0.00    +0.214 C 
ATOM     35  H   UNL     1      21.518   4.107  20.384  0.00  0.00    +0.149 HD
BRANCH   5  27
ATOM     27  C   UNL     1      23.491   3.373  20.570  0.00  0.00    +0.141 C 
BRANCH  27  28
ATOM      6  N   UNL     1      24.243   0.861  23.296  0.00  0.00    -0.263 NA
ATOM     28  C   UNL     1      23.434   2.650  21.885  0.00  0.00    -0.012 A 
ATOM     29  C   UNL     1      22.563   3.059  22.889  0.00  0.00    +0.008 A 
ATOM     30  C   UNL     1      24.246   1.556  22.136  0.00  0.00    +0.115 A 
ATOM     31  C   UNL     1      22.531   2.368  24.096  0.00  0.00    +0.020 A 
ATOM     32  C   UNL     1      23.382   1.287  24.248  0.00  0.00    +0.111 A 
ENDBRANCH  27  28
ENDBRANCH   5  27
ENDBRANCH  15  22
ENDBRANCH  10  15
TORSDOF 8
ENDMDL
MODEL 6
REMARK VINA RESULT:      -6.4     25.126     28.618
REMARK  Name = 38028459
REMARK  11 active torsions:
REMARK  status: ('A' for Active; 'I' for Inactive)
REMARK    1  A    between atoms: N_3  and  C_14
REMARK    2  A    between atoms: N_4  and  C_19
REMARK    3  A    between atoms: N_5  and  C_27
REMARK    4  A    between atoms: C_7  and  C_11
REMARK    5  A    between atoms: C_8  and  C_14
REMARK    6  A    between atoms: C_10  and  C_15
REMARK    7  A    between atoms: C_11  and  C_16
REMARK    8  A    between atoms: C_11  and  C_17
REMARK    9  A    between atoms: C_12  and  C_18
REMARK   10  A    between atoms: C_15  and  C_22
REMARK   11  A    between atoms: C_27  and  C_28
REMARK                            x       y       z     vdW  Elec       q    Type
REMARK                         _______ _______ _______ _____ _____    ______ ____
ROOT
ATOM      7  C   UNL     1       8.980   8.414   4.973  0.00  0.00    +0.000 C 
ATOM      8  C   UNL     1       8.713   9.139   6.315  0.00  0.00    +0.032 C 
ATOM      9  C   UNL     1       8.427   6.982   5.017  0.00  0.00    +0.012 C 
ATOM     10  C   UNL     1       9.052   6.151   6.154  0.00  0.00    +0.023 C 
ATOM     12  C   UNL     1       9.068   6.911   7.463  0.00  0.00    -0.073 C 
ATOM     13  C   UNL     1       8.901   8.244   7.517  0.00  0.00    -0.022 C 
ATOM     18  C   UNL     1       9.234   6.097   8.716  0.00  0.00    +0.039 C 
ENDROOT
BRANCH   7  11
ATOM     11  C   UNL     1       8.371   9.169   3.787  0.00  0.00    -0.013 C 
ATOM     16  C   UNL     1       8.493   8.343   2.510  0.00  0.00    +0.007 C 
ATOM     17  C   UNL     1       6.912   9.515   4.070  0.00  0.00    +0.007 C 
ENDBRANCH   7  11
BRANCH   8  14
ATOM     14  C   UNL     1       9.598  10.382   6.459  0.00  0.00    +0.113 C 
BRANCH  14   3
ATOM      2  O   UNL     1      12.063   9.851   7.841  0.00  0.00    -0.253 OA
ATOM      3  N   UNL     1      10.881  10.161   5.867  0.00  0.00    -0.299 N 
ATOM      4  N   UNL     1      13.151   9.729   5.794  0.00  0.00    -0.297 N 
ATOM     26  C   UNL     1      12.039   9.907   6.612  0.00  0.00    +0.300 C 
ATOM     33  H   UNL     1      10.950  10.119   4.855  0.00  0.00    +0.150 HD
ATOM     34  H   UNL     1      13.033   9.874   4.796  0.00  0.00    +0.151 HD
BRANCH   4  19
ATOM     19  C   UNL     1      14.475   9.454   6.307  0.00  0.00    +0.074 C 
ATOM     20  C   UNL     1      14.742   7.945   6.360  0.00  0.00    +0.022 C 
ATOM     21  C   UNL     1      15.546  10.179   5.485  0.00  0.00    +0.022 C 
ATOM     23  C   UNL     1      14.932   7.336   4.972  0.00  0.00    +0.002 C 
ATOM     24  C   UNL     1      15.734   9.565   4.098  0.00  0.00    +0.002 C 
ATOM     25  C   UNL     1      16.010   8.068   4.177  0.00  0.00    +0.000 C 
ENDBRANCH   4  19
ENDBRANCH  14   3
ENDBRANCH   8  14
BRANCH  10  15
ATOM     15  C   UNL     1      10.460   5.674   5.778  0.00  0.00    +0.103 C 
BRANCH  15  22
ATOM      1  O   UNL     1      10.049   4.060   4.024  0.00  0.00    -0.276 OA
ATOM      5  N   UNL     1      11.181   6.028   3.527  0.00  0.00    -0.311 N 
ATOM     22  C   UNL     1      10.523   5.140   4.365  0.00  0.00    +0.214 C 
ATOM     35  H   UNL     1      11.536   6.903   3.903  0.00  0.00    +0.149 HD
BRANCH   5  27
ATOM     27  C   UNL     1      11.389   5.778   2.119  0.00  0.00    +0.141 C 
BRANCH  27  28
ATOM      6  N   UNL     1      13.891   3.001   1.549  0.00  0.00    -0.263 NA
ATOM     28  C   UNL     1      12.690   5.076   1.859  0.00  0.00    -0.012 A 
ATOM     29  C   UNL     1      13.870   5.793   1.692  0.00  0.00    +0.008 A 
ATOM     30  C   UNL     1      12.754   3.694   1.779  0.00  0.00    +0.115 A 
ATOM     31  C   UNL     1      15.060   5.115   1.454  0.00  0.00    +0.020 A 
ATOM     32  C   UNL     1      15.018   3.731   1.392  0.00  0.00    +0.111 A 
ENDBRANCH  27  28
ENDBRANCH   5  27
ENDBRANCH  15  22
ENDBRANCH  10  15
TORSDOF 8
ENDMDL
MODEL 7
REMARK VINA RESULT:      -6.3     26.768     30.464
REMARK  Name = 38028459
REMARK  11 active torsions:
REMARK  status: ('A' for Active; 'I' for Inactive)
REMARK    1  A    between atoms: N_3  and  C_14
REMARK    2  A    between atoms: N_4  and  C_19
REMARK    3  A    between atoms: N_5  and  C_27
REMARK    4  A    between atoms: C_7  and  C_11
REMARK    5  A    between atoms: C_8  and  C_14
REMARK    6  A    between atoms: C_10  and  C_15
REMARK    7  A    between atoms: C_11  and  C_16
REMARK    8  A    between atoms: C_11  and  C_17
REMARK    9  A    between atoms: C_12  and  C_18
REMARK   10  A    between atoms: C_15  and  C_22
REMARK   11  A    between atoms: C_27  and  C_28
REMARK                            x       y       z     vdW  Elec       q    Type
REMARK                         _______ _______ _______ _____ _____    ______ ____
ROOT
ATOM      7  C   UNL     1      12.425   8.402  20.871  0.00  0.00    +0.000 C 
ATOM      8  C   UNL     1      13.644   7.463  21.047  0.00  0.00    +0.032 C 
ATOM      9  C   UNL     1      11.656   8.049  19.589  0.00  0.00    +0.012 C 
ATOM     10  C   UNL     1      12.540   8.156  18.332  0.00  0.00    +0.023 C 
ATOM     12  C   UNL     1      13.879   7.477  18.527  0.00  0.00    -0.073 C 
ATOM     13  C   UNL     1      14.350   7.162  19.746  0.00  0.00    -0.022 C 
ATOM     18  C   UNL     1      14.646   7.124  17.282  0.00  0.00    +0.039 C 
ENDROOT
BRANCH   7  11
ATOM     11  C   UNL     1      11.481   8.341  22.076  0.00  0.00    -0.013 C 
ATOM     16  C   UNL     1      10.788   9.685  22.279  0.00  0.00    +0.007 C 
ATOM     17  C   UNL     1      10.456   7.226  21.892  0.00  0.00    +0.007 C 
ENDBRANCH   7  11
BRANCH   8  14
ATOM     14  C   UNL     1      14.648   8.040  22.052  0.00  0.00    +0.113 C 
BRANCH  14   3
ATOM      2  O   UNL     1      17.170   9.357  21.639  0.00  0.00    -0.253 OA
ATOM      3  N   UNL     1      15.925   7.416  21.907  0.00  0.00    -0.299 N 
ATOM      4  N   UNL     1      18.213   7.284  21.601  0.00  0.00    -0.297 N 
ATOM     26  C   UNL     1      17.113   8.130  21.709  0.00  0.00    +0.300 C 
ATOM     33  H   UNL     1      15.991   6.409  22.020  0.00  0.00    +0.150 HD
ATOM     34  H   UNL     1      18.042   6.283  21.595  0.00  0.00    +0.151 HD
BRANCH   4  19
ATOM     19  C   UNL     1      19.562   7.762  21.391  0.00  0.00    +0.074 C 
ATOM     20  C   UNL     1      20.222   8.148  22.720  0.00  0.00    +0.022 C 
ATOM     21  C   UNL     1      20.402   6.728  20.635  0.00  0.00    +0.022 C 
ATOM     23  C   UNL     1      20.568   6.931  23.576  0.00  0.00    +0.002 C 
ATOM     24  C   UNL     1      20.749   5.512  21.495  0.00  0.00    +0.002 C 
ATOM     25  C   UNL     1      21.413   5.921  22.805  0.00  0.00    +0.000 C 
ENDBRANCH   4  19
ENDBRANCH  14   3
ENDBRANCH   8  14
BRANCH  10  15
ATOM     15  C   UNL     1      12.721   9.618  17.908  0.00  0.00    +0.103 C 
BRANCH  15  22
ATOM      1  O   UNL     1      11.934   9.085  15.684  0.00  0.00    -0.276 OA
ATOM      5  N   UNL     1      13.425  10.842  15.980  0.00  0.00    -0.311 N 
ATOM     22  C   UNL     1      12.629   9.792  16.408  0.00  0.00    +0.214 C 
ATOM     35  H   UNL     1      13.962  11.374  16.658  0.00  0.00    +0.149 HD
BRANCH   5  27
ATOM     27  C   UNL     1      13.533  11.237  14.594  0.00  0.00    +0.141 C 
BRANCH  27  28
ATOM      6  N   UNL     1      16.403  12.830  12.716  0.00  0.00    -0.263 NA
ATOM     28  C   UNL     1      14.926  11.668  14.237  0.00  0.00    -0.012 A 
ATOM     29  C   UNL     1      16.008  11.332  15.044  0.00  0.00    +0.008 A 
ATOM     30  C   UNL     1      15.174  12.412  13.095  0.00  0.00    +0.115 A 
ATOM     31  C   UNL     1      17.287  11.744  14.687  0.00  0.00    +0.020 A 
ATOM     32  C   UNL     1      17.430  12.484  13.524  0.00  0.00    +0.111 A 
ENDBRANCH  27  28
ENDBRANCH   5  27
ENDBRANCH  15  22
ENDBRANCH  10  15
TORSDOF 8
ENDMDL
MODEL 8
REMARK VINA RESULT:      -6.3     28.677     32.230
REMARK  Name = 38028459
REMARK  11 active torsions:
REMARK  status: ('A' for Active; 'I' for Inactive)
REMARK    1  A    between atoms: N_3  and  C_14
REMARK    2  A    between atoms: N_4  and  C_19
REMARK    3  A    between atoms: N_5  and  C_27
REMARK    4  A    between atoms: C_7  and  C_11
REMARK    5  A    between atoms: C_8  and  C_14
REMARK    6  A    between atoms: C_10  and  C_15
REMARK    7  A    between atoms: C_11  and  C_16
REMARK    8  A    between atoms: C_11  and  C_17
REMARK    9  A    between atoms: C_12  and  C_18
REMARK   10  A    between atoms: C_15  and  C_22
REMARK   11  A    between atoms: C_27  and  C_28
REMARK                            x       y       z     vdW  Elec       q    Type
REMARK                         _______ _______ _______ _____ _____    ______ ____
ROOT
ATOM      7  C   UNL     1      20.191   5.975  21.817  0.00  0.00    +0.000 C 
ATOM      8  C   UNL     1      20.565   7.266  22.586  0.00  0.00    +0.032 C 
ATOM      9  C   UNL     1      19.508   6.323  20.485  0.00  0.00    +0.012 C 
ATOM     10  C   UNL     1      18.231   7.160  20.687  0.00  0.00    +0.023 C 
ATOM     12  C   UNL     1      18.455   8.305  21.652  0.00  0.00    -0.073 C 
ATOM     13  C   UNL     1      19.511   8.342  22.483  0.00  0.00    -0.022 C 
ATOM     18  C   UNL     1      17.460   9.431  21.608  0.00  0.00    +0.039 C 
ENDROOT
BRANCH   7  11
ATOM     11  C   UNL     1      21.415   5.091  21.557  0.00  0.00    -0.013 C 
ATOM     16  C   UNL     1      21.002   3.802  20.853  0.00  0.00    +0.007 C 
ATOM     17  C   UNL     1      22.452   5.849  20.734  0.00  0.00    +0.007 C 
ENDBRANCH   7  11
BRANCH   8  14
ATOM     14  C   UNL     1      20.850   6.967  24.063  0.00  0.00    +0.113 C 
BRANCH  14   3
ATOM      2  O   UNL     1      21.806   8.612  26.219  0.00  0.00    -0.253 OA
ATOM      3  N   UNL     1      20.064   7.809  24.910  0.00  0.00    -0.299 N 
ATOM      4  N   UNL     1      19.628   9.310  26.613  0.00  0.00    -0.297 N 
ATOM     26  C   UNL     1      20.608   8.583  25.943  0.00  0.00    +0.300 C 
ATOM     33  H   UNL     1      19.072   7.906  24.716  0.00  0.00    +0.150 HD
ATOM     34  H   UNL     1      18.659   9.152  26.354  0.00  0.00    +0.151 HD
BRANCH   4  19
ATOM     19  C   UNL     1      19.917  10.191  27.724  0.00  0.00    +0.074 C 
ATOM     20  C   UNL     1      20.119  11.633  27.244  0.00  0.00    +0.022 C 
ATOM     21  C   UNL     1      18.821  10.110  28.792  0.00  0.00    +0.022 C 
ATOM     23  C   UNL     1      18.814  12.289  26.798  0.00  0.00    +0.002 C 
ATOM     24  C   UNL     1      17.517  10.770  28.343  0.00  0.00    +0.002 C 
ATOM     25  C   UNL     1      17.742  12.205  27.882  0.00  0.00    +0.000 C 
ENDBRANCH   4  19
ENDBRANCH  14   3
ENDBRANCH   8  14
BRANCH  10  15
ATOM     15  C   UNL     1      17.061   6.279  21.140  0.00  0.00    +0.103 C 
BRANCH  15  22
ATOM      1  O   UNL     1      16.064   6.125  18.942  0.00  0.00    -0.276 OA
ATOM      5  N   UNL     1      14.710   6.526  20.788  0.00  0.00    -0.311 N 
ATOM     22  C   UNL     1      15.918   6.295  20.149  0.00  0.00    +0.214 C 
ATOM     35  H   UNL     1      14.691   6.651  21.795  0.00  0.00    +0.149 HD
BRANCH   5  27
ATOM     27  C   UNL     1      13.448   6.594  20.087  0.00  0.00    +0.141 C 
BRANCH  27  28
ATOM      6  N   UNL     1      11.612   9.561  21.547  0.00  0.00    -0.263 NA
ATOM     28  C   UNL     1      12.428   7.397  20.842  0.00  0.00    -0.012 A 
ATOM     29  C   UNL     1      11.386   6.774  21.521  0.00  0.00    +0.008 A 
ATOM     30  C   UNL     1      12.496   8.780  20.885  0.00  0.00    +0.115 A 
ATOM     31  C   UNL     1      10.457   7.544  22.213  0.00  0.00    +0.020 A 
ATOM     32  C   UNL     1      10.613   8.920  22.195  0.00  0.00    +0.111 A 
ENDBRANCH  27  28
ENDBRANCH   5  27
ENDBRANCH  15  22
ENDBRANCH  10  15
TORSDOF 8
ENDMDL
MODEL 9
REMARK VINA RESULT:      -6.2     28.254     31.157
REMARK  Name = 38028459
REMARK  11 active torsions:
REMARK  status: ('A' for Active; 'I' for Inactive)
REMARK    1  A    between atoms: N_3  and  C_14
REMARK    2  A    between atoms: N_4  and  C_19
REMARK    3  A    between atoms: N_5  and  C_27
REMARK    4  A    between atoms: C_7  and  C_11
REMARK    5  A    between atoms: C_8  and  C_14
REMARK    6  A    between atoms: C_10  and  C_15
REMARK    7  A    between atoms: C_11  and  C_16
REMARK    8  A    between atoms: C_11  and  C_17
REMARK    9  A    between atoms: C_12  and  C_18
REMARK   10  A    between atoms: C_15  and  C_22
REMARK   11  A    between atoms: C_27  and  C_28
REMARK                            x       y       z     vdW  Elec       q    Type
REMARK                         _______ _______ _______ _____ _____    ______ ____
ROOT
ATOM      7  C   UNL     1      12.543  11.117  22.190  0.00  0.00    +0.000 C 
ATOM      8  C   UNL     1      11.095  10.793  22.635  0.00  0.00    +0.032 C 
ATOM      9  C   UNL     1      12.917  10.299  20.945  0.00  0.00    +0.012 C 
ATOM     10  C   UNL     1      12.810   8.783  21.191  0.00  0.00    +0.023 C 
ATOM     12  C   UNL     1      11.511   8.414  21.877  0.00  0.00    -0.073 C 
ATOM     13  C   UNL     1      10.751   9.328  22.505  0.00  0.00    -0.022 C 
ATOM     18  C   UNL     1      11.081   6.977  21.785  0.00  0.00    +0.039 C 
ENDROOT
BRANCH   7  11
ATOM     11  C   UNL     1      12.730  12.611  21.905  0.00  0.00    -0.013 C 
ATOM     16  C   UNL     1      14.136  13.056  22.297  0.00  0.00    +0.007 C 
ATOM     17  C   UNL     1      12.459  12.909  20.434  0.00  0.00    +0.007 C 
ENDBRANCH   7  11
BRANCH   8  14
ATOM     14  C   UNL     1      10.843  11.253  24.075  0.00  0.00    +0.113 C 
BRANCH  14   3
ATOM      2  O   UNL     1      12.081  13.383  25.557  0.00  0.00    -0.253 OA
ATOM      3  N   UNL     1      12.041  11.171  24.850  0.00  0.00    -0.299 N 
ATOM      4  N   UNL     1      13.750  11.912  26.220  0.00  0.00    -0.297 N 
ATOM     26  C   UNL     1      12.582  12.259  25.547  0.00  0.00    +0.300 C 
ATOM     33  H   UNL     1      12.490  10.267  24.960  0.00  0.00    +0.150 HD
ATOM     34  H   UNL     1      14.117  10.975  26.080  0.00  0.00    +0.151 HD
BRANCH   4  19
ATOM     19  C   UNL     1      14.513  12.847  27.017  0.00  0.00    +0.074 C 
ATOM     20  C   UNL     1      15.171  12.145  28.210  0.00  0.00    +0.022 C 
ATOM     21  C   UNL     1      15.551  13.581  26.162  0.00  0.00    +0.022 C 
ATOM     23  C   UNL     1      16.331  11.244  27.790  0.00  0.00    +0.002 C 
ATOM     24  C   UNL     1      16.711  12.677  25.746  0.00  0.00    +0.002 C 
ATOM     25  C   UNL     1      17.356  11.999  26.950  0.00  0.00    +0.000 C 
ENDBRANCH   4  19
ENDBRANCH  14   3
ENDBRANCH   8  14
BRANCH  10  15
ATOM     15  C   UNL     1      14.016   8.265  21.983  0.00  0.00    +0.103 C 
BRANCH  15  22
ATOM      1  O   UNL     1      14.458   6.708  20.186  0.00  0.00    -0.276 OA
ATOM      5  N   UNL     1      16.153   7.236  21.686  0.00  0.00    -0.311 N 
ATOM     22  C   UNL     1      14.868   7.317  21.170  0.00  0.00    +0.214 C 
ATOM     35  H   UNL     1      16.400   7.785  22.504  0.00  0.00    +0.149 HD
BRANCH   5  27
ATOM     27  C   UNL     1      17.184   6.404  21.109  0.00  0.00    +0.141 C 
BRANCH  27  28
ATOM      6  N   UNL     1      20.895   6.975  20.657  0.00  0.00    -0.263 NA
ATOM     28  C   UNL     1      18.523   7.082  21.117  0.00  0.00    -0.012 A 
ATOM     29  C   UNL     1      18.662   8.390  21.568  0.00  0.00    +0.008 A 
ATOM     30  C   UNL     1      19.660   6.424  20.676  0.00  0.00    +0.115 A 
ATOM     31  C   UNL     1      19.916   8.991  21.565  0.00  0.00    +0.020 A 
ATOM     32  C   UNL     1      20.990   8.248  21.104  0.00  0.00    +0.111 A 
ENDBRANCH  27  28
ENDBRANCH   5  27
ENDBRANCH  15  22
ENDBRANCH  10  15
TORSDOF 8
ENDMDL
MODEL 10
REMARK VINA RESULT:      -6.2      3.563      6.862
REMARK  Name = 38028459
REMARK  11 active torsions:
REMARK  status: ('A' for Active; 'I' for Inactive)
REMARK    1  A    between atoms: N_3  and  C_14
REMARK    2  A    between atoms: N_4  and  C_19
REMARK    3  A    between atoms: N_5  and  C_27
REMARK    4  A    between atoms: C_7  and  C_11
REMARK    5  A    between atoms: C_8  and  C_14
REMARK    6  A    between atoms: C_10  and  C_15
REMARK    7  A    between atoms: C_11  and  C_16
REMARK    8  A    between atoms: C_11  and  C_17
REMARK    9  A    between atoms: C_12  and  C_18
REMARK   10  A    between atoms: C_15  and  C_22
REMARK   11  A    between atoms: C_27  and  C_28
REMARK                            x       y       z     vdW  Elec       q    Type
REMARK                         _______ _______ _______ _____ _____    ______ ____
ROOT
ATOM      7  C   UNL     1      -3.229 -12.191  12.484  0.00  0.00    +0.000 C 
ATOM      8  C   UNL     1      -2.153 -11.081  12.397  0.00  0.00    +0.032 C 
ATOM      9  C   UNL     1      -3.741 -12.552  11.081  0.00  0.00    +0.012 C 
ATOM     10  C   UNL     1      -4.348 -11.339  10.352  0.00  0.00    +0.023 C 
ATOM     12  C   UNL     1      -3.458 -10.118  10.455  0.00  0.00    -0.073 C 
ATOM     13  C   UNL     1      -2.473 -10.027  11.365  0.00  0.00    -0.022 C 
ATOM     18  C   UNL     1      -3.695  -9.022   9.454  0.00  0.00    +0.039 C 
ENDROOT
BRANCH   7  11
ATOM     11  C   UNL     1      -2.697 -13.447  13.181  0.00  0.00    -0.013 C 
ATOM     16  C   UNL     1      -3.712 -13.963  14.197  0.00  0.00    +0.007 C 
ATOM     17  C   UNL     1      -2.365 -14.525  12.154  0.00  0.00    +0.007 C 
ENDBRANCH   7  11
BRANCH   8  14
ATOM     14  C   UNL     1      -1.935 -10.414  13.760  0.00  0.00    +0.113 C 
BRANCH  14   3
ATOM      2  O   UNL     1      -2.060 -10.944  16.583  0.00  0.00    -0.253 OA
ATOM      3  N   UNL     1      -3.114 -10.503  14.562  0.00  0.00    -0.299 N 
ATOM      4  N   UNL     1      -4.375 -10.798  16.478  0.00  0.00    -0.297 N 
ATOM     26  C   UNL     1      -3.092 -10.765  15.938  0.00  0.00    +0.300 C 
ATOM     33  H   UNL     1      -4.012 -10.302  14.132  0.00  0.00    +0.150 HD
ATOM     34  H   UNL     1      -5.160 -10.715  15.840  0.00  0.00    +0.151 HD
BRANCH   4  19
ATOM     19  C   UNL     1      -4.638 -11.050  17.878  0.00  0.00    +0.074 C 
ATOM     20  C   UNL     1      -5.938 -10.372  18.324  0.00  0.00    +0.022 C 
ATOM     21  C   UNL     1      -4.665 -12.553  18.173  0.00  0.00    +0.022 C 
ATOM     23  C   UNL     1      -7.179 -11.060  17.757  0.00  0.00    +0.002 C 
ATOM     24  C   UNL     1      -5.909 -13.238  17.606  0.00  0.00    +0.002 C 
ATOM     25  C   UNL     1      -7.190 -12.553  18.072  0.00  0.00    +0.000 C 
ENDBRANCH   4  19
ENDBRANCH  14   3
ENDBRANCH   8  14
BRANCH  10  15
ATOM     15  C   UNL     1      -5.759 -11.035  10.869  0.00  0.00    +0.103 C 
BRANCH  15  22
ATOM      1  O   UNL     1      -7.988 -10.880   9.941  0.00  0.00    -0.276 OA
ATOM      5  N   UNL     1      -6.172 -11.156   8.518  0.00  0.00    -0.311 N 
ATOM     22  C   UNL     1      -6.781 -11.011   9.755  0.00  0.00    +0.214 C 
ATOM     35  H   UNL     1      -5.162 -11.254   8.465  0.00  0.00    +0.149 HD
BRANCH   5  27
ATOM     27  C   UNL     1      -6.905 -11.170   7.273  0.00  0.00    +0.141 C 
BRANCH  27  28
ATOM      6  N   UNL     1      -5.856 -12.142   3.772  0.00  0.00    -0.263 NA
ATOM     28  C   UNL     1      -6.038 -11.562   6.113  0.00  0.00    -0.012 A 
ATOM     29  C   UNL     1      -4.664 -11.714   6.265  0.00  0.00    +0.008 A 
ATOM     30  C   UNL     1      -6.580 -11.785   4.857  0.00  0.00    +0.115 A 
ATOM     31  C   UNL     1      -3.886 -12.080   5.172  0.00  0.00    +0.020 A 
ATOM     32  C   UNL     1      -4.524 -12.280   3.959  0.00  0.00    +0.111 A 
ENDBRANCH  27  28
ENDBRANCH   5  27
ENDBRANCH  15  22
ENDBRANCH  10  15
TORSDOF 8
ENDMDL
