REMARK  Name = 45361608
REMARK  10 active torsions:
REMARK  status: ('A' for Active; 'I' for Inactive)
REMARK    1  A    between atoms: O_2  and  C_11
REMARK    2  A    between atoms: N_5  and  C_15
REMARK    3  A    between atoms: N_6  and  C_25
REMARK    4  A    between atoms: C_8  and  C_18
REMARK    5  A    between atoms: C_10  and  C_20
REMARK    6  A    between atoms: C_14  and  C_19
REMARK    7  A    between atoms: C_19  and  C_21
REMARK    8  A    between atoms: C_19  and  C_22
REMARK    9  A    between atoms: C_23  and  C_24
REMARK   10  A    between atoms: C_25  and  C_27
REMARK                            x       y       z     vdW  Elec       q    Type
REMARK                         _______ _______ _______ _____ _____    ______ ____
ROOT
ATOM      8  C   UNL     1       0.689  -1.083  -1.766  0.00  0.00    -0.027 C 
ATOM      9  C   UNL     1       0.388  -1.717  -0.367  0.00  0.00    +0.028 C 
ATOM     10  C   UNL     1      -0.870  -1.045   0.291  0.00  0.00    +0.012 C 
ATOM     11  C   UNL     1       1.665  -1.759   0.520  0.00  0.00    +0.122 C 
ATOM     12  C   UNL     1       1.860  -1.841  -2.434  0.00  0.00    +0.007 C 
ATOM     13  C   UNL     1      -0.554  -1.244  -2.671  0.00  0.00    +0.009 C 
ATOM     14  C   UNL     1       2.863  -2.426  -0.194  0.00  0.00    +0.029 C 
ATOM     15  C   UNL     1      -2.096  -1.147  -0.660  0.00  0.00    +0.076 C 
ATOM     16  C   UNL     1       3.124  -1.850  -1.585  0.00  0.00    +0.007 C 
ATOM     17  C   UNL     1      -1.813  -0.634  -2.072  0.00  0.00    +0.023 C 
ATOM     18  C   UNL     1       1.059   0.419  -1.670  0.00  0.00    +0.011 C 
ATOM     20  C   UNL     1      -1.242  -1.642   1.660  0.00  0.00    +0.010 C 
ENDROOT
BRANCH  15   5
ATOM      4  O   UNL     1      -4.858  -1.837  -1.032  0.00  0.00    -0.269 OA
ATOM      5  N   UNL     1      -3.243  -0.436  -0.135  0.00  0.00    -0.307 N 
ATOM     23  C   UNL     1      -4.542  -0.851  -0.371  0.00  0.00    +0.263 C 
ATOM     36  H   UNL     1      -3.083   0.428   0.376  0.00  0.00    +0.149 HD
BRANCH  23  24
ATOM      7  N   UNL     1      -5.181   1.081   0.907  0.00  0.00    -0.250 NA
ATOM     24  C   UNL     1      -5.608   0.002   0.215  0.00  0.00    +0.125 A 
ATOM     26  C   UNL     1      -6.942  -0.327   0.035  0.00  0.00    +0.033 A 
ATOM     28  C   UNL     1      -7.900   0.505   0.604  0.00  0.00    +0.004 A 
ATOM     29  C   UNL     1      -6.141   1.867   1.446  0.00  0.00    +0.111 A 
ATOM     32  C   UNL     1      -7.500   1.626   1.324  0.00  0.00    +0.020 A 
ENDBRANCH  23  24
ENDBRANCH  15   5
BRANCH  11   2
ATOM      2  O   UNL     1       1.406  -2.532   1.693  0.00  0.00    -0.391 OA
ATOM     37  H   UNL     1       1.146  -3.427   1.413  0.00  0.00    +0.210 HD
ENDBRANCH  11   2
BRANCH  14  19
ATOM     19  C   UNL     1       4.145  -2.341   0.645  0.00  0.00    +0.077 C 
ATOM     21  C   UNL     1       4.147  -3.429   1.712  0.00  0.00    +0.017 C 
BRANCH  19  22
ATOM      3  O   UNL     1       3.823  -0.680   2.378  0.00  0.00    -0.276 OA
ATOM      6  N   UNL     1       4.928  -0.057   0.437  0.00  0.00    -0.311 N 
ATOM     22  C   UNL     1       4.268  -0.953   1.265  0.00  0.00    +0.216 C 
ATOM     38  H   UNL     1       5.297  -0.373  -0.455  0.00  0.00    +0.149 HD
BRANCH   6  25
ATOM     25  C   UNL     1       5.165   1.320   0.806  0.00  0.00    +0.139 C 
BRANCH  25  27
ATOM      1  F   UNL     1       0.956   4.690  -0.814  0.00  0.00    -0.205 F 
ATOM     27  C   UNL     1       4.043   2.218   0.374  0.00  0.00    -0.030 A 
ATOM     30  C   UNL     1       4.078   2.823  -0.883  0.00  0.00    +0.008 A 
ATOM     31  C   UNL     1       2.965   2.449   1.229  0.00  0.00    +0.008 A 
ATOM     33  C   UNL     1       3.035   3.658  -1.284  0.00  0.00    +0.038 A 
ATOM     34  C   UNL     1       1.923   3.284   0.828  0.00  0.00    +0.038 A 
ATOM     35  C   UNL     1       1.958   3.888  -0.429  0.00  0.00    +0.123 A 
ENDBRANCH  25  27
ENDBRANCH   6  25
ENDBRANCH  19  22
ENDBRANCH  14  19
TORSDOF 7
