REMARK  Name = 75536095
REMARK  9 active torsions:
REMARK  status: ('A' for Active; 'I' for Inactive)
REMARK    1  A    between atoms: S_1  and  N_7
REMARK    2  A    between atoms: S_1  and  C_17
REMARK    3  A    between atoms: O_2  and  C_11
REMARK    4  A    between atoms: O_3  and  C_13
REMARK    5  A    between atoms: O_6  and  C_20
REMARK    6  A    between atoms: O_6  and  C_26
REMARK    7  A    between atoms: N_7  and  C_9
REMARK    8  A    between atoms: C_10  and  C_14
REMARK    9  A    between atoms: C_23  and  C_27
REMARK                            x       y       z     vdW  Elec       q    Type
REMARK                         _______ _______ _______ _____ _____    ______ ____
ROOT
ATOM      9  C   UNL     1      -2.165  -0.076   0.152  0.00  0.00    +0.115 C 
ATOM     10  C   UNL     1      -1.557  -1.105  -0.841  0.00  0.00    +0.043 C 
ATOM     11  C   UNL     1      -3.459  -0.713   0.676  0.00  0.00    +0.162 C 
ATOM     12  C   UNL     1      -2.462  -2.345  -0.749  0.00  0.00    +0.043 C 
ATOM     13  C   UNL     1      -3.814  -1.759  -0.377  0.00  0.00    +0.145 C 
ENDROOT
BRANCH  10  14
ATOM     14  C   UNL     1      -0.098  -1.414  -0.590  0.00  0.00    -0.042 A 
ATOM     15  C   UNL     1       0.845  -1.187  -1.593  0.00  0.00    +0.007 A 
ATOM     16  C   UNL     1       0.305  -1.926   0.643  0.00  0.00    +0.007 A 
ATOM     18  C   UNL     1       2.191  -1.471  -1.361  0.00  0.00    +0.046 A 
ATOM     19  C   UNL     1       1.650  -2.211   0.874  0.00  0.00    +0.046 A 
ATOM     20  C   UNL     1       2.594  -1.984  -0.128  0.00  0.00    +0.120 A 
BRANCH  20   6
ATOM      6  O   UNL     1       3.907  -2.261   0.098  0.00  0.00    -0.495 OA
ATOM     26  C   UNL     1       4.817  -2.004  -0.970  0.00  0.00    +0.277 C 
ENDBRANCH  20   6
ENDBRANCH  10  14
BRANCH  11   2
ATOM      2  O   UNL     1      -3.171  -1.335   1.927  0.00  0.00    -0.388 OA
ATOM     29  H   UNL     1      -2.948  -0.630   2.559  0.00  0.00    +0.210 HD
ENDBRANCH  11   2
BRANCH  13   3
ATOM      3  O   UNL     1      -4.692  -2.751   0.113  0.00  0.00    -0.389 OA
ATOM     30  H   UNL     1      -4.797  -3.421  -0.584  0.00  0.00    +0.210 HD
ENDBRANCH  13   3
BRANCH   9   7
ATOM      7  N   UNL     1      -2.492   1.177  -0.578  0.00  0.00    -0.184 NA
ATOM     28  H   UNL     1      -2.942   1.092  -1.497  0.00  0.00    +0.148 HD
BRANCH   7   1
ATOM      1  S   UNL     1      -1.823   2.653  -0.069  0.00  0.00    +0.059 S 
ATOM      4  O   UNL     1      -2.117   2.856   1.337  0.00  0.00    -0.153 OA
ATOM      5  O   UNL     1      -2.157   3.677  -1.040  0.00  0.00    -0.153 OA
BRANCH   1  17
ATOM     17  C   UNL     1      -0.090   2.340  -0.224  0.00  0.00    +0.106 A 
ATOM     21  C   UNL     1       0.623   1.812   0.852  0.00  0.00    +0.047 A 
ATOM     22  C   UNL     1       0.564   2.623  -1.423  0.00  0.00    +0.028 A 
ATOM     23  C   UNL     1       1.990   1.567   0.730  0.00  0.00    +0.054 A 
ATOM     24  C   UNL     1       1.931   2.377  -1.546  0.00  0.00    +0.003 A 
ATOM     25  C   UNL     1       2.645   1.849  -0.470  0.00  0.00    +0.019 A 
BRANCH  23  27
ATOM      8  N   UNL     1       3.315   0.586   2.727  0.00  0.00    -0.191 NA
ATOM     27  C   UNL     1       2.721   1.026   1.832  0.00  0.00    +0.099 C 
ENDBRANCH  23  27
ENDBRANCH   1  17
ENDBRANCH   7   1
ENDBRANCH   9   7
TORSDOF 8
