MODEL 1
REMARK VINA RESULT:      -7.7      0.000      0.000
REMARK  Name = 28963166
REMARK  9 active torsions:
REMARK  status: ('A' for Active; 'I' for Inactive)
REMARK    1  A    between atoms: O_2  and  C_11
REMARK    2  A    between atoms: N_5  and  C_15
REMARK    3  A    between atoms: N_6  and  C_23
REMARK    4  A    between atoms: N_7  and  C_27
REMARK    5  A    between atoms: C_8  and  C_18
REMARK    6  A    between atoms: C_10  and  C_20
REMARK    7  A    between atoms: C_13  and  C_19
REMARK    8  A    between atoms: C_19  and  C_21
REMARK    9  A    between atoms: C_19  and  C_22
REMARK                            x       y       z     vdW  Elec       q    Type
REMARK                         _______ _______ _______ _____ _____    ______ ____
ROOT
ATOM      8  C   UNL     1     -14.392   8.543  20.210  0.00  0.00    -0.027 C 
ATOM      9  C   UNL     1     -13.456   7.294  20.332  0.00  0.00    +0.028 C 
ATOM     10  C   UNL     1     -13.551   6.663  21.767  0.00  0.00    +0.012 C 
ATOM     11  C   UNL     1     -12.016   7.618  19.838  0.00  0.00    +0.122 C 
ATOM     12  C   UNL     1     -14.361   9.071  18.756  0.00  0.00    +0.007 C 
ATOM     13  C   UNL     1     -11.999   8.242  18.424  0.00  0.00    +0.029 C 
ATOM     14  C   UNL     1     -15.844   8.117  20.524  0.00  0.00    +0.009 C 
ATOM     15  C   UNL     1     -15.027   6.308  22.103  0.00  0.00    +0.078 C 
ATOM     16  C   UNL     1     -12.957   9.426  18.283  0.00  0.00    +0.007 C 
ATOM     17  C   UNL     1     -15.995   7.473  21.895  0.00  0.00    +0.023 C 
ATOM     18  C   UNL     1     -13.977   9.690  21.165  0.00  0.00    +0.011 C 
ATOM     20  C   UNL     1     -12.677   5.410  21.948  0.00  0.00    +0.010 C 
ENDROOT
BRANCH  15   5
ATOM      4  O   UNL     1     -15.982   3.735  22.924  0.00  0.00    -0.253 OA
ATOM      5  N   UNL     1     -15.169   5.830  23.462  0.00  0.00    -0.296 N 
ATOM      7  N   UNL     1     -15.672   4.377  25.161  0.00  0.00    -0.269 N 
ATOM     26  C   UNL     1     -15.644   4.555  23.775  0.00  0.00    +0.304 C 
ATOM     33  H   UNL     1     -14.989   6.480  24.222  0.00  0.00    +0.151 HD
ATOM     36  H   UNL     1     -15.356   5.159  25.728  0.00  0.00    +0.156 HD
BRANCH   7  27
ATOM      1  F   UNL     1     -16.500   2.133  29.324  0.00  0.00    -0.205 F 
ATOM     27  C   UNL     1     -16.085   3.232  25.881  0.00  0.00    +0.037 A 
ATOM     28  C   UNL     1     -16.089   3.247  27.275  0.00  0.00    +0.061 A 
ATOM     29  C   UNL     1     -16.488   2.085  25.195  0.00  0.00    +0.023 A 
ATOM     30  C   UNL     1     -16.497   2.118  27.985  0.00  0.00    +0.125 A 
ATOM     31  C   UNL     1     -16.896   0.956  25.904  0.00  0.00    +0.005 A 
ATOM     32  C   UNL     1     -16.900   0.972  27.299  0.00  0.00    +0.038 A 
ENDBRANCH   7  27
ENDBRANCH  15   5
BRANCH  11   2
ATOM      2  O   UNL     1     -11.257   6.411  19.761  0.00  0.00    -0.391 OA
ATOM     34  H   UNL     1     -11.874   5.661  19.810  0.00  0.00    +0.210 HD
ENDBRANCH  11   2
BRANCH  13  19
ATOM     19  C   UNL     1     -10.587   8.674  18.009  0.00  0.00    +0.077 C 
ATOM     21  C   UNL     1     -10.096   9.799  18.913  0.00  0.00    +0.017 C 
BRANCH  19  22
ATOM      3  O   UNL     1     -10.301  10.262  16.198  0.00  0.00    -0.276 OA
ATOM      6  N   UNL     1     -10.864   8.074  15.680  0.00  0.00    -0.312 N 
ATOM     22  C   UNL     1     -10.560   9.113  16.549  0.00  0.00    +0.216 C 
ATOM     35  H   UNL     1     -11.073   7.150  16.049  0.00  0.00    +0.149 HD
BRANCH   6  23
ATOM     23  C   UNL     1     -10.907   8.247  14.257  0.00  0.00    +0.073 C 
ATOM     24  C   UNL     1     -11.710   7.327  13.387  0.00  0.00    +0.024 C 
ATOM     25  C   UNL     1     -10.211   7.287  13.337  0.00  0.00    +0.024 C 
ENDBRANCH   6  23
ENDBRANCH  19  22
ENDBRANCH  13  19
TORSDOF 6
ENDMDL
MODEL 2
REMARK VINA RESULT:      -7.7     27.965     31.516
REMARK  Name = 28963166
REMARK  9 active torsions:
REMARK  status: ('A' for Active; 'I' for Inactive)
REMARK    1  A    between atoms: O_2  and  C_11
REMARK    2  A    between atoms: N_5  and  C_15
REMARK    3  A    between atoms: N_6  and  C_23
REMARK    4  A    between atoms: N_7  and  C_27
REMARK    5  A    between atoms: C_8  and  C_18
REMARK    6  A    between atoms: C_10  and  C_20
REMARK    7  A    between atoms: C_13  and  C_19
REMARK    8  A    between atoms: C_19  and  C_21
REMARK    9  A    between atoms: C_19  and  C_22
REMARK                            x       y       z     vdW  Elec       q    Type
REMARK                         _______ _______ _______ _____ _____    ______ ____
ROOT
ATOM      8  C   UNL     1      15.818  10.132  21.321  0.00  0.00    -0.027 C 
ATOM      9  C   UNL     1      15.510   8.621  21.585  0.00  0.00    +0.028 C 
ATOM     10  C   UNL     1      16.593   7.703  20.912  0.00  0.00    +0.012 C 
ATOM     11  C   UNL     1      14.033   8.277  21.237  0.00  0.00    +0.122 C 
ATOM     12  C   UNL     1      14.802  11.009  22.090  0.00  0.00    +0.007 C 
ATOM     13  C   UNL     1      13.024   9.223  21.928  0.00  0.00    +0.029 C 
ATOM     14  C   UNL     1      17.228  10.462  21.864  0.00  0.00    +0.009 C 
ATOM     15  C   UNL     1      18.014   8.093  21.409  0.00  0.00    +0.078 C 
ATOM     16  C   UNL     1      13.355  10.702  21.722  0.00  0.00    +0.007 C 
ATOM     17  C   UNL     1      18.319   9.585  21.266  0.00  0.00    +0.023 C 
ATOM     18  C   UNL     1      15.753  10.497  19.817  0.00  0.00    +0.011 C 
ATOM     20  C   UNL     1      16.367   6.202  21.158  0.00  0.00    +0.010 C 
ENDROOT
BRANCH  15   5
ATOM      4  O   UNL     1      19.861   6.248  22.585  0.00  0.00    -0.253 OA
ATOM      5  N   UNL     1      19.046   7.346  20.722  0.00  0.00    -0.296 N 
ATOM      7  N   UNL     1      20.796   5.889  20.461  0.00  0.00    -0.269 N 
ATOM     26  C   UNL     1      19.908   6.462  21.376  0.00  0.00    +0.304 C 
ATOM     33  H   UNL     1      19.201   7.534  19.736  0.00  0.00    +0.151 HD
ATOM     36  H   UNL     1      20.700   6.176  19.491  0.00  0.00    +0.156 HD
BRANCH   7  27
ATOM      1  F   UNL     1      25.453   4.760  20.755  0.00  0.00    -0.205 F 
ATOM     27  C   UNL     1      21.820   4.949  20.719  0.00  0.00    +0.037 A 
ATOM     28  C   UNL     1      23.158   5.325  20.608  0.00  0.00    +0.061 A 
ATOM     29  C   UNL     1      21.491   3.642  21.083  0.00  0.00    +0.023 A 
ATOM     30  C   UNL     1      24.168   4.397  20.862  0.00  0.00    +0.125 A 
ATOM     31  C   UNL     1      22.501   2.714  21.337  0.00  0.00    +0.005 A 
ATOM     32  C   UNL     1      23.839   3.092  21.226  0.00  0.00    +0.038 A 
ENDBRANCH   7  27
ENDBRANCH  15   5
BRANCH  11   2
ATOM      2  O   UNL     1      13.731   6.957  21.691  0.00  0.00    -0.391 OA
ATOM     34  H   UNL     1      12.815   6.951  22.016  0.00  0.00    +0.210 HD
ENDBRANCH  11   2
BRANCH  13  19
ATOM     19  C   UNL     1      11.585   8.953  21.471  0.00  0.00    +0.077 C 
ATOM     21  C   UNL     1      10.809   8.242  22.574  0.00  0.00    +0.017 C 
BRANCH  19  22
ATOM      3  O   UNL     1      11.409   6.906  20.180  0.00  0.00    -0.276 OA
ATOM      6  N   UNL     1      11.759   8.903  19.057  0.00  0.00    -0.312 N 
ATOM     22  C   UNL     1      11.569   8.125  20.190  0.00  0.00    +0.216 C 
ATOM     35  H   UNL     1      11.889   9.907  19.148  0.00  0.00    +0.149 HD
BRANCH   6  23
ATOM     23  C   UNL     1      11.788   8.345  17.735  0.00  0.00    +0.073 C 
ATOM     24  C   UNL     1      12.105   9.196  16.541  0.00  0.00    +0.024 C 
ATOM     25  C   UNL     1      10.716   8.664  16.735  0.00  0.00    +0.024 C 
ENDBRANCH   6  23
ENDBRANCH  19  22
ENDBRANCH  13  19
TORSDOF 6
ENDMDL
MODEL 3
REMARK VINA RESULT:      -7.6     19.747     23.211
REMARK  Name = 28963166
REMARK  9 active torsions:
REMARK  status: ('A' for Active; 'I' for Inactive)
REMARK    1  A    between atoms: O_2  and  C_11
REMARK    2  A    between atoms: N_5  and  C_15
REMARK    3  A    between atoms: N_6  and  C_23
REMARK    4  A    between atoms: N_7  and  C_27
REMARK    5  A    between atoms: C_8  and  C_18
REMARK    6  A    between atoms: C_10  and  C_20
REMARK    7  A    between atoms: C_13  and  C_19
REMARK    8  A    between atoms: C_19  and  C_21
REMARK    9  A    between atoms: C_19  and  C_22
REMARK                            x       y       z     vdW  Elec       q    Type
REMARK                         _______ _______ _______ _____ _____    ______ ____
ROOT
ATOM      8  C   UNL     1      -3.382 -11.069  11.375  0.00  0.00    -0.027 C 
ATOM      9  C   UNL     1      -4.722 -10.537  11.985  0.00  0.00    +0.028 C 
ATOM     10  C   UNL     1      -5.349  -9.425  11.071  0.00  0.00    +0.012 C 
ATOM     11  C   UNL     1      -4.546 -10.151  13.482  0.00  0.00    +0.122 C 
ATOM     12  C   UNL     1      -2.850 -12.238  12.237  0.00  0.00    +0.007 C 
ATOM     13  C   UNL     1      -3.917 -11.289  14.319  0.00  0.00    +0.029 C 
ATOM     14  C   UNL     1      -3.657 -11.618   9.957  0.00  0.00    +0.009 C 
ATOM     15  C   UNL     1      -5.552  -9.964   9.627  0.00  0.00    +0.078 C 
ATOM     16  C   UNL     1      -2.639 -11.853  13.696  0.00  0.00    +0.007 C 
ATOM     17  C   UNL     1      -4.291 -10.590   9.030  0.00  0.00    +0.023 C 
ATOM     18  C   UNL     1      -2.290  -9.973  11.295  0.00  0.00    +0.011 C 
ATOM     20  C   UNL     1      -6.687  -8.877  11.597  0.00  0.00    +0.010 C 
ENDROOT
BRANCH  15   5
ATOM      4  O   UNL     1      -7.277 -10.314   7.367  0.00  0.00    -0.253 OA
ATOM      5  N   UNL     1      -6.021  -8.931   8.728  0.00  0.00    -0.296 N 
ATOM      7  N   UNL     1      -7.148  -8.005   6.961  0.00  0.00    -0.269 N 
ATOM     26  C   UNL     1      -6.865  -9.190   7.646  0.00  0.00    +0.304 C 
ATOM     33  H   UNL     1      -5.656  -7.991   8.844  0.00  0.00    +0.151 HD
ATOM     36  H   UNL     1      -6.725  -7.155   7.324  0.00  0.00    +0.156 HD
BRANCH   7  27
ATOM      1  F   UNL     1      -7.788  -8.319   2.213  0.00  0.00    -0.205 F 
ATOM     27  C   UNL     1      -7.960  -7.838   5.815  0.00  0.00    +0.037 A 
ATOM     28  C   UNL     1      -7.464  -8.168   4.554  0.00  0.00    +0.061 A 
ATOM     29  C   UNL     1      -9.257  -7.341   5.946  0.00  0.00    +0.023 A 
ATOM     30  C   UNL     1      -8.265  -8.002   3.424  0.00  0.00    +0.125 A 
ATOM     31  C   UNL     1     -10.058  -7.175   4.816  0.00  0.00    +0.005 A 
ATOM     32  C   UNL     1      -9.562  -7.506   3.556  0.00  0.00    +0.038 A 
ENDBRANCH   7  27
ENDBRANCH  15   5
BRANCH  11   2
ATOM      2  O   UNL     1      -5.824  -9.879  14.058  0.00  0.00    -0.391 OA
ATOM     34  H   UNL     1      -6.011 -10.568  14.719  0.00  0.00    +0.210 HD
ENDBRANCH  11   2
BRANCH  13  19
ATOM     19  C   UNL     1      -3.631 -10.845  15.759  0.00  0.00    +0.077 C 
ATOM     21  C   UNL     1      -2.127 -10.749  15.990  0.00  0.00    +0.017 C 
BRANCH  19  22
ATOM      3  O   UNL     1      -4.491 -12.988  16.504  0.00  0.00    -0.276 OA
ATOM      6  N   UNL     1      -4.548 -11.195  17.972  0.00  0.00    -0.312 N 
ATOM     22  C   UNL     1      -4.263 -11.807  16.759  0.00  0.00    +0.216 C 
ATOM     35  H   UNL     1      -4.332 -10.211  18.106  0.00  0.00    +0.149 HD
BRANCH   6  23
ATOM     23  C   UNL     1      -5.151 -11.899  19.067  0.00  0.00    +0.073 C 
ATOM     24  C   UNL     1      -6.625 -12.175  19.094  0.00  0.00    +0.024 C 
ATOM     25  C   UNL     1      -6.030 -11.189  20.056  0.00  0.00    +0.024 C 
ENDBRANCH   6  23
ENDBRANCH  19  22
ENDBRANCH  13  19
TORSDOF 6
ENDMDL
MODEL 4
REMARK VINA RESULT:      -7.3     18.870     22.752
REMARK  Name = 28963166
REMARK  9 active torsions:
REMARK  status: ('A' for Active; 'I' for Inactive)
REMARK    1  A    between atoms: O_2  and  C_11
REMARK    2  A    between atoms: N_5  and  C_15
REMARK    3  A    between atoms: N_6  and  C_23
REMARK    4  A    between atoms: N_7  and  C_27
REMARK    5  A    between atoms: C_8  and  C_18
REMARK    6  A    between atoms: C_10  and  C_20
REMARK    7  A    between atoms: C_13  and  C_19
REMARK    8  A    between atoms: C_19  and  C_21
REMARK    9  A    between atoms: C_19  and  C_22
REMARK                            x       y       z     vdW  Elec       q    Type
REMARK                         _______ _______ _______ _____ _____    ______ ____
ROOT
ATOM      8  C   UNL     1      -3.633 -11.251  11.637  0.00  0.00    -0.027 C 
ATOM      9  C   UNL     1      -4.991 -10.546  11.969  0.00  0.00    +0.028 C 
ATOM     10  C   UNL     1      -5.387  -9.534  10.835  0.00  0.00    +0.012 C 
ATOM     11  C   UNL     1      -4.986  -9.965  13.412  0.00  0.00    +0.122 C 
ATOM     12  C   UNL     1      -3.330 -12.320  12.714  0.00  0.00    +0.007 C 
ATOM     13  C   UNL     1      -4.581 -11.013  14.474  0.00  0.00    +0.029 C 
ATOM     14  C   UNL     1      -3.761 -11.976  10.278  0.00  0.00    +0.009 C 
ATOM     15  C   UNL     1      -5.439 -10.259   9.460  0.00  0.00    +0.078 C 
ATOM     16  C   UNL     1      -3.286 -11.747  14.125  0.00  0.00    +0.007 C 
ATOM     17  C   UNL     1      -4.169 -11.049   9.142  0.00  0.00    +0.023 C 
ATOM     18  C   UNL     1      -2.448 -10.256  11.576  0.00  0.00    +0.011 C 
ATOM     20  C   UNL     1      -6.730  -8.826  11.083  0.00  0.00    +0.010 C 
ENDROOT
BRANCH  15   5
ATOM      4  O   UNL     1      -7.544 -10.416   7.524  0.00  0.00    -0.253 OA
ATOM      5  N   UNL     1      -5.687  -9.334   8.375  0.00  0.00    -0.296 N 
ATOM      7  N   UNL     1      -6.732  -8.446   6.538  0.00  0.00    -0.269 N 
ATOM     26  C   UNL     1      -6.743  -9.486   7.472  0.00  0.00    +0.304 C 
ATOM     33  H   UNL     1      -5.018  -8.586   8.217  0.00  0.00    +0.151 HD
ATOM     36  H   UNL     1      -5.996  -7.752   6.636  0.00  0.00    +0.156 HD
BRANCH   7  27
ATOM      1  F   UNL     1     -10.813  -6.607   4.801  0.00  0.00    -0.205 F 
ATOM     27  C   UNL     1      -7.627  -8.236   5.464  0.00  0.00    +0.037 A 
ATOM     28  C   UNL     1      -8.801  -7.510   5.666  0.00  0.00    +0.061 A 
ATOM     29  C   UNL     1      -7.337  -8.755   4.202  0.00  0.00    +0.023 A 
ATOM     30  C   UNL     1      -9.685  -7.303   4.607  0.00  0.00    +0.125 A 
ATOM     31  C   UNL     1      -8.221  -8.548   3.143  0.00  0.00    +0.005 A 
ATOM     32  C   UNL     1      -9.394  -7.823   3.346  0.00  0.00    +0.038 A 
ENDBRANCH   7  27
ENDBRANCH  15   5
BRANCH  11   2
ATOM      2  O   UNL     1      -6.302  -9.526  13.753  0.00  0.00    -0.391 OA
ATOM     34  H   UNL     1      -6.283  -8.557  13.845  0.00  0.00    +0.210 HD
ENDBRANCH  11   2
BRANCH  13  19
ATOM     19  C   UNL     1      -4.455 -10.389  15.870  0.00  0.00    +0.077 C 
ATOM     21  C   UNL     1      -3.212 -10.923  16.573  0.00  0.00    +0.017 C 
BRANCH  19  22
ATOM      3  O   UNL     1      -5.896 -11.738  17.281  0.00  0.00    -0.276 OA
ATOM      6  N   UNL     1      -6.573  -9.591  16.728  0.00  0.00    -0.312 N 
ATOM     22  C   UNL     1      -5.700 -10.670  16.704  0.00  0.00    +0.216 C 
ATOM     35  H   UNL     1      -6.342  -8.741  16.221  0.00  0.00    +0.149 HD
BRANCH   6  23
ATOM     23  C   UNL     1      -7.816  -9.621  17.444  0.00  0.00    +0.073 C 
ATOM     24  C   UNL     1      -9.080 -10.087  16.784  0.00  0.00    +0.024 C 
ATOM     25  C   UNL     1      -8.910  -8.639  17.141  0.00  0.00    +0.024 C 
ENDBRANCH   6  23
ENDBRANCH  19  22
ENDBRANCH  13  19
TORSDOF 6
ENDMDL
MODEL 5
REMARK VINA RESULT:      -7.1     17.638     19.287
REMARK  Name = 28963166
REMARK  9 active torsions:
REMARK  status: ('A' for Active; 'I' for Inactive)
REMARK    1  A    between atoms: O_2  and  C_11
REMARK    2  A    between atoms: N_5  and  C_15
REMARK    3  A    between atoms: N_6  and  C_23
REMARK    4  A    between atoms: N_7  and  C_27
REMARK    5  A    between atoms: C_8  and  C_18
REMARK    6  A    between atoms: C_10  and  C_20
REMARK    7  A    between atoms: C_13  and  C_19
REMARK    8  A    between atoms: C_19  and  C_21
REMARK    9  A    between atoms: C_19  and  C_22
REMARK                            x       y       z     vdW  Elec       q    Type
REMARK                         _______ _______ _______ _____ _____    ______ ____
ROOT
ATOM      8  C   UNL     1      -4.716 -11.173  17.091  0.00  0.00    -0.027 C 
ATOM      9  C   UNL     1      -5.659 -10.802  15.898  0.00  0.00    +0.028 C 
ATOM     10  C   UNL     1      -7.146 -11.192  16.219  0.00  0.00    +0.012 C 
ATOM     11  C   UNL     1      -5.102 -11.343  14.550  0.00  0.00    +0.122 C 
ATOM     12  C   UNL     1      -3.283 -10.674  16.791  0.00  0.00    +0.007 C 
ATOM     13  C   UNL     1      -3.633 -10.927  14.304  0.00  0.00    +0.029 C 
ATOM     14  C   UNL     1      -5.208 -10.450  18.366  0.00  0.00    +0.009 C 
ATOM     15  C   UNL     1      -7.607 -10.519  17.543  0.00  0.00    +0.078 C 
ATOM     16  C   UNL     1      -2.719 -11.234  15.491  0.00  0.00    +0.007 C 
ATOM     17  C   UNL     1      -6.656 -10.769  18.713  0.00  0.00    +0.023 C 
ATOM     18  C   UNL     1      -4.668 -12.699  17.356  0.00  0.00    +0.011 C 
ATOM     20  C   UNL     1      -8.134 -10.827  15.097  0.00  0.00    +0.010 C 
ENDROOT
BRANCH  15   5
ATOM      4  O   UNL     1      -9.849  -8.835  18.126  0.00  0.00    -0.253 OA
ATOM      5  N   UNL     1      -8.934 -10.949  17.930  0.00  0.00    -0.296 N 
ATOM      7  N   UNL     1     -11.133 -10.756  18.545  0.00  0.00    -0.269 N 
ATOM     26  C   UNL     1      -9.974 -10.055  18.197  0.00  0.00    +0.304 C 
ATOM     33  H   UNL     1      -9.091 -11.939  18.091  0.00  0.00    +0.151 HD
ATOM     36  H   UNL     1     -11.067 -11.770  18.555  0.00  0.00    +0.156 HD
BRANCH   7  27
ATOM      1  F   UNL     1     -15.397  -8.966  17.254  0.00  0.00    -0.205 F 
ATOM     27  C   UNL     1     -12.398 -10.224  18.885  0.00  0.00    +0.037 A 
ATOM     28  C   UNL     1     -13.292  -9.850  17.882  0.00  0.00    +0.061 A 
ATOM     29  C   UNL     1     -12.752 -10.071  20.226  0.00  0.00    +0.023 A 
ATOM     30  C   UNL     1     -14.540  -9.326  18.218  0.00  0.00    +0.125 A 
ATOM     31  C   UNL     1     -14.000  -9.547  20.563  0.00  0.00    +0.005 A 
ATOM     32  C   UNL     1     -14.893  -9.173  19.559  0.00  0.00    +0.038 A 
ENDBRANCH   7  27
ENDBRANCH  15   5
BRANCH  11   2
ATOM      2  O   UNL     1      -5.865 -10.806  13.469  0.00  0.00    -0.391 OA
ATOM     34  H   UNL     1      -5.754 -11.392  12.700  0.00  0.00    +0.210 HD
ENDBRANCH  11   2
BRANCH  13  19
ATOM     19  C   UNL     1      -3.062 -11.577  13.037  0.00  0.00    +0.077 C 
ATOM     21  C   UNL     1      -1.832 -12.410  13.384  0.00  0.00    +0.017 C 
BRANCH  19  22
ATOM      3  O   UNL     1      -1.584 -10.053  11.863  0.00  0.00    -0.276 OA
ATOM      6  N   UNL     1      -3.811 -10.154  11.228  0.00  0.00    -0.312 N 
ATOM     22  C   UNL     1      -2.713 -10.521  11.995  0.00  0.00    +0.216 C 
ATOM     35  H   UNL     1      -4.716 -10.584  11.401  0.00  0.00    +0.149 HD
BRANCH   6  23
ATOM     23  C   UNL     1      -3.730  -9.172  10.186  0.00  0.00    +0.073 C 
ATOM     24  C   UNL     1      -4.900  -8.294   9.854  0.00  0.00    +0.024 C 
ATOM     25  C   UNL     1      -4.460  -9.354   8.888  0.00  0.00    +0.024 C 
ENDBRANCH   6  23
ENDBRANCH  19  22
ENDBRANCH  13  19
TORSDOF 6
ENDMDL
MODEL 6
REMARK VINA RESULT:      -7.0     19.743     23.143
REMARK  Name = 28963166
REMARK  9 active torsions:
REMARK  status: ('A' for Active; 'I' for Inactive)
REMARK    1  A    between atoms: O_2  and  C_11
REMARK    2  A    between atoms: N_5  and  C_15
REMARK    3  A    between atoms: N_6  and  C_23
REMARK    4  A    between atoms: N_7  and  C_27
REMARK    5  A    between atoms: C_8  and  C_18
REMARK    6  A    between atoms: C_10  and  C_20
REMARK    7  A    between atoms: C_13  and  C_19
REMARK    8  A    between atoms: C_19  and  C_21
REMARK    9  A    between atoms: C_19  and  C_22
REMARK                            x       y       z     vdW  Elec       q    Type
REMARK                         _______ _______ _______ _____ _____    ______ ____
ROOT
ATOM      8  C   UNL     1      -4.275 -10.453   9.885  0.00  0.00    -0.027 C 
ATOM      9  C   UNL     1      -5.670 -10.057  10.474  0.00  0.00    +0.028 C 
ATOM     10  C   UNL     1      -6.363  -8.965   9.583  0.00  0.00    +0.012 C 
ATOM     11  C   UNL     1      -5.566  -9.717  11.989  0.00  0.00    +0.122 C 
ATOM     12  C   UNL     1      -3.671 -11.607  10.719  0.00  0.00    +0.007 C 
ATOM     13  C   UNL     1      -4.867 -10.831  12.802  0.00  0.00    +0.029 C 
ATOM     14  C   UNL     1      -4.466 -10.967   8.440  0.00  0.00    +0.009 C 
ATOM     15  C   UNL     1      -6.482  -9.463   8.115  0.00  0.00    +0.078 C 
ATOM     16  C   UNL     1      -3.531 -11.263  12.196  0.00  0.00    +0.007 C 
ATOM     17  C   UNL     1      -5.159  -9.959   7.533  0.00  0.00    +0.023 C 
ATOM     18  C   UNL     1      -3.276  -9.268   9.878  0.00  0.00    +0.011 C 
ATOM     20  C   UNL     1      -7.755  -8.550  10.090  0.00  0.00    +0.010 C 
ENDROOT
BRANCH  15   5
ATOM      4  O   UNL     1      -8.146  -9.861   5.818  0.00  0.00    -0.253 OA
ATOM      5  N   UNL     1      -7.012  -8.437   7.242  0.00  0.00    -0.296 N 
ATOM      7  N   UNL     1      -8.178  -7.537   5.486  0.00  0.00    -0.269 N 
ATOM     26  C   UNL     1      -7.820  -8.721   6.138  0.00  0.00    +0.304 C 
ATOM     33  H   UNL     1      -6.717  -7.477   7.393  0.00  0.00    +0.151 HD
ATOM     36  H   UNL     1      -7.821  -6.672   5.883  0.00  0.00    +0.156 HD
BRANCH   7  27
ATOM      1  F   UNL     1     -12.401  -6.516   3.443  0.00  0.00    -0.205 F 
ATOM     27  C   UNL     1      -8.983  -7.391   4.333  0.00  0.00    +0.037 A 
ATOM     28  C   UNL     1     -10.321  -7.017   4.459  0.00  0.00    +0.061 A 
ATOM     29  C   UNL     1      -8.441  -7.624   3.069  0.00  0.00    +0.023 A 
ATOM     30  C   UNL     1     -11.116  -6.874   3.321  0.00  0.00    +0.125 A 
ATOM     31  C   UNL     1      -9.235  -7.481   1.931  0.00  0.00    +0.005 A 
ATOM     32  C   UNL     1     -10.572  -7.107   2.058  0.00  0.00    +0.038 A 
ENDBRANCH   7  27
ENDBRANCH  15   5
BRANCH  11   2
ATOM      2  O   UNL     1      -6.877  -9.574  12.536  0.00  0.00    -0.391 OA
ATOM     34  H   UNL     1      -7.182 -10.451  12.824  0.00  0.00    +0.210 HD
ENDBRANCH  11   2
BRANCH  13  19
ATOM     19  C   UNL     1      -4.658 -10.422  14.265  0.00  0.00    +0.077 C 
ATOM     21  C   UNL     1      -3.218 -10.698  14.686  0.00  0.00    +0.017 C 
BRANCH  19  22
ATOM      3  O   UNL     1      -6.602 -11.785  14.761  0.00  0.00    -0.276 OA
ATOM      6  N   UNL     1      -5.293 -11.032  16.520  0.00  0.00    -0.312 N 
ATOM     22  C   UNL     1      -5.630 -11.158  15.179  0.00  0.00    +0.216 C 
ATOM     35  H   UNL     1      -4.474 -10.492  16.787  0.00  0.00    +0.149 HD
BRANCH   6  23
ATOM     23  C   UNL     1      -6.064 -11.635  17.569  0.00  0.00    +0.073 C 
ATOM     24  C   UNL     1      -5.917 -11.188  18.993  0.00  0.00    +0.024 C 
ATOM     25  C   UNL     1      -5.425 -12.543  18.578  0.00  0.00    +0.024 C 
ENDBRANCH   6  23
ENDBRANCH  19  22
ENDBRANCH  13  19
TORSDOF 6
ENDMDL
MODEL 7
REMARK VINA RESULT:      -6.9     19.432     20.522
REMARK  Name = 28963166
REMARK  9 active torsions:
REMARK  status: ('A' for Active; 'I' for Inactive)
REMARK    1  A    between atoms: O_2  and  C_11
REMARK    2  A    between atoms: N_5  and  C_15
REMARK    3  A    between atoms: N_6  and  C_23
REMARK    4  A    between atoms: N_7  and  C_27
REMARK    5  A    between atoms: C_8  and  C_18
REMARK    6  A    between atoms: C_10  and  C_20
REMARK    7  A    between atoms: C_13  and  C_19
REMARK    8  A    between atoms: C_19  and  C_21
REMARK    9  A    between atoms: C_19  and  C_22
REMARK                            x       y       z     vdW  Elec       q    Type
REMARK                         _______ _______ _______ _____ _____    ______ ____
ROOT
ATOM      8  C   UNL     1      -5.132 -11.204  17.929  0.00  0.00    -0.027 C 
ATOM      9  C   UNL     1      -5.946 -12.193  17.030  0.00  0.00    +0.028 C 
ATOM     10  C   UNL     1      -6.651 -13.292  17.903  0.00  0.00    +0.012 C 
ATOM     11  C   UNL     1      -5.080 -12.729  15.854  0.00  0.00    +0.122 C 
ATOM     12  C   UNL     1      -4.546 -10.072  17.053  0.00  0.00    +0.007 C 
ATOM     13  C   UNL     1      -4.411 -11.594  15.043  0.00  0.00    +0.029 C 
ATOM     14  C   UNL     1      -6.088 -10.555  18.957  0.00  0.00    +0.009 C 
ATOM     15  C   UNL     1      -7.552 -12.627  18.982  0.00  0.00    +0.078 C 
ATOM     16  C   UNL     1      -3.665 -10.591  15.924  0.00  0.00    +0.007 C 
ATOM     17  C   UNL     1      -6.822 -11.574  19.817  0.00  0.00    +0.023 C 
ATOM     18  C   UNL     1      -3.973 -11.904  18.681  0.00  0.00    +0.011 C 
ATOM     20  C   UNL     1      -7.495 -14.283  17.083  0.00  0.00    +0.010 C 
ENDROOT
BRANCH  15   5
ATOM      4  O   UNL     1     -10.047 -12.419  20.373  0.00  0.00    -0.253 OA
ATOM      5  N   UNL     1      -8.127 -13.607  19.879  0.00  0.00    -0.296 N 
ATOM      7  N   UNL     1      -9.652 -14.531  21.319  0.00  0.00    -0.269 N 
ATOM     26  C   UNL     1      -9.355 -13.424  20.518  0.00  0.00    +0.304 C 
ATOM     33  H   UNL     1      -7.575 -14.426  20.115  0.00  0.00    +0.151 HD
ATOM     36  H   UNL     1      -8.969 -15.283  21.328  0.00  0.00    +0.156 HD
BRANCH   7  27
ATOM      1  F   UNL     1     -11.666 -15.141  25.635  0.00  0.00    -0.205 F 
ATOM     27  C   UNL     1     -10.795 -14.737  22.125  0.00  0.00    +0.037 A 
ATOM     28  C   UNL     1     -10.664 -14.839  23.510  0.00  0.00    +0.061 A 
ATOM     29  C   UNL     1     -12.055 -14.841  21.534  0.00  0.00    +0.023 A 
ATOM     30  C   UNL     1     -11.793 -15.043  24.304  0.00  0.00    +0.125 A 
ATOM     31  C   UNL     1     -13.183 -15.045  22.329  0.00  0.00    +0.005 A 
ATOM     32  C   UNL     1     -13.051 -15.146  23.713  0.00  0.00    +0.038 A 
ENDBRANCH   7  27
ENDBRANCH  15   5
BRANCH  11   2
ATOM      2  O   UNL     1      -5.908 -13.449  14.941  0.00  0.00    -0.391 OA
ATOM     34  H   UNL     1      -5.394 -14.198  14.592  0.00  0.00    +0.210 HD
ENDBRANCH  11   2
BRANCH  13  19
ATOM     19  C   UNL     1      -3.460 -12.143  13.973  0.00  0.00    +0.077 C 
ATOM     21  C   UNL     1      -2.083 -11.504  14.117  0.00  0.00    +0.017 C 
BRANCH  19  22
ATOM      3  O   UNL     1      -4.758 -12.693  11.999  0.00  0.00    -0.276 OA
ATOM      6  N   UNL     1      -3.587 -10.694  12.038  0.00  0.00    -0.312 N 
ATOM     22  C   UNL     1      -4.016 -11.900  12.574  0.00  0.00    +0.216 C 
ATOM     35  H   UNL     1      -2.968 -10.092  12.576  0.00  0.00    +0.149 HD
BRANCH   6  23
ATOM     23  C   UNL     1      -3.975 -10.249  10.731  0.00  0.00    +0.073 C 
ATOM     24  C   UNL     1      -3.209  -9.175  10.017  0.00  0.00    +0.024 C 
ATOM     25  C   UNL     1      -4.595  -8.898  10.522  0.00  0.00    +0.024 C 
ENDBRANCH   6  23
ENDBRANCH  19  22
ENDBRANCH  13  19
TORSDOF 6
ENDMDL
MODEL 8
REMARK VINA RESULT:      -6.8     30.418     33.674
REMARK  Name = 28963166
REMARK  9 active torsions:
REMARK  status: ('A' for Active; 'I' for Inactive)
REMARK    1  A    between atoms: O_2  and  C_11
REMARK    2  A    between atoms: N_5  and  C_15
REMARK    3  A    between atoms: N_6  and  C_23
REMARK    4  A    between atoms: N_7  and  C_27
REMARK    5  A    between atoms: C_8  and  C_18
REMARK    6  A    between atoms: C_10  and  C_20
REMARK    7  A    between atoms: C_13  and  C_19
REMARK    8  A    between atoms: C_19  and  C_21
REMARK    9  A    between atoms: C_19  and  C_22
REMARK                            x       y       z     vdW  Elec       q    Type
REMARK                         _______ _______ _______ _____ _____    ______ ____
ROOT
ATOM      8  C   UNL     1      21.237   9.589  21.524  0.00  0.00    -0.027 C 
ATOM      9  C   UNL     1      20.812   8.094  21.335  0.00  0.00    +0.028 C 
ATOM     10  C   UNL     1      19.385   7.839  21.941  0.00  0.00    +0.012 C 
ATOM     11  C   UNL     1      21.928   7.125  21.822  0.00  0.00    +0.122 C 
ATOM     12  C   UNL     1      22.592   9.833  20.819  0.00  0.00    +0.007 C 
ATOM     13  C   UNL     1      23.305   7.439  21.192  0.00  0.00    +0.029 C 
ATOM     14  C   UNL     1      20.186  10.501  20.850  0.00  0.00    +0.009 C 
ATOM     15  C   UNL     1      18.350   8.812  21.310  0.00  0.00    +0.078 C 
ATOM     16  C   UNL     1      23.697   8.912  21.321  0.00  0.00    +0.007 C 
ATOM     17  C   UNL     1      18.776  10.279  21.378  0.00  0.00    +0.023 C 
ATOM     18  C   UNL     1      21.374   9.983  23.016  0.00  0.00    +0.011 C 
ATOM     20  C   UNL     1      18.891   6.393  21.764  0.00  0.00    +0.010 C 
ENDROOT
BRANCH  15   5
ATOM      4  O   UNL     1      15.839   8.511  19.965  0.00  0.00    -0.253 OA
ATOM      5  N   UNL     1      17.047   8.684  21.928  0.00  0.00    -0.296 N 
ATOM      7  N   UNL     1      14.772   8.440  22.055  0.00  0.00    -0.269 N 
ATOM     26  C   UNL     1      15.868   8.540  21.193  0.00  0.00    +0.304 C 
ATOM     33  H   UNL     1      16.980   8.783  22.936  0.00  0.00    +0.151 HD
ATOM     36  H   UNL     1      14.969   8.481  23.051  0.00  0.00    +0.156 HD
BRANCH   7  27
ATOM      1  F   UNL     1      10.991   5.626  21.134  0.00  0.00    -0.205 F 
ATOM     27  C   UNL     1      13.409   8.284  21.710  0.00  0.00    +0.037 A 
ATOM     28  C   UNL     1      12.861   7.007  21.590  0.00  0.00    +0.061 A 
ATOM     29  C   UNL     1      12.613   9.408  21.489  0.00  0.00    +0.023 A 
ATOM     30  C   UNL     1      11.517   6.853  21.250  0.00  0.00    +0.125 A 
ATOM     31  C   UNL     1      11.269   9.254  21.149  0.00  0.00    +0.005 A 
ATOM     32  C   UNL     1      10.722   7.977  21.029  0.00  0.00    +0.038 A 
ENDBRANCH   7  27
ENDBRANCH  15   5
BRANCH  11   2
ATOM      2  O   UNL     1      21.599   5.789  21.439  0.00  0.00    -0.391 OA
ATOM     34  H   UNL     1      21.562   5.754  20.467  0.00  0.00    +0.210 HD
ENDBRANCH  11   2
BRANCH  13  19
ATOM     19  C   UNL     1      24.414   6.560  21.781  0.00  0.00    +0.077 C 
ATOM     21  C   UNL     1      25.643   7.407  22.095  0.00  0.00    +0.017 C 
BRANCH  19  22
ATOM      3  O   UNL     1      25.314   5.618  19.735  0.00  0.00    -0.276 OA
ATOM      6  N   UNL     1      24.427   4.183  21.325  0.00  0.00    -0.312 N 
ATOM     22  C   UNL     1      24.776   5.430  20.824  0.00  0.00    +0.216 C 
ATOM     35  H   UNL     1      23.981   4.109  22.235  0.00  0.00    +0.149 HD
BRANCH   6  23
ATOM     23  C   UNL     1      24.664   2.968  20.600  0.00  0.00    +0.073 C 
ATOM     24  C   UNL     1      23.812   1.753  20.823  0.00  0.00    +0.024 C 
ATOM     25  C   UNL     1      25.242   1.760  21.278  0.00  0.00    +0.024 C 
ENDBRANCH   6  23
ENDBRANCH  19  22
ENDBRANCH  13  19
TORSDOF 6
ENDMDL
MODEL 9
REMARK VINA RESULT:      -6.8     18.098     19.538
REMARK  Name = 28963166
REMARK  9 active torsions:
REMARK  status: ('A' for Active; 'I' for Inactive)
REMARK    1  A    between atoms: O_2  and  C_11
REMARK    2  A    between atoms: N_5  and  C_15
REMARK    3  A    between atoms: N_6  and  C_23
REMARK    4  A    between atoms: N_7  and  C_27
REMARK    5  A    between atoms: C_8  and  C_18
REMARK    6  A    between atoms: C_10  and  C_20
REMARK    7  A    between atoms: C_13  and  C_19
REMARK    8  A    between atoms: C_19  and  C_21
REMARK    9  A    between atoms: C_19  and  C_22
REMARK                            x       y       z     vdW  Elec       q    Type
REMARK                         _______ _______ _______ _____ _____    ______ ____
ROOT
ATOM      8  C   UNL     1      -5.290 -11.453  17.846  0.00  0.00    -0.027 C 
ATOM      9  C   UNL     1      -6.350 -11.448  16.694  0.00  0.00    +0.028 C 
ATOM     10  C   UNL     1      -7.667 -12.176  17.143  0.00  0.00    +0.012 C 
ATOM     11  C   UNL     1      -5.732 -11.950  15.357  0.00  0.00    +0.122 C 
ATOM     12  C   UNL     1      -4.053 -10.633  17.412  0.00  0.00    +0.007 C 
ATOM     13  C   UNL     1      -4.435 -11.195  14.981  0.00  0.00    +0.029 C 
ATOM     14  C   UNL     1      -5.896 -10.766  19.091  0.00  0.00    +0.009 C 
ATOM     15  C   UNL     1      -8.228 -11.525  18.439  0.00  0.00    +0.078 C 
ATOM     16  C   UNL     1      -3.421 -11.146  16.124  0.00  0.00    +0.007 C 
ATOM     17  C   UNL     1      -7.193 -11.413  19.559  0.00  0.00    +0.023 C 
ATOM     18  C   UNL     1      -4.832 -12.884  18.224  0.00  0.00    +0.011 C 
ATOM     20  C   UNL     1      -8.766 -12.182  16.066  0.00  0.00    +0.010 C 
ENDROOT
BRANCH  15   5
ATOM      4  O   UNL     1     -10.059 -10.624  20.449  0.00  0.00    -0.253 OA
ATOM      5  N   UNL     1      -9.377 -12.243  18.947  0.00  0.00    -0.296 N 
ATOM      7  N   UNL     1     -11.241 -12.640  20.220  0.00  0.00    -0.269 N 
ATOM     26  C   UNL     1     -10.222 -11.727  19.932  0.00  0.00    +0.304 C 
ATOM     33  H   UNL     1      -9.529 -13.196  18.629  0.00  0.00    +0.151 HD
ATOM     36  H   UNL     1     -11.232 -13.513  19.700  0.00  0.00    +0.156 HD
BRANCH   7  27
ATOM      1  F   UNL     1     -15.307 -10.518  21.641  0.00  0.00    -0.205 F 
ATOM     27  C   UNL     1     -12.294 -12.498  21.154  0.00  0.00    +0.037 A 
ATOM     28  C   UNL     1     -13.301 -11.560  20.932  0.00  0.00    +0.061 A 
ATOM     29  C   UNL     1     -12.324 -13.297  22.297  0.00  0.00    +0.023 A 
ATOM     30  C   UNL     1     -14.340 -11.420  21.853  0.00  0.00    +0.125 A 
ATOM     31  C   UNL     1     -13.362 -13.157  23.218  0.00  0.00    +0.005 A 
ATOM     32  C   UNL     1     -14.369 -12.219  22.996  0.00  0.00    +0.038 A 
ENDBRANCH   7  27
ENDBRANCH  15   5
BRANCH  11   2
ATOM      2  O   UNL     1      -6.656 -11.729  14.292  0.00  0.00    -0.391 OA
ATOM     34  H   UNL     1      -6.549 -10.812  13.984  0.00  0.00    +0.210 HD
ENDBRANCH  11   2
BRANCH  13  19
ATOM     19  C   UNL     1      -3.772 -11.790  13.733  0.00  0.00    +0.077 C 
ATOM     21  C   UNL     1      -2.682 -12.777  14.139  0.00  0.00    +0.017 C 
BRANCH  19  22
ATOM      3  O   UNL     1      -2.067 -10.223  13.010  0.00  0.00    -0.276 OA
ATOM      6  N   UNL     1      -4.080 -10.286  11.862  0.00  0.00    -0.312 N 
ATOM     22  C   UNL     1      -3.193 -10.691  12.850  0.00  0.00    +0.216 C 
ATOM     35  H   UNL     1      -4.997 -10.719  11.796  0.00  0.00    +0.149 HD
BRANCH   6  23
ATOM     23  C   UNL     1      -3.760  -9.260  10.912  0.00  0.00    +0.073 C 
ATOM     24  C   UNL     1      -4.834  -8.422  10.284  0.00  0.00    +0.024 C 
ATOM     25  C   UNL     1      -4.083  -9.421   9.455  0.00  0.00    +0.024 C 
ENDBRANCH   6  23
ENDBRANCH  19  22
ENDBRANCH  13  19
TORSDOF 6
ENDMDL
MODEL 10
REMARK VINA RESULT:      -6.7      1.440      1.971
REMARK  Name = 28963166
REMARK  9 active torsions:
REMARK  status: ('A' for Active; 'I' for Inactive)
REMARK    1  A    between atoms: O_2  and  C_11
REMARK    2  A    between atoms: N_5  and  C_15
REMARK    3  A    between atoms: N_6  and  C_23
REMARK    4  A    between atoms: N_7  and  C_27
REMARK    5  A    between atoms: C_8  and  C_18
REMARK    6  A    between atoms: C_10  and  C_20
REMARK    7  A    between atoms: C_13  and  C_19
REMARK    8  A    between atoms: C_19  and  C_21
REMARK    9  A    between atoms: C_19  and  C_22
REMARK                            x       y       z     vdW  Elec       q    Type
REMARK                         _______ _______ _______ _____ _____    ______ ____
ROOT
ATOM      8  C   UNL     1     -14.342   8.845  20.756  0.00  0.00    -0.027 C 
ATOM      9  C   UNL     1     -13.540   7.507  20.625  0.00  0.00    +0.028 C 
ATOM     10  C   UNL     1     -13.558   6.709  21.978  0.00  0.00    +0.012 C 
ATOM     11  C   UNL     1     -12.132   7.752  20.011  0.00  0.00    +0.122 C 
ATOM     12  C   UNL     1     -14.402   9.549  19.380  0.00  0.00    +0.007 C 
ATOM     13  C   UNL     1     -12.191   8.548  18.686  0.00  0.00    +0.029 C 
ATOM     14  C   UNL     1     -15.793   8.523  21.183  0.00  0.00    +0.009 C 
ATOM     15  C   UNL     1     -15.022   6.456  22.436  0.00  0.00    +0.078 C 
ATOM     16  C   UNL     1     -13.023   9.826  18.794  0.00  0.00    +0.007 C 
ATOM     17  C   UNL     1     -15.873   7.726  22.478  0.00  0.00    +0.023 C 
ATOM     18  C   UNL     1     -13.711   9.816  21.786  0.00  0.00    +0.011 C 
ATOM     20  C   UNL     1     -12.811   5.366  21.910  0.00  0.00    +0.010 C 
ENDROOT
BRANCH  15   5
ATOM      4  O   UNL     1     -16.450   4.071  23.124  0.00  0.00    -0.253 OA
ATOM      5  N   UNL     1     -15.075   5.825  23.737  0.00  0.00    -0.296 N 
ATOM      7  N   UNL     1     -15.666   4.284  25.328  0.00  0.00    -0.269 N 
ATOM     26  C   UNL     1     -15.799   4.657  23.987  0.00  0.00    +0.304 C 
ATOM     33  H   UNL     1     -14.631   6.297  24.520  0.00  0.00    +0.151 HD
ATOM     36  H   UNL     1     -15.088   4.882  25.912  0.00  0.00    +0.156 HD
BRANCH   7  27
ATOM      1  F   UNL     1     -17.551   2.245  29.244  0.00  0.00    -0.205 F 
ATOM     27  C   UNL     1     -16.239   3.167  25.978  0.00  0.00    +0.037 A 
ATOM     28  C   UNL     1     -16.620   3.259  27.316  0.00  0.00    +0.061 A 
ATOM     29  C   UNL     1     -16.421   1.972  25.282  0.00  0.00    +0.023 A 
ATOM     30  C   UNL     1     -17.185   2.156  27.958  0.00  0.00    +0.125 A 
ATOM     31  C   UNL     1     -16.986   0.870  25.923  0.00  0.00    +0.005 A 
ATOM     32  C   UNL     1     -17.367   0.962  27.261  0.00  0.00    +0.038 A 
ENDBRANCH   7  27
ENDBRANCH  15   5
BRANCH  11   2
ATOM      2  O   UNL     1     -11.519   6.498  19.707  0.00  0.00    -0.391 OA
ATOM     34  H   UNL     1     -11.504   5.965  20.520  0.00  0.00    +0.210 HD
ENDBRANCH  11   2
BRANCH  13  19
ATOM     19  C   UNL     1     -10.790   8.892  18.166  0.00  0.00    +0.077 C 
ATOM     21  C   UNL     1     -10.006   9.649  19.233  0.00  0.00    +0.017 C 
BRANCH  19  22
ATOM      3  O   UNL     1     -11.475   9.333  15.882  0.00  0.00    -0.276 OA
ATOM      6  N   UNL     1     -10.192  10.918  16.984  0.00  0.00    -0.312 N 
ATOM     22  C   UNL     1     -10.873   9.713  16.884  0.00  0.00    +0.216 C 
ATOM     35  H   UNL     1      -9.713  11.160  17.848  0.00  0.00    +0.149 HD
BRANCH   6  23
ATOM     23  C   UNL     1     -10.125  11.857  15.902  0.00  0.00    +0.073 C 
ATOM     24  C   UNL     1      -9.059  12.911  15.854  0.00  0.00    +0.024 C 
ATOM     25  C   UNL     1     -10.486  13.300  16.102  0.00  0.00    +0.024 C 
ENDBRANCH   6  23
ENDBRANCH  19  22
ENDBRANCH  13  19
TORSDOF 6
ENDMDL
