REMARK  Name = 75368664
REMARK  5 active torsions:
REMARK  status: ('A' for Active; 'I' for Inactive)
REMARK    1  A    between atoms: N_4  and  C_9
REMARK    2  A    between atoms: N_5  and  C_15
REMARK    3  A    between atoms: C_15  and  C_18
REMARK    4  A    between atoms: C_18  and  C_19
REMARK    5  A    between atoms: C_19  and  C_20
REMARK                            x       y       z     vdW  Elec       q    Type
REMARK                         _______ _______ _______ _____ _____    ______ ____
ROOT
ATOM      2  O   UNL     1      -3.327  -2.633   0.082  0.00  0.00    -0.252 OA
ATOM      3  N   UNL     1      -1.566  -1.118  -0.269  0.00  0.00    -0.278 N 
ATOM      4  N   UNL     1      -3.661  -0.313  -0.186  0.00  0.00    -0.280 N 
ATOM      5  N   UNL     1       0.940   0.116   0.061  0.00  0.00    -0.299 NA
ATOM      6  C   UNL     1      -1.428   0.287  -0.589  0.00  0.00    +0.109 C 
ATOM      7  C   UNL     1      -2.814   0.861  -0.304  0.00  0.00    +0.133 C 
ATOM      8  C   UNL     1      -0.295   0.909   0.226  0.00  0.00    +0.108 C 
ATOM     10  C   UNL     1      -0.389  -1.961  -0.256  0.00  0.00    +0.125 C 
ATOM     11  C   UNL     1      -2.904  -1.500  -0.105  0.00  0.00    +0.305 C 
ATOM     12  C   UNL     1       0.738  -1.274   0.520  0.00  0.00    +0.103 C 
ENDROOT
BRANCH   4   9
ATOM      1  O   UNL     1      -7.460   1.420   0.028  0.00  0.00    -0.380 OA
ATOM      9  C   UNL     1      -5.090  -0.212  -0.021  0.00  0.00    +0.082 C 
ATOM     13  C   UNL     1      -5.751   0.312  -1.296  0.00  0.00    +0.050 C 
ATOM     14  C   UNL     1      -5.446   0.682   1.167  0.00  0.00    +0.050 C 
ATOM     16  C   UNL     1      -7.240   0.540  -1.075  0.00  0.00    +0.161 C 
ATOM     17  C   UNL     1      -6.953   0.888   1.251  0.00  0.00    +0.161 C 
ENDBRANCH   4   9
BRANCH   5  15
ATOM     15  C   UNL     1       2.046   0.737   0.789  0.00  0.00    +0.085 C 
BRANCH  15  18
ATOM     18  C   UNL     1       3.383   0.324   0.176  0.00  0.00    +0.020 C 
BRANCH  18  19
ATOM     19  C   UNL     1       4.553   0.982   0.912  0.00  0.00    +0.036 C 
BRANCH  19  20
ATOM     20  C   UNL     1       5.881   0.554   0.342  0.00  0.00    -0.047 A 
ATOM     21  C   UNL     1       6.530  -0.570   0.853  0.00  0.00    +0.003 A 
ATOM     22  C   UNL     1       6.462   1.283  -0.696  0.00  0.00    +0.003 A 
ATOM     23  C   UNL     1       7.760  -0.966   0.325  0.00  0.00    +0.000 A 
ATOM     24  C   UNL     1       7.691   0.888  -1.223  0.00  0.00    +0.000 A 
ATOM     25  C   UNL     1       8.340  -0.237  -0.713  0.00  0.00    +0.000 A 
ENDBRANCH  19  20
ENDBRANCH  18  19
ENDBRANCH  15  18
ENDBRANCH   5  15
TORSDOF 5
