MODEL 1
REMARK VINA RESULT:      -6.8      0.000      0.000
REMARK  Name = 38026961
REMARK  10 active torsions:
REMARK  status: ('A' for Active; 'I' for Inactive)
REMARK    1  A    between atoms: N_6  and  C_16
REMARK    2  A    between atoms: C_8  and  C_12
REMARK    3  A    between atoms: C_9  and  C_16
REMARK    4  A    between atoms: C_11  and  C_15
REMARK    5  A    between atoms: C_12  and  C_17
REMARK    6  A    between atoms: C_12  and  C_18
REMARK    7  A    between atoms: C_13  and  C_19
REMARK    8  A    between atoms: C_15  and  C_20
REMARK    9  A    between atoms: C_25  and  C_27
REMARK   10  A    between atoms: C_26  and  C_28
REMARK                            x       y       z     vdW  Elec       q    Type
REMARK                         _______ _______ _______ _____ _____    ______ ____
ROOT
ATOM      8  C   UNL     1      -2.929 -12.406  13.137  0.00  0.00    +0.000 C 
ATOM      9  C   UNL     1      -1.872 -11.274  13.151  0.00  0.00    +0.032 C 
ATOM     10  C   UNL     1      -3.291 -12.786  11.694  0.00  0.00    +0.012 C 
ATOM     11  C   UNL     1      -3.847 -11.589  10.899  0.00  0.00    +0.023 C 
ATOM     13  C   UNL     1      -2.997 -10.348  11.080  0.00  0.00    -0.073 C 
ATOM     14  C   UNL     1      -2.109 -10.231  12.084  0.00  0.00    -0.022 C 
ATOM     19  C   UNL     1      -3.155  -9.262  10.051  0.00  0.00    +0.039 C 
ENDROOT
BRANCH   8  12
ATOM     12  C   UNL     1      -2.443 -13.646  13.895  0.00  0.00    -0.013 C 
ATOM     17  C   UNL     1      -3.566 -14.220  14.753  0.00  0.00    +0.007 C 
ATOM     18  C   UNL     1      -1.921 -14.695  12.917  0.00  0.00    +0.007 C 
ENDBRANCH   8  12
BRANCH  11  15
ATOM     15  C   UNL     1      -5.308 -11.311  11.269  0.00  0.00    +0.103 C 
BRANCH  15  20
ATOM      1  O   UNL     1      -6.252 -12.641   9.550  0.00  0.00    -0.276 OA
ATOM      4  O   UNL     1      -8.154  -5.898   8.132  0.00  0.00    -0.276 OA
ATOM      5  N   UNL     1      -6.889 -10.408   9.602  0.00  0.00    -0.298 N 
ATOM      7  N   UNL     1      -7.465  -8.114   8.042  0.00  0.00    -0.299 N 
ATOM     20  C   UNL     1      -6.190 -11.522  10.065  0.00  0.00    +0.216 C 
ATOM     21  C   UNL     1      -7.766 -10.529   8.434  0.00  0.00    +0.126 C 
ATOM     22  C   UNL     1      -6.895  -9.083  10.235  0.00  0.00    +0.126 C 
ATOM     23  C   UNL     1      -7.461  -9.440   7.408  0.00  0.00    +0.126 C 
ATOM     24  C   UNL     1      -6.589  -7.995   9.209  0.00  0.00    +0.126 C 
ATOM     26  C   UNL     1      -8.167  -7.002   7.581  0.00  0.00    +0.213 C 
ATOM     28  C   UNL     1      -8.985  -7.191   6.329  0.00  0.00    +0.109 C 
ENDBRANCH  15  20
ENDBRANCH  11  15
BRANCH   9  16
ATOM     16  C   UNL     1      -1.807 -10.594  14.524  0.00  0.00    +0.112 C 
BRANCH  16   6
ATOM      2  O   UNL     1      -2.802 -11.147  17.159  0.00  0.00    -0.267 OA
ATOM      6  N   UNL     1      -3.119 -10.317  15.016  0.00  0.00    -0.308 N 
ATOM     25  C   UNL     1      -3.522 -10.619  16.316  0.00  0.00    +0.279 C 
ATOM     32  H   UNL     1      -3.777  -9.842  14.404  0.00  0.00    +0.149 HD
BRANCH  25  27
ATOM      3  O   UNL     1      -5.402 -10.728  17.862  0.00  0.00    -0.458 OA
ATOM     27  C   UNL     1      -4.928 -10.292  16.666  0.00  0.00    +0.189 A 
ATOM     29  C   UNL     1      -5.899  -9.596  15.985  0.00  0.00    +0.054 A 
ATOM     30  C   UNL     1      -7.044  -9.605  16.817  0.00  0.00    +0.042 A 
ATOM     31  C   UNL     1      -6.691 -10.306  17.946  0.00  0.00    +0.196 A 
ENDBRANCH  25  27
ENDBRANCH  16   6
ENDBRANCH   9  16
TORSDOF 6
ENDMDL
MODEL 2
REMARK VINA RESULT:      -6.7     27.384     30.363
REMARK  Name = 38026961
REMARK  10 active torsions:
REMARK  status: ('A' for Active; 'I' for Inactive)
REMARK    1  A    between atoms: N_6  and  C_16
REMARK    2  A    between atoms: C_8  and  C_12
REMARK    3  A    between atoms: C_9  and  C_16
REMARK    4  A    between atoms: C_11  and  C_15
REMARK    5  A    between atoms: C_12  and  C_17
REMARK    6  A    between atoms: C_12  and  C_18
REMARK    7  A    between atoms: C_13  and  C_19
REMARK    8  A    between atoms: C_15  and  C_20
REMARK    9  A    between atoms: C_25  and  C_27
REMARK   10  A    between atoms: C_26  and  C_28
REMARK                            x       y       z     vdW  Elec       q    Type
REMARK                         _______ _______ _______ _____ _____    ______ ____
ROOT
ATOM      8  C   UNL     1      12.796   9.461  20.606  0.00  0.00    +0.000 C 
ATOM      9  C   UNL     1      11.968   8.352  19.910  0.00  0.00    +0.032 C 
ATOM     10  C   UNL     1      12.713  10.772  19.810  0.00  0.00    +0.012 C 
ATOM     11  C   UNL     1      13.229  10.611  18.369  0.00  0.00    +0.023 C 
ATOM     13  C   UNL     1      12.659   9.377  17.699  0.00  0.00    -0.073 C 
ATOM     14  C   UNL     1      12.087   8.384  18.404  0.00  0.00    -0.022 C 
ATOM     19  C   UNL     1      12.720   9.331  16.198  0.00  0.00    +0.039 C 
ENDROOT
BRANCH   8  12
ATOM     12  C   UNL     1      12.330   9.697  22.047  0.00  0.00    -0.013 C 
ATOM     17  C   UNL     1      12.936  10.984  22.598  0.00  0.00    +0.007 C 
ATOM     18  C   UNL     1      10.806   9.747  22.111  0.00  0.00    +0.007 C 
ENDBRANCH   8  12
BRANCH  11  15
ATOM     15  C   UNL     1      14.761  10.598  18.328  0.00  0.00    +0.103 C 
BRANCH  15  20
ATOM      1  O   UNL     1      14.998  12.952  18.456  0.00  0.00    -0.276 OA
ATOM      4  O   UNL     1      19.605  10.223  23.191  0.00  0.00    -0.276 OA
ATOM      5  N   UNL     1      16.130  11.709  20.058  0.00  0.00    -0.298 N 
ATOM      7  N   UNL     1      18.526  11.462  21.549  0.00  0.00    -0.299 N 
ATOM     20  C   UNL     1      15.301  11.863  18.947  0.00  0.00    +0.216 C 
ATOM     21  C   UNL     1      16.697  12.888  20.715  0.00  0.00    +0.126 C 
ATOM     22  C   UNL     1      16.450  10.432  20.711  0.00  0.00    +0.126 C 
ATOM     23  C   UNL     1      18.206  12.739  20.897  0.00  0.00    +0.126 C 
ATOM     24  C   UNL     1      17.958  10.283  20.890  0.00  0.00    +0.126 C 
ATOM     26  C   UNL     1      19.352  11.308  22.661  0.00  0.00    +0.213 C 
ATOM     28  C   UNL     1      19.957  12.566  23.231  0.00  0.00    +0.109 C 
ENDBRANCH  15  20
ENDBRANCH  11  15
BRANCH   9  16
ATOM     16  C   UNL     1      12.362   6.962  20.423  0.00  0.00    +0.112 C 
BRANCH  16   6
ATOM      2  O   UNL     1      14.713   7.207  22.053  0.00  0.00    -0.267 OA
ATOM      6  N   UNL     1      13.702   6.641  20.043  0.00  0.00    -0.308 N 
ATOM     25  C   UNL     1      14.791   6.791  20.900  0.00  0.00    +0.279 C 
ATOM     32  H   UNL     1      13.863   6.250  19.119  0.00  0.00    +0.149 HD
BRANCH  25  27
ATOM      3  O   UNL     1      16.169   5.909  19.093  0.00  0.00    -0.458 OA
ATOM     27  C   UNL     1      16.122   6.438  20.345  0.00  0.00    +0.189 A 
ATOM     29  C   UNL     1      17.389   6.545  20.872  0.00  0.00    +0.054 A 
ATOM     30  C   UNL     1      18.269   6.052  19.880  0.00  0.00    +0.042 A 
ATOM     31  C   UNL     1      17.479   5.677  18.818  0.00  0.00    +0.196 A 
ENDBRANCH  25  27
ENDBRANCH  16   6
ENDBRANCH   9  16
TORSDOF 6
ENDMDL
MODEL 3
REMARK VINA RESULT:      -6.5     23.061     25.358
REMARK  Name = 38026961
REMARK  10 active torsions:
REMARK  status: ('A' for Active; 'I' for Inactive)
REMARK    1  A    between atoms: N_6  and  C_16
REMARK    2  A    between atoms: C_8  and  C_12
REMARK    3  A    between atoms: C_9  and  C_16
REMARK    4  A    between atoms: C_11  and  C_15
REMARK    5  A    between atoms: C_12  and  C_17
REMARK    6  A    between atoms: C_12  and  C_18
REMARK    7  A    between atoms: C_13  and  C_19
REMARK    8  A    between atoms: C_15  and  C_20
REMARK    9  A    between atoms: C_25  and  C_27
REMARK   10  A    between atoms: C_26  and  C_28
REMARK                            x       y       z     vdW  Elec       q    Type
REMARK                         _______ _______ _______ _____ _____    ______ ____
ROOT
ATOM      8  C   UNL     1       9.070   8.646   5.280  0.00  0.00    +0.000 C 
ATOM      9  C   UNL     1       8.800   9.153   6.719  0.00  0.00    +0.032 C 
ATOM     10  C   UNL     1       8.538   7.215   5.107  0.00  0.00    +0.012 C 
ATOM     11  C   UNL     1       9.181   6.231   6.100  0.00  0.00    +0.023 C 
ATOM     13  C   UNL     1       9.194   6.781   7.512  0.00  0.00    -0.073 C 
ATOM     14  C   UNL     1       9.008   8.089   7.770  0.00  0.00    -0.022 C 
ATOM     19  C   UNL     1       9.379   5.787   8.625  0.00  0.00    +0.039 C 
ENDROOT
BRANCH   8  12
ATOM     12  C   UNL     1       8.443   9.565   4.226  0.00  0.00    -0.013 C 
ATOM     17  C   UNL     1       8.540   8.931   2.843  0.00  0.00    +0.007 C 
ATOM     18  C   UNL     1       6.991   9.867   4.582  0.00  0.00    +0.007 C 
ENDBRANCH   8  12
BRANCH  11  15
ATOM     15  C   UNL     1      10.593   5.837   5.652  0.00  0.00    +0.103 C 
BRANCH  15  20
ATOM      1  O   UNL     1      10.011   3.607   5.103  0.00  0.00    -0.276 OA
ATOM      4  O   UNL     1      13.958   6.039  -0.338  0.00  0.00    -0.276 OA
ATOM      5  N   UNL     1      11.061   4.844   3.441  0.00  0.00    -0.298 N 
ATOM      7  N   UNL     1      12.968   4.783   1.346  0.00  0.00    -0.299 N 
ATOM     20  C   UNL     1      10.523   4.659   4.714  0.00  0.00    +0.216 C 
ATOM     21  C   UNL     1      11.035   3.747   2.471  0.00  0.00    +0.126 C 
ATOM     22  C   UNL     1      11.610   6.104   2.923  0.00  0.00    +0.126 C 
ATOM     23  C   UNL     1      12.418   3.522   1.863  0.00  0.00    +0.126 C 
ATOM     24  C   UNL     1      12.993   5.879   2.318  0.00  0.00    +0.126 C 
ATOM     26  C   UNL     1      13.502   4.968   0.073  0.00  0.00    +0.213 C 
ATOM     28  C   UNL     1      13.506   3.767  -0.839  0.00  0.00    +0.109 C 
ENDBRANCH  15  20
ENDBRANCH  11  15
BRANCH   9  16
ATOM     16  C   UNL     1       9.670  10.372   7.048  0.00  0.00    +0.112 C 
BRANCH  16   6
ATOM      2  O   UNL     1      11.546  10.993   9.131  0.00  0.00    -0.267 OA
ATOM      6  N   UNL     1       9.365  10.877   8.349  0.00  0.00    -0.308 N 
ATOM     25  C   UNL     1      10.341  11.153   9.305  0.00  0.00    +0.279 C 
ATOM     32  H   UNL     1       8.395  11.082   8.575  0.00  0.00    +0.149 HD
BRANCH  25  27
ATOM      3  O   UNL     1      10.765  11.765  11.626  0.00  0.00    -0.458 OA
ATOM     27  C   UNL     1       9.858  11.649  10.619  0.00  0.00    +0.189 A 
ATOM     29  C   UNL     1       8.610  12.039  11.045  0.00  0.00    +0.054 A 
ATOM     30  C   UNL     1       8.758  12.418  12.401  0.00  0.00    +0.042 A 
ATOM     31  C   UNL     1      10.087  12.233  12.707  0.00  0.00    +0.196 A 
ENDBRANCH  25  27
ENDBRANCH  16   6
ENDBRANCH   9  16
TORSDOF 6
ENDMDL
MODEL 4
REMARK VINA RESULT:      -6.4     23.277     25.876
REMARK  Name = 38026961
REMARK  10 active torsions:
REMARK  status: ('A' for Active; 'I' for Inactive)
REMARK    1  A    between atoms: N_6  and  C_16
REMARK    2  A    between atoms: C_8  and  C_12
REMARK    3  A    between atoms: C_9  and  C_16
REMARK    4  A    between atoms: C_11  and  C_15
REMARK    5  A    between atoms: C_12  and  C_17
REMARK    6  A    between atoms: C_12  and  C_18
REMARK    7  A    between atoms: C_13  and  C_19
REMARK    8  A    between atoms: C_15  and  C_20
REMARK    9  A    between atoms: C_25  and  C_27
REMARK   10  A    between atoms: C_26  and  C_28
REMARK                            x       y       z     vdW  Elec       q    Type
REMARK                         _______ _______ _______ _____ _____    ______ ____
ROOT
ATOM      8  C   UNL     1       8.921   8.540   4.888  0.00  0.00    +0.000 C 
ATOM      9  C   UNL     1       8.595   9.181   6.260  0.00  0.00    +0.032 C 
ATOM     10  C   UNL     1       8.439   7.082   4.850  0.00  0.00    +0.012 C 
ATOM     11  C   UNL     1       9.088   6.226   5.954  0.00  0.00    +0.023 C 
ATOM     13  C   UNL     1       9.044   6.917   7.302  0.00  0.00    -0.073 C 
ATOM     14  C   UNL     1       8.809   8.237   7.419  0.00  0.00    -0.022 C 
ATOM     19  C   UNL     1       9.231   6.049   8.515  0.00  0.00    +0.039 C 
ENDROOT
BRANCH   8  12
ATOM     12  C   UNL     1       8.293   9.325   3.731  0.00  0.00    -0.013 C 
ATOM     17  C   UNL     1       8.430   8.548   2.426  0.00  0.00    +0.007 C 
ATOM     18  C   UNL     1       6.828   9.628   4.028  0.00  0.00    +0.007 C 
ENDBRANCH   8  12
BRANCH  11  15
ATOM     15  C   UNL     1      10.523   5.839   5.582  0.00  0.00    +0.103 C 
BRANCH  15  20
ATOM      1  O   UNL     1      10.022   3.585   5.047  0.00  0.00    -0.276 OA
ATOM      4  O   UNL     1      14.002   6.080  -0.341  0.00  0.00    -0.276 OA
ATOM      5  N   UNL     1      11.067   4.836   3.392  0.00  0.00    -0.298 N 
ATOM      7  N   UNL     1      13.017   4.812   1.337  0.00  0.00    -0.299 N 
ATOM     20  C   UNL     1      10.509   4.648   4.657  0.00  0.00    +0.216 C 
ATOM     21  C   UNL     1      11.095   3.728   2.435  0.00  0.00    +0.126 C 
ATOM     22  C   UNL     1      11.587   6.107   2.871  0.00  0.00    +0.126 C 
ATOM     23  C   UNL     1      12.497   3.541   1.858  0.00  0.00    +0.126 C 
ATOM     24  C   UNL     1      12.988   5.920   2.296  0.00  0.00    +0.126 C 
ATOM     26  C   UNL     1      13.571   5.000   0.073  0.00  0.00    +0.213 C 
ATOM     28  C   UNL     1      13.632   3.790  -0.824  0.00  0.00    +0.109 C 
ENDBRANCH  15  20
ENDBRANCH  11  15
BRANCH   9  16
ATOM     16  C   UNL     1       9.416  10.457   6.484  0.00  0.00    +0.112 C 
BRANCH  16   6
ATOM      2  O   UNL     1      11.488  10.482   8.471  0.00  0.00    -0.267 OA
ATOM      6  N   UNL     1      10.807  10.209   6.270  0.00  0.00    -0.308 N 
ATOM     25  C   UNL     1      11.750  10.241   7.296  0.00  0.00    +0.279 C 
ATOM     32  H   UNL     1      11.118   9.961   5.335  0.00  0.00    +0.149 HD
BRANCH  25  27
ATOM      3  O   UNL     1      13.543   8.699   6.705  0.00  0.00    -0.458 OA
ATOM     27  C   UNL     1      13.161   9.988   6.905  0.00  0.00    +0.189 A 
ATOM     29  C   UNL     1      14.216  10.843   6.692  0.00  0.00    +0.054 A 
ATOM     30  C   UNL     1      15.317  10.028   6.338  0.00  0.00    +0.042 A 
ATOM     31  C   UNL     1      14.857   8.732   6.361  0.00  0.00    +0.196 A 
ENDBRANCH  25  27
ENDBRANCH  16   6
ENDBRANCH   9  16
TORSDOF 6
ENDMDL
MODEL 5
REMARK VINA RESULT:      -6.2      2.383      3.892
REMARK  Name = 38026961
REMARK  10 active torsions:
REMARK  status: ('A' for Active; 'I' for Inactive)
REMARK    1  A    between atoms: N_6  and  C_16
REMARK    2  A    between atoms: C_8  and  C_12
REMARK    3  A    between atoms: C_9  and  C_16
REMARK    4  A    between atoms: C_11  and  C_15
REMARK    5  A    between atoms: C_12  and  C_17
REMARK    6  A    between atoms: C_12  and  C_18
REMARK    7  A    between atoms: C_13  and  C_19
REMARK    8  A    between atoms: C_15  and  C_20
REMARK    9  A    between atoms: C_25  and  C_27
REMARK   10  A    between atoms: C_26  and  C_28
REMARK                            x       y       z     vdW  Elec       q    Type
REMARK                         _______ _______ _______ _____ _____    ______ ____
ROOT
ATOM      8  C   UNL     1      -4.982 -12.172  16.065  0.00  0.00    +0.000 C 
ATOM      9  C   UNL     1      -4.186 -11.614  17.271  0.00  0.00    +0.032 C 
ATOM     10  C   UNL     1      -4.023 -12.671  14.974  0.00  0.00    +0.012 C 
ATOM     11  C   UNL     1      -3.088 -11.558  14.468  0.00  0.00    +0.023 C 
ATOM     13  C   UNL     1      -2.466 -10.780  15.610  0.00  0.00    -0.073 C 
ATOM     14  C   UNL     1      -2.963 -10.829  16.860  0.00  0.00    -0.022 C 
ATOM     19  C   UNL     1      -1.232  -9.981  15.294  0.00  0.00    +0.039 C 
ENDROOT
BRANCH   8  12
ATOM     12  C   UNL     1      -5.927 -13.303  16.483  0.00  0.00    -0.013 C 
ATOM     17  C   UNL     1      -7.134 -13.359  15.552  0.00  0.00    +0.007 C 
ATOM     18  C   UNL     1      -5.188 -14.638  16.491  0.00  0.00    +0.007 C 
ENDBRANCH   8  12
BRANCH  11  15
ATOM     15  C   UNL     1      -3.818 -10.620  13.500  0.00  0.00    +0.103 C 
BRANCH  15  20
ATOM      1  O   UNL     1      -2.227 -11.261  11.864  0.00  0.00    -0.276 OA
ATOM      4  O   UNL     1      -8.006  -9.063   8.276  0.00  0.00    -0.276 OA
ATOM      5  N   UNL     1      -4.359 -10.755  11.094  0.00  0.00    -0.298 N 
ATOM      7  N   UNL     1      -5.857  -9.505   9.040  0.00  0.00    -0.299 N 
ATOM     20  C   UNL     1      -3.389 -10.911  12.083  0.00  0.00    +0.216 C 
ATOM     21  C   UNL     1      -4.022 -11.015   9.693  0.00  0.00    +0.126 C 
ATOM     22  C   UNL     1      -5.768 -10.412  11.330  0.00  0.00    +0.126 C 
ATOM     23  C   UNL     1      -4.448  -9.849   8.804  0.00  0.00    +0.126 C 
ATOM     24  C   UNL     1      -6.193  -9.245  10.442  0.00  0.00    +0.126 C 
ATOM     26  C   UNL     1      -6.827  -9.352   8.051  0.00  0.00    +0.213 C 
ATOM     28  C   UNL     1      -6.379  -9.564   6.627  0.00  0.00    +0.109 C 
ENDBRANCH  15  20
ENDBRANCH  11  15
BRANCH   9  16
ATOM     16  C   UNL     1      -5.075 -10.742  18.165  0.00  0.00    +0.112 C 
BRANCH  16   6
ATOM      2  O   UNL     1      -7.854 -10.517  18.851  0.00  0.00    -0.267 OA
ATOM      6  N   UNL     1      -6.095 -10.101  17.397  0.00  0.00    -0.308 N 
ATOM     25  C   UNL     1      -7.426 -10.037  17.805  0.00  0.00    +0.279 C 
ATOM     32  H   UNL     1      -5.831  -9.636  16.532  0.00  0.00    +0.149 HD
BRANCH  25  27
ATOM      3  O   UNL     1      -9.124  -8.341  17.377  0.00  0.00    -0.458 OA
ATOM     27  C   UNL     1      -8.369  -9.357  16.880  0.00  0.00    +0.189 A 
ATOM     29  C   UNL     1      -8.646  -9.559  15.548  0.00  0.00    +0.054 A 
ATOM     30  C   UNL     1      -9.635  -8.607  15.204  0.00  0.00    +0.042 A 
ATOM     31  C   UNL     1      -9.892  -7.890  16.350  0.00  0.00    +0.196 A 
ENDBRANCH  25  27
ENDBRANCH  16   6
ENDBRANCH   9  16
TORSDOF 6
ENDMDL
MODEL 6
REMARK VINA RESULT:      -6.1      2.692      4.237
REMARK  Name = 38026961
REMARK  10 active torsions:
REMARK  status: ('A' for Active; 'I' for Inactive)
REMARK    1  A    between atoms: N_6  and  C_16
REMARK    2  A    between atoms: C_8  and  C_12
REMARK    3  A    between atoms: C_9  and  C_16
REMARK    4  A    between atoms: C_11  and  C_15
REMARK    5  A    between atoms: C_12  and  C_17
REMARK    6  A    between atoms: C_12  and  C_18
REMARK    7  A    between atoms: C_13  and  C_19
REMARK    8  A    between atoms: C_15  and  C_20
REMARK    9  A    between atoms: C_25  and  C_27
REMARK   10  A    between atoms: C_26  and  C_28
REMARK                            x       y       z     vdW  Elec       q    Type
REMARK                         _______ _______ _______ _____ _____    ______ ____
ROOT
ATOM      8  C   UNL     1      -5.589 -11.228  14.777  0.00  0.00    +0.000 C 
ATOM      9  C   UNL     1      -5.319 -10.772  16.233  0.00  0.00    +0.032 C 
ATOM     10  C   UNL     1      -4.477 -12.173  14.297  0.00  0.00    +0.012 C 
ATOM     11  C   UNL     1      -3.088 -11.511  14.351  0.00  0.00    +0.023 C 
ATOM     13  C   UNL     1      -2.850 -10.804  15.670  0.00  0.00    -0.073 C 
ATOM     14  C   UNL     1      -3.859 -10.494  16.504  0.00  0.00    -0.022 C 
ATOM     19  C   UNL     1      -1.422 -10.503  16.030  0.00  0.00    +0.039 C 
ENDROOT
BRANCH   8  12
ATOM     12  C   UNL     1      -6.951 -11.916  14.641  0.00  0.00    -0.013 C 
ATOM     17  C   UNL     1      -7.164 -12.396  13.209  0.00  0.00    +0.007 C 
ATOM     18  C   UNL     1      -7.058 -13.080  15.622  0.00  0.00    +0.007 C 
ENDBRANCH   8  12
BRANCH  11  15
ATOM     15  C   UNL     1      -2.884 -10.554  13.171  0.00  0.00    +0.103 C 
BRANCH  15  20
ATOM      1  O   UNL     1      -2.540 -12.244  11.546  0.00  0.00    -0.276 OA
ATOM      4  O   UNL     1      -7.328  -7.731   8.753  0.00  0.00    -0.276 OA
ATOM      5  N   UNL     1      -4.255 -10.735  11.126  0.00  0.00    -0.298 N 
ATOM      7  N   UNL     1      -5.571  -9.199   9.142  0.00  0.00    -0.299 N 
ATOM     20  C   UNL     1      -3.205 -11.260  11.878  0.00  0.00    +0.216 C 
ATOM     21  C   UNL     1      -4.628 -11.361   9.855  0.00  0.00    +0.126 C 
ATOM     22  C   UNL     1      -5.113  -9.612  11.528  0.00  0.00    +0.126 C 
ATOM     23  C   UNL     1      -4.714 -10.322   8.739  0.00  0.00    +0.126 C 
ATOM     24  C   UNL     1      -5.197  -8.573  10.413  0.00  0.00    +0.126 C 
ATOM     26  C   UNL     1      -6.622  -8.676   8.392  0.00  0.00    +0.213 C 
ATOM     28  C   UNL     1      -6.891  -9.330   7.060  0.00  0.00    +0.109 C 
ENDBRANCH  15  20
ENDBRANCH  11  15
BRANCH   9  16
ATOM     16  C   UNL     1      -6.148  -9.531  16.587  0.00  0.00    +0.112 C 
BRANCH  16   6
ATOM      2  O   UNL     1      -8.858  -8.606  16.376  0.00  0.00    -0.267 OA
ATOM      6  N   UNL     1      -7.238  -9.876  17.445  0.00  0.00    -0.308 N 
ATOM     25  C   UNL     1      -8.528  -9.380  17.271  0.00  0.00    +0.279 C 
ATOM     32  H   UNL     1      -7.073 -10.545  18.193  0.00  0.00    +0.149 HD
BRANCH  25  27
ATOM      3  O   UNL     1      -9.146 -10.663  19.249  0.00  0.00    -0.458 OA
ATOM     27  C   UNL     1      -9.543  -9.814  18.264  0.00  0.00    +0.189 A 
ATOM     29  C   UNL     1     -10.879  -9.512  18.396  0.00  0.00    +0.054 A 
ATOM     30  C   UNL     1     -11.331 -10.221  19.535  0.00  0.00    +0.042 A 
ATOM     31  C   UNL     1     -10.240 -10.906  20.017  0.00  0.00    +0.196 A 
ENDBRANCH  25  27
ENDBRANCH  16   6
ENDBRANCH   9  16
TORSDOF 6
ENDMDL
MODEL 7
REMARK VINA RESULT:      -6.1     23.147     26.056
REMARK  Name = 38026961
REMARK  10 active torsions:
REMARK  status: ('A' for Active; 'I' for Inactive)
REMARK    1  A    between atoms: N_6  and  C_16
REMARK    2  A    between atoms: C_8  and  C_12
REMARK    3  A    between atoms: C_9  and  C_16
REMARK    4  A    between atoms: C_11  and  C_15
REMARK    5  A    between atoms: C_12  and  C_17
REMARK    6  A    between atoms: C_12  and  C_18
REMARK    7  A    between atoms: C_13  and  C_19
REMARK    8  A    between atoms: C_15  and  C_20
REMARK    9  A    between atoms: C_25  and  C_27
REMARK   10  A    between atoms: C_26  and  C_28
REMARK                            x       y       z     vdW  Elec       q    Type
REMARK                         _______ _______ _______ _____ _____    ______ ____
ROOT
ATOM      8  C   UNL     1       9.642   6.699   6.492  0.00  0.00    +0.000 C 
ATOM      9  C   UNL     1       9.210   5.991   5.184  0.00  0.00    +0.032 C 
ATOM     10  C   UNL     1       8.579   7.720   6.926  0.00  0.00    +0.012 C 
ATOM     11  C   UNL     1       8.331   8.794   5.850  0.00  0.00    +0.023 C 
ATOM     13  C   UNL     1       8.161   8.184   4.473  0.00  0.00    -0.073 C 
ATOM     14  C   UNL     1       8.548   6.925   4.198  0.00  0.00    -0.022 C 
ATOM     19  C   UNL     1       7.494   9.038   3.431  0.00  0.00    +0.039 C 
ENDROOT
BRANCH   8  12
ATOM     12  C   UNL     1       9.891   5.697   7.624  0.00  0.00    -0.013 C 
ATOM     17  C   UNL     1      11.326   5.812   8.130  0.00  0.00    +0.007 C 
ATOM     18  C   UNL     1       8.898   5.921   8.760  0.00  0.00    +0.007 C 
ENDBRANCH   8  12
BRANCH  11  15
ATOM     15  C   UNL     1       9.447   9.845   5.850  0.00  0.00    +0.103 C 
BRANCH  15  20
ATOM      1  O   UNL     1       8.179  11.844   5.944  0.00  0.00    -0.276 OA
ATOM      4  O   UNL     1      12.376  11.868  11.730  0.00  0.00    -0.276 OA
ATOM      5  N   UNL     1       9.464  11.344   7.812  0.00  0.00    -0.298 N 
ATOM      7  N   UNL     1      11.142  12.401   9.835  0.00  0.00    -0.299 N 
ATOM     20  C   UNL     1       8.967  11.101   6.532  0.00  0.00    +0.216 C 
ATOM     21  C   UNL     1       9.049  12.544   8.541  0.00  0.00    +0.126 C 
ATOM     22  C   UNL     1      10.345  10.443   8.568  0.00  0.00    +0.126 C 
ATOM     23  C   UNL     1      10.261  13.301   9.079  0.00  0.00    +0.126 C 
ATOM     24  C   UNL     1      11.556  11.200   9.104  0.00  0.00    +0.126 C 
ATOM     26  C   UNL     1      11.637  12.642  11.115  0.00  0.00    +0.213 C 
ATOM     28  C   UNL     1      11.222  13.937  11.766  0.00  0.00    +0.109 C 
ENDBRANCH  15  20
ENDBRANCH  11  15
BRANCH   9  16
ATOM     16  C   UNL     1      10.401   5.299   4.510  0.00  0.00    +0.112 C 
BRANCH  16   6
ATOM      2  O   UNL     1      11.488   3.424   2.628  0.00  0.00    -0.267 OA
ATOM      6  N   UNL     1      10.279   5.350   3.087  0.00  0.00    -0.308 N 
ATOM     25  C   UNL     1      10.841   4.394   2.242  0.00  0.00    +0.279 C 
ATOM     32  H   UNL     1       9.725   6.095   2.674  0.00  0.00    +0.149 HD
BRANCH  25  27
ATOM      3  O   UNL     1      11.336   3.801  -0.069  0.00  0.00    -0.458 OA
ATOM     27  C   UNL     1      10.646   4.603   0.785  0.00  0.00    +0.189 A 
ATOM     29  C   UNL     1       9.864   5.493   0.087  0.00  0.00    +0.054 A 
ATOM     30  C   UNL     1      10.087   5.221  -1.284  0.00  0.00    +0.042 A 
ATOM     31  C   UNL     1      10.990   4.184  -1.326  0.00  0.00    +0.196 A 
ENDBRANCH  25  27
ENDBRANCH  16   6
ENDBRANCH   9  16
TORSDOF 6
ENDMDL
MODEL 8
REMARK VINA RESULT:      -6.0     27.506     29.871
REMARK  Name = 38026961
REMARK  10 active torsions:
REMARK  status: ('A' for Active; 'I' for Inactive)
REMARK    1  A    between atoms: N_6  and  C_16
REMARK    2  A    between atoms: C_8  and  C_12
REMARK    3  A    between atoms: C_9  and  C_16
REMARK    4  A    between atoms: C_11  and  C_15
REMARK    5  A    between atoms: C_12  and  C_17
REMARK    6  A    between atoms: C_12  and  C_18
REMARK    7  A    between atoms: C_13  and  C_19
REMARK    8  A    between atoms: C_15  and  C_20
REMARK    9  A    between atoms: C_25  and  C_27
REMARK   10  A    between atoms: C_26  and  C_28
REMARK                            x       y       z     vdW  Elec       q    Type
REMARK                         _______ _______ _______ _____ _____    ______ ____
ROOT
ATOM      8  C   UNL     1      13.641  10.824  20.602  0.00  0.00    +0.000 C 
ATOM      9  C   UNL     1      13.502   9.757  21.716  0.00  0.00    +0.032 C 
ATOM     10  C   UNL     1      12.623  10.566  19.481  0.00  0.00    +0.012 C 
ATOM     11  C   UNL     1      12.797   9.173  18.847  0.00  0.00    +0.023 C 
ATOM     13  C   UNL     1      12.938   8.089  19.896  0.00  0.00    -0.073 C 
ATOM     14  C   UNL     1      13.240   8.370  21.177  0.00  0.00    -0.022 C 
ATOM     19  C   UNL     1      12.678   6.677  19.450  0.00  0.00    +0.039 C 
ENDROOT
BRANCH   8  12
ATOM     12  C   UNL     1      13.461  12.244  21.150  0.00  0.00    -0.013 C 
ATOM     17  C   UNL     1      13.524  13.263  20.018  0.00  0.00    +0.007 C 
ATOM     18  C   UNL     1      12.141  12.358  21.906  0.00  0.00    +0.007 C 
ENDBRANCH   8  12
BRANCH  11  15
ATOM     15  C   UNL     1      13.983   9.153  17.875  0.00  0.00    +0.103 C 
BRANCH  15  20
ATOM      1  O   UNL     1      12.741   8.960  15.866  0.00  0.00    -0.276 OA
ATOM      4  O   UNL     1      17.126  14.535  14.978  0.00  0.00    -0.276 OA
ATOM      5  N   UNL     1      14.082  10.844  16.079  0.00  0.00    -0.298 N 
ATOM      7  N   UNL     1      15.837  12.617  14.737  0.00  0.00    -0.299 N 
ATOM     20  C   UNL     1      13.540   9.637  16.517  0.00  0.00    +0.216 C 
ATOM     21  C   UNL     1      13.705  11.382  14.770  0.00  0.00    +0.126 C 
ATOM     22  C   UNL     1      14.976  11.709  16.861  0.00  0.00    +0.126 C 
ATOM     23  C   UNL     1      14.943  11.753  13.956  0.00  0.00    +0.126 C 
ATOM     24  C   UNL     1      16.213  12.079  16.047  0.00  0.00    +0.126 C 
ATOM     26  C   UNL     1      16.376  13.826  14.301  0.00  0.00    +0.213 C 
ATOM     28  C   UNL     1      15.998  14.270  12.910  0.00  0.00    +0.109 C 
ENDBRANCH  15  20
ENDBRANCH  11  15
BRANCH   9  16
ATOM     16  C   UNL     1      14.745   9.728  22.614  0.00  0.00    +0.112 C 
BRANCH  16   6
ATOM      2  O   UNL     1      17.127  10.142  21.065  0.00  0.00    -0.267 OA
ATOM      6  N   UNL     1      15.664   8.725  22.177  0.00  0.00    -0.308 N 
ATOM     25  C   UNL     1      16.802   9.014  21.424  0.00  0.00    +0.279 C 
ATOM     32  H   UNL     1      15.502   7.763  22.460  0.00  0.00    +0.149 HD
BRANCH  25  27
ATOM      3  O   UNL     1      17.206   7.077  20.002  0.00  0.00    -0.458 OA
ATOM     27  C   UNL     1      17.642   7.856  21.027  0.00  0.00    +0.189 A 
ATOM     29  C   UNL     1      18.841   7.389  21.513  0.00  0.00    +0.054 A 
ATOM     30  C   UNL     1      19.162   6.250  20.737  0.00  0.00    +0.042 A 
ATOM     31  C   UNL     1      18.137   6.101  19.832  0.00  0.00    +0.196 A 
ENDBRANCH  25  27
ENDBRANCH  16   6
ENDBRANCH   9  16
TORSDOF 6
ENDMDL
MODEL 9
REMARK VINA RESULT:      -6.0     25.767     28.656
REMARK  Name = 38026961
REMARK  10 active torsions:
REMARK  status: ('A' for Active; 'I' for Inactive)
REMARK    1  A    between atoms: N_6  and  C_16
REMARK    2  A    between atoms: C_8  and  C_12
REMARK    3  A    between atoms: C_9  and  C_16
REMARK    4  A    between atoms: C_11  and  C_15
REMARK    5  A    between atoms: C_12  and  C_17
REMARK    6  A    between atoms: C_12  and  C_18
REMARK    7  A    between atoms: C_13  and  C_19
REMARK    8  A    between atoms: C_15  and  C_20
REMARK    9  A    between atoms: C_25  and  C_27
REMARK   10  A    between atoms: C_26  and  C_28
REMARK                            x       y       z     vdW  Elec       q    Type
REMARK                         _______ _______ _______ _____ _____    ______ ____
ROOT
ATOM      8  C   UNL     1      18.340  -3.573  24.252  0.00  0.00    +0.000 C 
ATOM      9  C   UNL     1      18.555  -4.559  23.077  0.00  0.00    +0.032 C 
ATOM     10  C   UNL     1      19.648  -2.836  24.580  0.00  0.00    +0.012 C 
ATOM     11  C   UNL     1      20.783  -3.806  24.958  0.00  0.00    +0.023 C 
ATOM     13  C   UNL     1      20.884  -4.963  23.984  0.00  0.00    -0.073 C 
ATOM     14  C   UNL     1      19.883  -5.276  23.142  0.00  0.00    -0.022 C 
ATOM     19  C   UNL     1      22.181  -5.724  23.968  0.00  0.00    +0.039 C 
ENDROOT
BRANCH   8  12
ATOM     12  C   UNL     1      17.234  -2.557  23.947  0.00  0.00    -0.013 C 
ATOM     17  C   UNL     1      17.018  -1.632  25.140  0.00  0.00    +0.007 C 
ATOM     18  C   UNL     1      17.581  -1.754  22.697  0.00  0.00    +0.007 C 
ENDBRANCH   8  12
BRANCH  11  15
ATOM     15  C   UNL     1      20.622  -4.312  26.396  0.00  0.00    +0.103 C 
BRANCH  15  20
ATOM      1  O   UNL     1      21.341  -2.310  27.439  0.00  0.00    -0.276 OA
ATOM      4  O   UNL     1      15.270  -4.198  30.707  0.00  0.00    -0.276 OA
ATOM      5  N   UNL     1      19.236  -3.090  28.033  0.00  0.00    -0.298 N 
ATOM      7  N   UNL     1      17.402  -3.454  30.162  0.00  0.00    -0.299 N 
ATOM     20  C   UNL     1      20.440  -3.144  27.332  0.00  0.00    +0.216 C 
ATOM     21  C   UNL     1      18.982  -1.989  28.965  0.00  0.00    +0.126 C 
ATOM     22  C   UNL     1      18.115  -4.026  27.873  0.00  0.00    +0.126 C 
ATOM     23  C   UNL     1      18.523  -2.518  30.322  0.00  0.00    +0.126 C 
ATOM     24  C   UNL     1      17.657  -4.555  29.229  0.00  0.00    +0.126 C 
ATOM     26  C   UNL     1      16.197  -3.399  30.860  0.00  0.00    +0.213 C 
ATOM     28  C   UNL     1      16.046  -2.277  31.857  0.00  0.00    +0.109 C 
ENDBRANCH  15  20
ENDBRANCH  11  15
BRANCH   9  16
ATOM     16  C   UNL     1      17.422  -5.590  23.006  0.00  0.00    +0.112 C 
BRANCH  16   6
ATOM      2  O   UNL     1      17.970  -7.949  24.547  0.00  0.00    -0.267 OA
ATOM      6  N   UNL     1      16.926  -5.891  24.312  0.00  0.00    -0.308 N 
ATOM     25  C   UNL     1      17.243  -7.065  24.993  0.00  0.00    +0.279 C 
ATOM     32  H   UNL     1      16.348  -5.200  24.782  0.00  0.00    +0.149 HD
BRANCH  25  27
ATOM      3  O   UNL     1      17.325  -7.936  27.267  0.00  0.00    -0.458 OA
ATOM     27  C   UNL     1      16.626  -7.240  26.332  0.00  0.00    +0.189 A 
ATOM     29  C   UNL     1      15.424  -6.814  26.846  0.00  0.00    +0.054 A 
ATOM     30  C   UNL     1      15.381  -7.278  28.182  0.00  0.00    +0.042 A 
ATOM     31  C   UNL     1      16.560  -7.955  28.390  0.00  0.00    +0.196 A 
ENDBRANCH  25  27
ENDBRANCH  16   6
ENDBRANCH   9  16
TORSDOF 6
ENDMDL
MODEL 10
REMARK VINA RESULT:      -6.0      3.306      6.450
REMARK  Name = 38026961
REMARK  10 active torsions:
REMARK  status: ('A' for Active; 'I' for Inactive)
REMARK    1  A    between atoms: N_6  and  C_16
REMARK    2  A    between atoms: C_8  and  C_12
REMARK    3  A    between atoms: C_9  and  C_16
REMARK    4  A    between atoms: C_11  and  C_15
REMARK    5  A    between atoms: C_12  and  C_17
REMARK    6  A    between atoms: C_12  and  C_18
REMARK    7  A    between atoms: C_13  and  C_19
REMARK    8  A    between atoms: C_15  and  C_20
REMARK    9  A    between atoms: C_25  and  C_27
REMARK   10  A    between atoms: C_26  and  C_28
REMARK                            x       y       z     vdW  Elec       q    Type
REMARK                         _______ _______ _______ _____ _____    ______ ____
ROOT
ATOM      8  C   UNL     1      -7.627 -12.043  17.179  0.00  0.00    +0.000 C 
ATOM      9  C   UNL     1      -7.627 -12.205  18.719  0.00  0.00    +0.032 C 
ATOM     10  C   UNL     1      -6.408 -12.747  16.565  0.00  0.00    +0.012 C 
ATOM     11  C   UNL     1      -5.079 -12.194  17.114  0.00  0.00    +0.023 C 
ATOM     13  C   UNL     1      -5.100 -12.072  18.624  0.00  0.00    -0.073 C 
ATOM     14  C   UNL     1      -6.248 -12.093  19.326  0.00  0.00    -0.022 C 
ATOM     19  C   UNL     1      -3.768 -11.972  19.314  0.00  0.00    +0.039 C 
ENDROOT
BRANCH   8  12
ATOM     12  C   UNL     1      -8.914 -12.588  16.550  0.00  0.00    -0.013 C 
ATOM     17  C   UNL     1      -9.260 -11.808  15.286  0.00  0.00    +0.007 C 
ATOM     18  C   UNL     1      -8.766 -14.075  16.244  0.00  0.00    +0.007 C 
ENDBRANCH   8  12
BRANCH  11  15
ATOM     15  C   UNL     1      -4.726 -10.854  16.460  0.00  0.00    +0.103 C 
BRANCH  15  20
ATOM      1  O   UNL     1      -2.548 -11.310  15.646  0.00  0.00    -0.276 OA
ATOM      4  O   UNL     1      -6.487  -9.566   9.942  0.00  0.00    -0.276 OA
ATOM      5  N   UNL     1      -4.203 -10.982  14.050  0.00  0.00    -0.298 N 
ATOM      7  N   UNL     1      -4.820  -9.827  11.538  0.00  0.00    -0.299 N 
ATOM     20  C   UNL     1      -3.722 -11.072  15.356  0.00  0.00    +0.216 C 
ATOM     21  C   UNL     1      -3.291 -11.178  12.921  0.00  0.00    +0.126 C 
ATOM     22  C   UNL     1      -5.607 -10.775  13.673  0.00  0.00    +0.126 C 
ATOM     23  C   UNL     1      -3.415 -10.036  11.915  0.00  0.00    +0.126 C 
ATOM     24  C   UNL     1      -5.731  -9.632  12.668  0.00  0.00    +0.126 C 
ATOM     26  C   UNL     1      -5.301  -9.741  10.233  0.00  0.00    +0.213 C 
ATOM     28  C   UNL     1      -4.284  -9.878   9.128  0.00  0.00    +0.109 C 
ENDBRANCH  15  20
ENDBRANCH  11  15
BRANCH   9  16
ATOM     16  C   UNL     1      -8.561 -11.186  19.384  0.00  0.00    +0.112 C 
BRANCH  16   6
ATOM      2  O   UNL     1     -11.155 -10.120  18.769  0.00  0.00    -0.267 OA
ATOM      6  N   UNL     1      -8.851 -10.107  18.493  0.00  0.00    -0.308 N 
ATOM     25  C   UNL     1     -10.145  -9.650  18.250  0.00  0.00    +0.279 C 
ATOM     32  H   UNL     1      -8.076  -9.626  18.045  0.00  0.00    +0.149 HD
BRANCH  25  27
ATOM      3  O   UNL     1     -11.383  -7.744  17.370  0.00  0.00    -0.458 OA
ATOM     27  C   UNL     1     -10.282  -8.537  17.277  0.00  0.00    +0.189 A 
ATOM     29  C   UNL     1      -9.473  -8.122  16.245  0.00  0.00    +0.054 A 
ATOM     30  C   UNL     1     -10.118  -7.003  15.666  0.00  0.00    +0.042 A 
ATOM     31  C   UNL     1     -11.275  -6.814  16.385  0.00  0.00    +0.196 A 
ENDBRANCH  25  27
ENDBRANCH  16   6
ENDBRANCH   9  16
TORSDOF 6
ENDMDL
