MODEL 1
REMARK VINA RESULT:      -7.4      0.000      0.000
REMARK  Name = 38030303
REMARK  10 active torsions:
REMARK  status: ('A' for Active; 'I' for Inactive)
REMARK    1  A    between atoms: N_2  and  C_11
REMARK    2  A    between atoms: N_3  and  C_23
REMARK    3  A    between atoms: C_6  and  C_10
REMARK    4  A    between atoms: C_7  and  C_11
REMARK    5  A    between atoms: C_9  and  C_14
REMARK    6  A    between atoms: C_10  and  C_15
REMARK    7  A    between atoms: C_10  and  C_16
REMARK    8  A    between atoms: C_13  and  C_19
REMARK    9  A    between atoms: C_14  and  C_22
REMARK   10  A    between atoms: C_24  and  C_25
REMARK                            x       y       z     vdW  Elec       q    Type
REMARK                         _______ _______ _______ _____ _____    ______ ____
ROOT
ATOM      6  C   UNL     1      13.069  10.716  21.704  0.00  0.00    +0.000 C 
ATOM      7  C   UNL     1      14.107   9.603  21.974  0.00  0.00    +0.029 C 
ATOM      8  C   UNL     1      12.155  10.329  20.533  0.00  0.00    +0.012 C 
ATOM      9  C   UNL     1      11.423   8.986  20.748  0.00  0.00    +0.024 C 
ATOM     12  C   UNL     1      13.498   8.223  21.938  0.00  0.00    -0.023 C 
ATOM     13  C   UNL     1      12.298   7.930  21.407  0.00  0.00    -0.073 C 
ATOM     19  C   UNL     1      11.747   6.534  21.503  0.00  0.00    +0.039 C 
ENDROOT
BRANCH   6  10
ATOM     10  C   UNL     1      12.252  11.037  22.964  0.00  0.00    -0.013 C 
ATOM     15  C   UNL     1      13.159  11.585  24.061  0.00  0.00    +0.007 C 
ATOM     16  C   UNL     1      11.139  12.026  22.638  0.00  0.00    +0.007 C 
ENDBRANCH   6  10
BRANCH   7  11
ATOM     11  C   UNL     1      15.274   9.664  20.983  0.00  0.00    +0.092 C 
BRANCH  11   2
ATOM      2  N   UNL     1      15.964   8.376  20.918  0.00  0.00    -0.299 NA
ATOM      3  N   UNL     1      17.982   6.585  19.882  0.00  0.00    -0.303 NA
ATOM     17  C   UNL     1      15.844   7.789  19.578  0.00  0.00    +0.100 C 
ATOM     18  C   UNL     1      17.376   8.523  21.290  0.00  0.00    +0.100 C 
ATOM     20  C   UNL     1      16.569   6.440  19.509  0.00  0.00    +0.099 C 
ATOM     21  C   UNL     1      18.101   7.174  21.221  0.00  0.00    +0.099 C 
ATOM     23  C   UNL     1      18.670   5.297  19.818  0.00  0.00    +0.105 C 
ENDBRANCH  11   2
ENDBRANCH   7  11
BRANCH   9  14
ATOM     14  C   UNL     1      10.843   8.526  19.405  0.00  0.00    +0.105 C 
BRANCH  14  22
ATOM      1  O   UNL     1      12.598   9.527  18.035  0.00  0.00    -0.420 OA
ATOM      4  N   UNL     1      12.305   7.336  17.691  0.00  0.00    -0.112 NA
ATOM      5  N   UNL     1      13.321   7.768  16.857  0.00  0.00    -0.107 NA
ATOM     22  C   UNL     1      11.914   8.396  18.359  0.00  0.00    +0.218 A 
ATOM     24  C   UNL     1      13.456   9.052  17.092  0.00  0.00    +0.248 A 
BRANCH  24  25
ATOM     25  C   UNL     1      14.354  10.013  16.520  0.00  0.00    +0.038 A 
ATOM     26  C   UNL     1      14.745   9.892  15.186  0.00  0.00    +0.013 A 
ATOM     27  C   UNL     1      14.835  11.067  17.295  0.00  0.00    +0.013 A 
ATOM     28  C   UNL     1      15.618  10.826  14.628  0.00  0.00    +0.001 A 
ATOM     29  C   UNL     1      15.708  12.001  16.738  0.00  0.00    +0.001 A 
ATOM     30  C   UNL     1      16.100  11.881  15.404  0.00  0.00    +0.000 A 
ENDBRANCH  24  25
ENDBRANCH  14  22
ENDBRANCH   9  14
TORSDOF 6
ENDMDL
MODEL 2
REMARK VINA RESULT:      -7.2      2.726      6.875
REMARK  Name = 38030303
REMARK  10 active torsions:
REMARK  status: ('A' for Active; 'I' for Inactive)
REMARK    1  A    between atoms: N_2  and  C_11
REMARK    2  A    between atoms: N_3  and  C_23
REMARK    3  A    between atoms: C_6  and  C_10
REMARK    4  A    between atoms: C_7  and  C_11
REMARK    5  A    between atoms: C_9  and  C_14
REMARK    6  A    between atoms: C_10  and  C_15
REMARK    7  A    between atoms: C_10  and  C_16
REMARK    8  A    between atoms: C_13  and  C_19
REMARK    9  A    between atoms: C_14  and  C_22
REMARK   10  A    between atoms: C_24  and  C_25
REMARK                            x       y       z     vdW  Elec       q    Type
REMARK                         _______ _______ _______ _____ _____    ______ ____
ROOT
ATOM      6  C   UNL     1      14.338  10.559  20.847  0.00  0.00    +0.000 C 
ATOM      7  C   UNL     1      13.014  10.785  20.082  0.00  0.00    +0.029 C 
ATOM      8  C   UNL     1      14.712   9.070  20.849  0.00  0.00    +0.012 C 
ATOM      9  C   UNL     1      14.828   8.467  19.431  0.00  0.00    +0.024 C 
ATOM     12  C   UNL     1      12.950  10.007  18.792  0.00  0.00    -0.023 C 
ATOM     13  C   UNL     1      13.758   8.978  18.478  0.00  0.00    -0.073 C 
ATOM     19  C   UNL     1      13.667   8.328  17.124  0.00  0.00    +0.039 C 
ENDROOT
BRANCH   6  10
ATOM     10  C   UNL     1      15.472  11.415  20.267  0.00  0.00    -0.013 C 
ATOM     15  C   UNL     1      15.068  12.885  20.238  0.00  0.00    +0.007 C 
ATOM     16  C   UNL     1      16.751  11.221  21.075  0.00  0.00    +0.007 C 
ENDBRANCH   6  10
BRANCH   7  11
ATOM     11  C   UNL     1      11.795  10.433  20.942  0.00  0.00    +0.092 C 
BRANCH  11   2
ATOM      2  N   UNL     1      11.800  11.205  22.184  0.00  0.00    -0.299 NA
ATOM      3  N   UNL     1      10.496  12.543  24.389  0.00  0.00    -0.303 NA
ATOM     17  C   UNL     1      11.120  12.493  21.998  0.00  0.00    +0.100 C 
ATOM     18  C   UNL     1      11.172  10.446  23.272  0.00  0.00    +0.100 C 
ATOM     20  C   UNL     1      11.123  13.302  23.300  0.00  0.00    +0.099 C 
ATOM     21  C   UNL     1      11.175  11.254  24.574  0.00  0.00    +0.099 C 
ATOM     23  C   UNL     1      10.502  13.315  25.631  0.00  0.00    +0.105 C 
ENDBRANCH  11   2
ENDBRANCH   7  11
BRANCH   9  14
ATOM     14  C   UNL     1      14.840   6.938  19.549  0.00  0.00    +0.105 C 
BRANCH  14  22
ATOM      1  O   UNL     1      17.076   6.696  20.498  0.00  0.00    -0.420 OA
ATOM      4  N   UNL     1      16.793   5.650  18.541  0.00  0.00    -0.112 NA
ATOM      5  N   UNL     1      18.093   5.431  18.958  0.00  0.00    -0.107 NA
ATOM     22  C   UNL     1      16.238   6.392  19.470  0.00  0.00    +0.218 A 
ATOM     24  C   UNL     1      18.213   6.060  20.104  0.00  0.00    +0.248 A 
BRANCH  24  25
ATOM     25  C   UNL     1      19.336   6.177  20.988  0.00  0.00    +0.038 A 
ATOM     26  C   UNL     1      20.549   5.572  20.658  0.00  0.00    +0.013 A 
ATOM     27  C   UNL     1      19.216   6.894  22.178  0.00  0.00    +0.013 A 
ATOM     28  C   UNL     1      21.641   5.685  21.517  0.00  0.00    +0.001 A 
ATOM     29  C   UNL     1      20.308   7.007  23.038  0.00  0.00    +0.001 A 
ATOM     30  C   UNL     1      21.521   6.402  22.707  0.00  0.00    +0.000 A 
ENDBRANCH  24  25
ENDBRANCH  14  22
ENDBRANCH   9  14
TORSDOF 6
ENDMDL
MODEL 3
REMARK VINA RESULT:      -7.2     25.919     29.253
REMARK  Name = 38030303
REMARK  10 active torsions:
REMARK  status: ('A' for Active; 'I' for Inactive)
REMARK    1  A    between atoms: N_2  and  C_11
REMARK    2  A    between atoms: N_3  and  C_23
REMARK    3  A    between atoms: C_6  and  C_10
REMARK    4  A    between atoms: C_7  and  C_11
REMARK    5  A    between atoms: C_9  and  C_14
REMARK    6  A    between atoms: C_10  and  C_15
REMARK    7  A    between atoms: C_10  and  C_16
REMARK    8  A    between atoms: C_13  and  C_19
REMARK    9  A    between atoms: C_14  and  C_22
REMARK   10  A    between atoms: C_24  and  C_25
REMARK                            x       y       z     vdW  Elec       q    Type
REMARK                         _______ _______ _______ _____ _____    ______ ____
ROOT
ATOM      6  C   UNL     1      -5.407 -10.494  10.759  0.00  0.00    +0.000 C 
ATOM      7  C   UNL     1      -4.631 -10.142   9.469  0.00  0.00    +0.029 C 
ATOM      8  C   UNL     1      -4.490 -11.209  11.761  0.00  0.00    +0.012 C 
ATOM      9  C   UNL     1      -3.230 -10.394  12.126  0.00  0.00    +0.024 C 
ATOM     12  C   UNL     1      -3.263  -9.574   9.753  0.00  0.00    -0.023 C 
ATOM     13  C   UNL     1      -2.627  -9.665  10.935  0.00  0.00    -0.073 C 
ATOM     19  C   UNL     1      -1.300  -8.985  11.136  0.00  0.00    +0.039 C 
ENDROOT
BRANCH   6  10
ATOM     10  C   UNL     1      -6.047  -9.247  11.384  0.00  0.00    -0.013 C 
ATOM     15  C   UNL     1      -7.190  -8.740  10.510  0.00  0.00    +0.007 C 
ATOM     16  C   UNL     1      -6.540  -9.553  12.794  0.00  0.00    +0.007 C 
ENDBRANCH   6  10
BRANCH   7  11
ATOM     11  C   UNL     1      -4.489 -11.356   8.544  0.00  0.00    +0.092 C 
BRANCH  11   2
ATOM      2  N   UNL     1      -4.903 -11.018   7.183  0.00  0.00    -0.299 NA
ATOM      3  N   UNL     1      -6.788 -11.011   4.991  0.00  0.00    -0.303 NA
ATOM     17  C   UNL     1      -5.168 -12.233   6.403  0.00  0.00    +0.100 C 
ATOM     18  C   UNL     1      -6.088 -10.151   7.199  0.00  0.00    +0.100 C 
ATOM     20  C   UNL     1      -5.604 -11.880   4.977  0.00  0.00    +0.099 C 
ATOM     21  C   UNL     1      -6.523  -9.797   5.773  0.00  0.00    +0.099 C 
ATOM     23  C   UNL     1      -7.200 -10.673   3.630  0.00  0.00    +0.105 C 
ENDBRANCH  11   2
ENDBRANCH   7  11
BRANCH   9  14
ATOM     14  C   UNL     1      -2.231 -11.325  12.824  0.00  0.00    +0.105 C 
BRANCH  14  22
ATOM      1  O   UNL     1      -3.451 -11.171  14.932  0.00  0.00    -0.420 OA
ATOM      4  N   UNL     1      -1.240 -10.901  15.133  0.00  0.00    -0.112 NA
ATOM      5  N   UNL     1      -1.800 -10.791  16.393  0.00  0.00    -0.107 NA
ATOM     22  C   UNL     1      -2.240 -11.123  14.314  0.00  0.00    +0.218 A 
ATOM     24  C   UNL     1      -3.091 -10.955  16.227  0.00  0.00    +0.248 A 
BRANCH  24  25
ATOM     25  C   UNL     1      -4.161 -10.943  17.182  0.00  0.00    +0.038 A 
ATOM     26  C   UNL     1      -5.327 -10.226  16.913  0.00  0.00    +0.013 A 
ATOM     27  C   UNL     1      -4.035 -11.647  18.379  0.00  0.00    +0.013 A 
ATOM     28  C   UNL     1      -6.368 -10.214  17.842  0.00  0.00    +0.001 A 
ATOM     29  C   UNL     1      -5.076 -11.635  19.308  0.00  0.00    +0.001 A 
ATOM     30  C   UNL     1      -6.242 -10.919  19.039  0.00  0.00    +0.000 A 
ENDBRANCH  24  25
ENDBRANCH  14  22
ENDBRANCH   9  14
TORSDOF 6
ENDMDL
MODEL 4
REMARK VINA RESULT:      -6.6     26.078     29.252
REMARK  Name = 38030303
REMARK  10 active torsions:
REMARK  status: ('A' for Active; 'I' for Inactive)
REMARK    1  A    between atoms: N_2  and  C_11
REMARK    2  A    between atoms: N_3  and  C_23
REMARK    3  A    between atoms: C_6  and  C_10
REMARK    4  A    between atoms: C_7  and  C_11
REMARK    5  A    between atoms: C_9  and  C_14
REMARK    6  A    between atoms: C_10  and  C_15
REMARK    7  A    between atoms: C_10  and  C_16
REMARK    8  A    between atoms: C_13  and  C_19
REMARK    9  A    between atoms: C_14  and  C_22
REMARK   10  A    between atoms: C_24  and  C_25
REMARK                            x       y       z     vdW  Elec       q    Type
REMARK                         _______ _______ _______ _____ _____    ______ ____
ROOT
ATOM      6  C   UNL     1      -3.854 -10.013  11.618  0.00  0.00    +0.000 C 
ATOM      7  C   UNL     1      -5.103 -10.880  11.340  0.00  0.00    +0.029 C 
ATOM      8  C   UNL     1      -2.940 -10.697  12.644  0.00  0.00    +0.012 C 
ATOM      9  C   UNL     1      -2.497 -12.114  12.217  0.00  0.00    +0.024 C 
ATOM     12  C   UNL     1      -4.768 -12.341  11.170  0.00  0.00    -0.023 C 
ATOM     13  C   UNL     1      -3.606 -12.907  11.544  0.00  0.00    -0.073 C 
ATOM     19  C   UNL     1      -3.341 -14.358  11.247  0.00  0.00    +0.039 C 
ENDROOT
BRANCH   6  10
ATOM     10  C   UNL     1      -3.095  -9.694  10.323  0.00  0.00    -0.013 C 
ATOM     15  C   UNL     1      -3.967  -8.867   9.384  0.00  0.00    +0.007 C 
ATOM     16  C   UNL     1      -1.793  -8.965  10.636  0.00  0.00    +0.007 C 
ENDBRANCH   6  10
BRANCH   7  11
ATOM     11  C   UNL     1      -6.154 -10.730  12.446  0.00  0.00    +0.092 C 
BRANCH  11   2
ATOM      2  N   UNL     1      -7.288  -9.938  11.975  0.00  0.00    -0.299 NA
ATOM      3  N   UNL     1      -9.744  -9.584  10.492  0.00  0.00    -0.303 NA
ATOM     17  C   UNL     1      -7.287  -9.845  10.510  0.00  0.00    +0.100 C 
ATOM     18  C   UNL     1      -8.555 -10.507  12.451  0.00  0.00    +0.100 C 
ATOM     20  C   UNL     1      -8.477  -9.016  10.015  0.00  0.00    +0.099 C 
ATOM     21  C   UNL     1      -9.745  -9.677  11.958  0.00  0.00    +0.099 C 
ATOM     23  C   UNL     1     -10.879  -8.790  10.022  0.00  0.00    +0.105 C 
ENDBRANCH  11   2
ENDBRANCH   7  11
BRANCH   9  14
ATOM     14  C   UNL     1      -1.909 -12.831  13.439  0.00  0.00    +0.105 C 
BRANCH  14  22
ATOM      1  O   UNL     1      -3.268 -12.099  15.330  0.00  0.00    -0.420 OA
ATOM      4  N   UNL     1      -1.221 -11.201  15.272  0.00  0.00    -0.112 NA
ATOM      5  N   UNL     1      -1.874 -10.703  16.384  0.00  0.00    -0.107 NA
ATOM     22  C   UNL     1      -2.072 -12.011  14.688  0.00  0.00    +0.218 A 
ATOM     24  C   UNL     1      -3.065 -11.254  16.377  0.00  0.00    +0.248 A 
BRANCH  24  25
ATOM     25  C   UNL     1      -4.164 -11.107  17.287  0.00  0.00    +0.038 A 
ATOM     26  C   UNL     1      -5.280 -10.356  16.916  0.00  0.00    +0.013 A 
ATOM     27  C   UNL     1      -4.118 -11.714  18.541  0.00  0.00    +0.013 A 
ATOM     28  C   UNL     1      -6.349 -10.213  17.800  0.00  0.00    +0.001 A 
ATOM     29  C   UNL     1      -5.187 -11.571  19.425  0.00  0.00    +0.001 A 
ATOM     30  C   UNL     1      -6.302 -10.820  19.055  0.00  0.00    +0.000 A 
ENDBRANCH  24  25
ENDBRANCH  14  22
ENDBRANCH   9  14
TORSDOF 6
ENDMDL
MODEL 5
REMARK VINA RESULT:      -6.6      4.187      9.156
REMARK  Name = 38030303
REMARK  10 active torsions:
REMARK  status: ('A' for Active; 'I' for Inactive)
REMARK    1  A    between atoms: N_2  and  C_11
REMARK    2  A    between atoms: N_3  and  C_23
REMARK    3  A    between atoms: C_6  and  C_10
REMARK    4  A    between atoms: C_7  and  C_11
REMARK    5  A    between atoms: C_9  and  C_14
REMARK    6  A    between atoms: C_10  and  C_15
REMARK    7  A    between atoms: C_10  and  C_16
REMARK    8  A    between atoms: C_13  and  C_19
REMARK    9  A    between atoms: C_14  and  C_22
REMARK   10  A    between atoms: C_24  and  C_25
REMARK                            x       y       z     vdW  Elec       q    Type
REMARK                         _______ _______ _______ _____ _____    ______ ____
ROOT
ATOM      6  C   UNL     1      17.763   8.060  21.557  0.00  0.00    +0.000 C 
ATOM      7  C   UNL     1      16.336   7.853  20.999  0.00  0.00    +0.029 C 
ATOM      8  C   UNL     1      18.565   6.753  21.485  0.00  0.00    +0.012 C 
ATOM      9  C   UNL     1      18.652   6.167  20.058  0.00  0.00    +0.024 C 
ATOM     12  C   UNL     1      16.325   7.050  19.722  0.00  0.00    -0.023 C 
ATOM     13  C   UNL     1      17.352   6.302  19.280  0.00  0.00    -0.073 C 
ATOM     19  C   UNL     1      17.266   5.610  17.946  0.00  0.00    +0.039 C 
ENDROOT
BRANCH   6  10
ATOM     10  C   UNL     1      18.490   9.198  20.827  0.00  0.00    -0.013 C 
ATOM     15  C   UNL     1      17.664  10.479  20.883  0.00  0.00    +0.007 C 
ATOM     16  C   UNL     1      19.873   9.419  21.430  0.00  0.00    +0.007 C 
ENDBRANCH   6  10
BRANCH   7  11
ATOM     11  C   UNL     1      15.419   7.179  22.025  0.00  0.00    +0.092 C 
BRANCH  11   2
ATOM      2  N   UNL     1      14.294   8.050  22.361  0.00  0.00    -0.299 NA
ATOM      3  N   UNL     1      12.321  10.066  21.731  0.00  0.00    -0.303 NA
ATOM     17  C   UNL     1      14.668   9.462  22.218  0.00  0.00    +0.100 C 
ATOM     18  C   UNL     1      13.128   7.740  21.523  0.00  0.00    +0.100 C 
ATOM     20  C   UNL     1      13.487  10.376  22.567  0.00  0.00    +0.099 C 
ATOM     21  C   UNL     1      11.948   8.653  21.873  0.00  0.00    +0.099 C 
ATOM     23  C   UNL     1      11.195  10.936  22.068  0.00  0.00    +0.105 C 
ENDBRANCH  11   2
ENDBRANCH   7  11
BRANCH   9  14
ATOM     14  C   UNL     1      19.142   4.717  20.154  0.00  0.00    +0.105 C 
BRANCH  14  22
ATOM      1  O   UNL     1      21.074   3.502  21.018  0.00  0.00    -0.420 OA
ATOM      4  N   UNL     1      21.544   5.557  20.269  0.00  0.00    -0.112 NA
ATOM      5  N   UNL     1      22.720   4.989  20.725  0.00  0.00    -0.107 NA
ATOM     22  C   UNL     1      20.612   4.654  20.459  0.00  0.00    +0.218 A 
ATOM     24  C   UNL     1      22.398   3.791  21.153  0.00  0.00    +0.248 A 
BRANCH  24  25
ATOM     25  C   UNL     1      23.210   2.758  21.728  0.00  0.00    +0.038 A 
ATOM     26  C   UNL     1      23.947   1.911  20.901  0.00  0.00    +0.013 A 
ATOM     27  C   UNL     1      23.263   2.601  23.112  0.00  0.00    +0.013 A 
ATOM     28  C   UNL     1      24.738   0.906  21.459  0.00  0.00    +0.001 A 
ATOM     29  C   UNL     1      24.053   1.597  23.671  0.00  0.00    +0.001 A 
ATOM     30  C   UNL     1      24.791   0.749  22.845  0.00  0.00    +0.000 A 
ENDBRANCH  24  25
ENDBRANCH  14  22
ENDBRANCH   9  14
TORSDOF 6
ENDMDL
MODEL 6
REMARK VINA RESULT:      -6.5     16.750     20.986
REMARK  Name = 38030303
REMARK  10 active torsions:
REMARK  status: ('A' for Active; 'I' for Inactive)
REMARK    1  A    between atoms: N_2  and  C_11
REMARK    2  A    between atoms: N_3  and  C_23
REMARK    3  A    between atoms: C_6  and  C_10
REMARK    4  A    between atoms: C_7  and  C_11
REMARK    5  A    between atoms: C_9  and  C_14
REMARK    6  A    between atoms: C_10  and  C_15
REMARK    7  A    between atoms: C_10  and  C_16
REMARK    8  A    between atoms: C_13  and  C_19
REMARK    9  A    between atoms: C_14  and  C_22
REMARK   10  A    between atoms: C_24  and  C_25
REMARK                            x       y       z     vdW  Elec       q    Type
REMARK                         _______ _______ _______ _____ _____    ______ ____
ROOT
ATOM      6  C   UNL     1      11.512   5.332  -1.493  0.00  0.00    +0.000 C 
ATOM      7  C   UNL     1      12.356   4.093  -1.869  0.00  0.00    +0.029 C 
ATOM      8  C   UNL     1      10.783   5.104  -0.161  0.00  0.00    +0.012 C 
ATOM      9  C   UNL     1      11.734   4.757   1.005  0.00  0.00    +0.024 C 
ATOM     12  C   UNL     1      13.122   3.536  -0.695  0.00  0.00    -0.023 C 
ATOM     13  C   UNL     1      12.867   3.830   0.593  0.00  0.00    -0.073 C 
ATOM     19  C   UNL     1      13.750   3.286   1.683  0.00  0.00    +0.039 C 
ENDROOT
BRANCH   6  10
ATOM     10  C   UNL     1      12.373   6.602  -1.443  0.00  0.00    -0.013 C 
ATOM     15  C   UNL     1      13.502   6.520  -2.465  0.00  0.00    +0.007 C 
ATOM     16  C   UNL     1      11.513   7.837  -1.686  0.00  0.00    +0.007 C 
ENDBRANCH   6  10
BRANCH   7  11
ATOM     11  C   UNL     1      11.493   2.983  -2.479  0.00  0.00    +0.092 C 
BRANCH  11   2
ATOM      2  N   UNL     1      11.136   3.308  -3.859  0.00  0.00    -0.299 NA
ATOM      3  N   UNL     1      10.629   2.616  -6.619  0.00  0.00    -0.303 NA
ATOM     17  C   UNL     1      12.234   2.975  -4.774  0.00  0.00    +0.100 C 
ATOM     18  C   UNL     1       9.907   2.610  -4.256  0.00  0.00    +0.100 C 
ATOM     20  C   UNL     1      11.859   3.313  -6.221  0.00  0.00    +0.099 C 
ATOM     21  C   UNL     1       9.531   2.949  -5.703  0.00  0.00    +0.099 C 
ATOM     23  C   UNL     1      10.271   2.942  -7.999  0.00  0.00    +0.105 C 
ENDBRANCH  11   2
ENDBRANCH   7  11
BRANCH   9  14
ATOM     14  C   UNL     1      10.902   4.202   2.167  0.00  0.00    +0.105 C 
BRANCH  14  22
ATOM      1  O   UNL     1      10.364   4.648   4.506  0.00  0.00    -0.420 OA
ATOM      4  N   UNL     1      11.662   6.201   3.552  0.00  0.00    -0.112 NA
ATOM      5  N   UNL     1      11.439   6.578   4.864  0.00  0.00    -0.107 NA
ATOM     22  C   UNL     1      11.016   5.070   3.389  0.00  0.00    +0.218 A 
ATOM     24  C   UNL     1      10.677   5.643   5.381  0.00  0.00    +0.248 A 
BRANCH  24  25
ATOM     25  C   UNL     1      10.135   5.509   6.702  0.00  0.00    +0.038 A 
ATOM     26  C   UNL     1      10.096   4.257   7.316  0.00  0.00    +0.013 A 
ATOM     27  C   UNL     1       9.647   6.630   7.373  0.00  0.00    +0.013 A 
ATOM     28  C   UNL     1       9.569   4.127   8.601  0.00  0.00    +0.001 A 
ATOM     29  C   UNL     1       9.119   6.500   8.657  0.00  0.00    +0.001 A 
ATOM     30  C   UNL     1       9.081   5.249   9.272  0.00  0.00    +0.000 A 
ENDBRANCH  24  25
ENDBRANCH  14  22
ENDBRANCH   9  14
TORSDOF 6
ENDMDL
MODEL 7
REMARK VINA RESULT:      -6.3     25.764     29.221
REMARK  Name = 38030303
REMARK  10 active torsions:
REMARK  status: ('A' for Active; 'I' for Inactive)
REMARK    1  A    between atoms: N_2  and  C_11
REMARK    2  A    between atoms: N_3  and  C_23
REMARK    3  A    between atoms: C_6  and  C_10
REMARK    4  A    between atoms: C_7  and  C_11
REMARK    5  A    between atoms: C_9  and  C_14
REMARK    6  A    between atoms: C_10  and  C_15
REMARK    7  A    between atoms: C_10  and  C_16
REMARK    8  A    between atoms: C_13  and  C_19
REMARK    9  A    between atoms: C_14  and  C_22
REMARK   10  A    between atoms: C_24  and  C_25
REMARK                            x       y       z     vdW  Elec       q    Type
REMARK                         _______ _______ _______ _____ _____    ______ ____
ROOT
ATOM      6  C   UNL     1     -13.540   8.753  20.607  0.00  0.00    +0.000 C 
ATOM      7  C   UNL     1     -12.336   7.999  19.999  0.00  0.00    +0.029 C 
ATOM      8  C   UNL     1     -14.684   7.779  20.923  0.00  0.00    +0.012 C 
ATOM      9  C   UNL     1     -14.265   6.632  21.870  0.00  0.00    +0.024 C 
ATOM     12  C   UNL     1     -12.030   6.714  20.728  0.00  0.00    -0.023 C 
ATOM     13  C   UNL     1     -12.872   6.096  21.575  0.00  0.00    -0.073 C 
ATOM     19  C   UNL     1     -12.431   4.864  22.318  0.00  0.00    +0.039 C 
ENDROOT
BRANCH   6  10
ATOM     10  C   UNL     1     -13.130   9.551  21.853  0.00  0.00    -0.013 C 
ATOM     15  C   UNL     1     -12.118  10.630  21.485  0.00  0.00    +0.007 C 
ATOM     16  C   UNL     1     -14.357  10.163  22.520  0.00  0.00    +0.007 C 
ENDBRANCH   6  10
BRANCH   7  11
ATOM     11  C   UNL     1     -12.550   7.695  18.512  0.00  0.00    +0.092 C 
BRANCH  11   2
ATOM      2  N   UNL     1     -11.772   8.612  17.681  0.00  0.00    -0.299 NA
ATOM      3  N   UNL     1     -10.586  11.184  17.100  0.00  0.00    -0.303 NA
ATOM     17  C   UNL     1     -12.594   9.750  17.252  0.00  0.00    +0.100 C 
ATOM     18  C   UNL     1     -10.581   9.083  18.400  0.00  0.00    +0.100 C 
ATOM     20  C   UNL     1     -11.778  10.714  16.383  0.00  0.00    +0.099 C 
ATOM     21  C   UNL     1      -9.765  10.046  17.530  0.00  0.00    +0.099 C 
ATOM     23  C   UNL     1      -9.808  12.100  16.268  0.00  0.00    +0.105 C 
ENDBRANCH  11   2
ENDBRANCH   7  11
BRANCH   9  14
ATOM     14  C   UNL     1     -15.344   5.543  21.826  0.00  0.00    +0.105 C 
BRANCH  14  22
ATOM      1  O   UNL     1     -15.788   4.177  23.800  0.00  0.00    -0.420 OA
ATOM      4  N   UNL     1     -16.758   6.193  23.844  0.00  0.00    -0.112 NA
ATOM      5  N   UNL     1     -17.091   5.533  25.013  0.00  0.00    -0.107 NA
ATOM     22  C   UNL     1     -15.997   5.364  23.168  0.00  0.00    +0.218 A 
ATOM     24  C   UNL     1     -16.504   4.361  24.943  0.00  0.00    +0.248 A 
BRANCH  24  25
ATOM     25  C   UNL     1     -16.499   3.267  25.870  0.00  0.00    +0.038 A 
ATOM     26  C   UNL     1     -16.895   1.996  25.450  0.00  0.00    +0.013 A 
ATOM     27  C   UNL     1     -16.098   3.471  27.190  0.00  0.00    +0.013 A 
ATOM     28  C   UNL     1     -16.890   0.931  26.350  0.00  0.00    +0.001 A 
ATOM     29  C   UNL     1     -16.093   2.406  28.090  0.00  0.00    +0.001 A 
ATOM     30  C   UNL     1     -16.489   1.136  27.671  0.00  0.00    +0.000 A 
ENDBRANCH  24  25
ENDBRANCH  14  22
ENDBRANCH   9  14
TORSDOF 6
ENDMDL
MODEL 8
REMARK VINA RESULT:      -6.2     26.727     29.489
REMARK  Name = 38030303
REMARK  10 active torsions:
REMARK  status: ('A' for Active; 'I' for Inactive)
REMARK    1  A    between atoms: N_2  and  C_11
REMARK    2  A    between atoms: N_3  and  C_23
REMARK    3  A    between atoms: C_6  and  C_10
REMARK    4  A    between atoms: C_7  and  C_11
REMARK    5  A    between atoms: C_9  and  C_14
REMARK    6  A    between atoms: C_10  and  C_15
REMARK    7  A    between atoms: C_10  and  C_16
REMARK    8  A    between atoms: C_13  and  C_19
REMARK    9  A    between atoms: C_14  and  C_22
REMARK   10  A    between atoms: C_24  and  C_25
REMARK                            x       y       z     vdW  Elec       q    Type
REMARK                         _______ _______ _______ _____ _____    ______ ____
ROOT
ATOM      6  C   UNL     1      -5.112 -11.773  12.327  0.00  0.00    +0.000 C 
ATOM      7  C   UNL     1      -4.265 -11.191  13.481  0.00  0.00    +0.029 C 
ATOM      8  C   UNL     1      -5.177 -10.785  11.154  0.00  0.00    +0.012 C 
ATOM      9  C   UNL     1      -3.785 -10.382  10.617  0.00  0.00    +0.024 C 
ATOM     12  C   UNL     1      -2.994 -10.540  12.995  0.00  0.00    -0.023 C 
ATOM     13  C   UNL     1      -2.757 -10.183  11.720  0.00  0.00    -0.073 C 
ATOM     19  C   UNL     1      -1.418  -9.619  11.328  0.00  0.00    +0.039 C 
ENDROOT
BRANCH   6  10
ATOM     10  C   UNL     1      -4.578 -13.139  11.873  0.00  0.00    -0.013 C 
ATOM     15  C   UNL     1      -4.345 -14.045  13.077  0.00  0.00    +0.007 C 
ATOM     16  C   UNL     1      -5.544 -13.786  10.887  0.00  0.00    +0.007 C 
ENDBRANCH   6  10
BRANCH   7  11
ATOM     11  C   UNL     1      -5.061 -10.182  14.316  0.00  0.00    +0.092 C 
BRANCH  11   2
ATOM      2  N   UNL     1      -5.407 -10.748  15.618  0.00  0.00    -0.299 NA
ATOM      3  N   UNL     1      -5.345 -10.787  18.508  0.00  0.00    -0.303 NA
ATOM     17  C   UNL     1      -4.198 -11.150  16.348  0.00  0.00    +0.100 C 
ATOM     18  C   UNL     1      -6.191  -9.793  16.410  0.00  0.00    +0.100 C 
ATOM     20  C   UNL     1      -4.559 -11.742  17.715  0.00  0.00    +0.099 C 
ATOM     21  C   UNL     1      -6.553 -10.385  17.777  0.00  0.00    +0.099 C 
ATOM     23  C   UNL     1      -5.692 -11.355  19.810  0.00  0.00    +0.105 C 
ENDBRANCH  11   2
ENDBRANCH   7  11
BRANCH   9  14
ATOM     14  C   UNL     1      -3.945  -9.148   9.721  0.00  0.00    +0.105 C 
BRANCH  14  22
ATOM      1  O   UNL     1      -4.538 -10.206   7.603  0.00  0.00    -0.420 OA
ATOM      4  N   UNL     1      -6.159  -8.937   8.478  0.00  0.00    -0.112 NA
ATOM      5  N   UNL     1      -6.628  -9.469   7.291  0.00  0.00    -0.107 NA
ATOM     22  C   UNL     1      -4.937  -9.394   8.619  0.00  0.00    +0.218 A 
ATOM     24  C   UNL     1      -5.648 -10.202   6.815  0.00  0.00    +0.248 A 
BRANCH  24  25
ATOM     25  C   UNL     1      -5.570 -10.987   5.617  0.00  0.00    +0.038 A 
ATOM     26  C   UNL     1      -4.475 -11.823   5.403  0.00  0.00    +0.013 A 
ATOM     27  C   UNL     1      -6.588 -10.913   4.667  0.00  0.00    +0.013 A 
ATOM     28  C   UNL     1      -4.398 -12.586   4.238  0.00  0.00    +0.001 A 
ATOM     29  C   UNL     1      -6.511 -11.676   3.502  0.00  0.00    +0.001 A 
ATOM     30  C   UNL     1      -5.417 -12.513   3.287  0.00  0.00    +0.000 A 
ENDBRANCH  24  25
ENDBRANCH  14  22
ENDBRANCH   9  14
TORSDOF 6
ENDMDL
MODEL 9
REMARK VINA RESULT:      -6.1     24.942     27.449
REMARK  Name = 38030303
REMARK  10 active torsions:
REMARK  status: ('A' for Active; 'I' for Inactive)
REMARK    1  A    between atoms: N_2  and  C_11
REMARK    2  A    between atoms: N_3  and  C_23
REMARK    3  A    between atoms: C_6  and  C_10
REMARK    4  A    between atoms: C_7  and  C_11
REMARK    5  A    between atoms: C_9  and  C_14
REMARK    6  A    between atoms: C_10  and  C_15
REMARK    7  A    between atoms: C_10  and  C_16
REMARK    8  A    between atoms: C_13  and  C_19
REMARK    9  A    between atoms: C_14  and  C_22
REMARK   10  A    between atoms: C_24  and  C_25
REMARK                            x       y       z     vdW  Elec       q    Type
REMARK                         _______ _______ _______ _____ _____    ______ ____
ROOT
ATOM      6  C   UNL     1     -12.064  10.341  17.934  0.00  0.00    +0.000 C 
ATOM      7  C   UNL     1     -12.087   8.883  17.423  0.00  0.00    +0.029 C 
ATOM      8  C   UNL     1     -12.853  10.466  19.245  0.00  0.00    +0.012 C 
ATOM      9  C   UNL     1     -12.342   9.524  20.358  0.00  0.00    +0.024 C 
ATOM     12  C   UNL     1     -11.851   7.880  18.525  0.00  0.00    -0.023 C 
ATOM     13  C   UNL     1     -11.948   8.149  19.839  0.00  0.00    -0.073 C 
ATOM     19  C   UNL     1     -11.605   7.096  20.856  0.00  0.00    +0.039 C 
ENDROOT
BRANCH   6  10
ATOM     10  C   UNL     1     -10.626  10.853  18.101  0.00  0.00    -0.013 C 
ATOM     15  C   UNL     1      -9.750  10.365  16.952  0.00  0.00    +0.007 C 
ATOM     16  C   UNL     1     -10.610  12.376  18.185  0.00  0.00    +0.007 C 
ENDBRANCH   6  10
BRANCH   7  11
ATOM     11  C   UNL     1     -13.405   8.552  16.715  0.00  0.00    +0.092 C 
BRANCH  11   2
ATOM      2  N   UNL     1     -13.260   8.686  15.267  0.00  0.00    -0.299 NA
ATOM      3  N   UNL     1     -12.099   9.857  12.892  0.00  0.00    -0.303 NA
ATOM     17  C   UNL     1     -13.621  10.041  14.831  0.00  0.00    +0.100 C 
ATOM     18  C   UNL     1     -11.891   8.361  14.847  0.00  0.00    +0.100 C 
ATOM     20  C   UNL     1     -13.467  10.184  13.313  0.00  0.00    +0.099 C 
ATOM     21  C   UNL     1     -11.737   8.503  13.329  0.00  0.00    +0.099 C 
ATOM     23  C   UNL     1     -11.955   9.991  11.444  0.00  0.00    +0.105 C 
ENDBRANCH  11   2
ENDBRANCH   7  11
BRANCH   9  14
ATOM     14  C   UNL     1     -13.398   9.462  21.468  0.00  0.00    +0.105 C 
BRANCH  14  22
ATOM      1  O   UNL     1     -12.720  10.006  23.749  0.00  0.00    -0.420 OA
ATOM      4  N   UNL     1     -13.226  11.787  22.495  0.00  0.00    -0.112 NA
ATOM      5  N   UNL     1     -12.862  12.238  23.751  0.00  0.00    -0.107 NA
ATOM     22  C   UNL     1     -13.128  10.480  22.541  0.00  0.00    +0.218 A 
ATOM     24  C   UNL     1     -12.576  11.164  24.448  0.00  0.00    +0.248 A 
BRANCH  24  25
ATOM     25  C   UNL     1     -12.141  11.027  25.808  0.00  0.00    +0.038 A 
ATOM     26  C   UNL     1     -10.885  10.487  26.087  0.00  0.00    +0.013 A 
ATOM     27  C   UNL     1     -12.973  11.432  26.851  0.00  0.00    +0.013 A 
ATOM     28  C   UNL     1     -10.462  10.353  27.409  0.00  0.00    +0.001 A 
ATOM     29  C   UNL     1     -12.550  11.298  28.173  0.00  0.00    +0.001 A 
ATOM     30  C   UNL     1     -11.294  10.759  28.453  0.00  0.00    +0.000 A 
ENDBRANCH  24  25
ENDBRANCH  14  22
ENDBRANCH   9  14
TORSDOF 6
ENDMDL
MODEL 10
REMARK VINA RESULT:      -6.1     17.064     21.130
REMARK  Name = 38030303
REMARK  10 active torsions:
REMARK  status: ('A' for Active; 'I' for Inactive)
REMARK    1  A    between atoms: N_2  and  C_11
REMARK    2  A    between atoms: N_3  and  C_23
REMARK    3  A    between atoms: C_6  and  C_10
REMARK    4  A    between atoms: C_7  and  C_11
REMARK    5  A    between atoms: C_9  and  C_14
REMARK    6  A    between atoms: C_10  and  C_15
REMARK    7  A    between atoms: C_10  and  C_16
REMARK    8  A    between atoms: C_13  and  C_19
REMARK    9  A    between atoms: C_14  and  C_22
REMARK   10  A    between atoms: C_24  and  C_25
REMARK                            x       y       z     vdW  Elec       q    Type
REMARK                         _______ _______ _______ _____ _____    ______ ____
ROOT
ATOM      6  C   UNL     1      10.897   4.748  -1.030  0.00  0.00    +0.000 C 
ATOM      7  C   UNL     1      11.996   3.807  -1.574  0.00  0.00    +0.029 C 
ATOM      8  C   UNL     1      10.536   4.378   0.415  0.00  0.00    +0.012 C 
ATOM      9  C   UNL     1      11.749   4.398   1.372  0.00  0.00    +0.024 C 
ATOM     12  C   UNL     1      13.102   3.571  -0.576  0.00  0.00    -0.023 C 
ATOM     13  C   UNL     1      13.015   3.839   0.740  0.00  0.00    -0.073 C 
ATOM     19  C   UNL     1      14.210   3.647   1.633  0.00  0.00    +0.039 C 
ENDROOT
BRANCH   6  10
ATOM     10  C   UNL     1      11.317   6.221  -1.137  0.00  0.00    -0.013 C 
ATOM     15  C   UNL     1      11.695   6.563  -2.575  0.00  0.00    +0.007 C 
ATOM     16  C   UNL     1      10.199   7.130  -0.640  0.00  0.00    +0.007 C 
ENDBRANCH   6  10
BRANCH   7  11
ATOM     11  C   UNL     1      11.420   2.458  -2.015  0.00  0.00    +0.092 C 
BRANCH  11   2
ATOM      2  N   UNL     1      11.271   2.411  -3.469  0.00  0.00    -0.299 NA
ATOM      3  N   UNL     1      10.800   3.624  -6.050  0.00  0.00    -0.303 NA
ATOM     17  C   UNL     1       9.929   2.851  -3.870  0.00  0.00    +0.100 C 
ATOM     18  C   UNL     1      12.297   3.232  -4.124  0.00  0.00    +0.100 C 
ATOM     20  C   UNL     1       9.774   2.804  -5.394  0.00  0.00    +0.099 C 
ATOM     21  C   UNL     1      12.142   3.184  -5.648  0.00  0.00    +0.099 C 
ATOM     23  C   UNL     1      10.652   3.576  -7.504  0.00  0.00    +0.105 C 
ENDBRANCH  11   2
ENDBRANCH   7  11
BRANCH   9  14
ATOM     14  C   UNL     1      11.361   3.676   2.668  0.00  0.00    +0.105 C 
BRANCH  14  22
ATOM      1  O   UNL     1      10.058   5.706   3.039  0.00  0.00    -0.420 OA
ATOM      4  N   UNL     1      10.323   4.442   4.865  0.00  0.00    -0.112 NA
ATOM      5  N   UNL     1       9.573   5.549   5.217  0.00  0.00    -0.107 NA
ATOM     22  C   UNL     1      10.583   4.576   3.586  0.00  0.00    +0.218 A 
ATOM     24  C   UNL     1       9.444   6.258   4.121  0.00  0.00    +0.248 A 
BRANCH  24  25
ATOM     25  C   UNL     1       8.766   7.502   3.891  0.00  0.00    +0.038 A 
ATOM     26  C   UNL     1       8.628   7.990   2.591  0.00  0.00    +0.013 A 
ATOM     27  C   UNL     1       8.246   8.222   4.966  0.00  0.00    +0.013 A 
ATOM     28  C   UNL     1       7.969   9.199   2.367  0.00  0.00    +0.001 A 
ATOM     29  C   UNL     1       7.588   9.431   4.741  0.00  0.00    +0.001 A 
ATOM     30  C   UNL     1       7.449   9.919   3.443  0.00  0.00    +0.000 A 
ENDBRANCH  24  25
ENDBRANCH  14  22
ENDBRANCH   9  14
TORSDOF 6
ENDMDL
