MODEL 1
REMARK VINA RESULT:      -6.8      0.000      0.000
REMARK  Name = 51137850
REMARK  7 active torsions:
REMARK  status: ('A' for Active; 'I' for Inactive)
REMARK    1  A    between atoms: O_3  and  C_20
REMARK    2  A    between atoms: O_3  and  C_27
REMARK    3  A    between atoms: O_4  and  C_22
REMARK    4  A    between atoms: O_4  and  C_28
REMARK    5  A    between atoms: C_9  and  C_13
REMARK    6  A    between atoms: C_14  and  C_15
REMARK    7  A    between atoms: C_16  and  C_19
REMARK                            x       y       z     vdW  Elec       q    Type
REMARK                         _______ _______ _______ _____ _____    ______ ____
ROOT
ATOM      2  O   UNL     1      14.227  10.444  23.025  0.00  0.00    -0.270 OA
ATOM      5  N   UNL     1      12.684   9.216  21.798  0.00  0.00    -0.297 N 
ATOM      9  C   UNL     1      11.639   7.812  20.186  0.00  0.00    +0.095 C 
ATOM     10  C   UNL     1      12.575   6.974  21.071  0.00  0.00    +0.033 C 
ATOM     11  C   UNL     1      11.441   9.073  21.038  0.00  0.00    +0.121 C 
ATOM     12  C   UNL     1      13.488   8.007  21.718  0.00  0.00    +0.109 C 
ATOM     14  C   UNL     1      13.140  10.346  22.459  0.00  0.00    +0.247 C 
ENDROOT
BRANCH  14  15
ATOM     15  C   UNL     1      12.262  11.526  22.474  0.00  0.00    +0.041 A 
ATOM     17  C   UNL     1      11.494  11.811  23.604  0.00  0.00    +0.062 A 
ATOM     18  C   UNL     1      12.196  12.360  21.358  0.00  0.00    +0.017 A 
ATOM     20  C   UNL     1      10.661  12.929  23.617  0.00  0.00    +0.162 A 
ATOM     21  C   UNL     1      11.363  13.479  21.371  0.00  0.00    +0.050 A 
ATOM     22  C   UNL     1      10.595  13.764  22.501  0.00  0.00    +0.162 A 
BRANCH  20   3
ATOM      3  O   UNL     1       9.917  13.198  24.727  0.00  0.00    -0.491 OA
ATOM     27  C   UNL     1      10.593  13.801  25.828  0.00  0.00    +0.277 C 
ENDBRANCH  20   3
BRANCH  22   4
ATOM      4  O   UNL     1       9.788  14.860  22.502  0.00  0.00    -0.491 OA
ATOM     28  C   UNL     1       8.743  14.896  21.532  0.00  0.00    +0.277 C 
ENDBRANCH  22   4
ENDBRANCH  14  15
BRANCH   9  13
ATOM      1  O   UNL     1      12.854   9.194  18.561  0.00  0.00    -0.420 OA
ATOM      6  N   UNL     1      12.195   7.212  17.756  0.00  0.00    -0.112 NA
ATOM      7  N   UNL     1      12.860   7.883  16.748  0.00  0.00    -0.107 NA
ATOM     13  C   UNL     1      12.215   8.015  18.796  0.00  0.00    +0.222 A 
ATOM     16  C   UNL     1      13.227   9.034  17.261  0.00  0.00    +0.248 A 
BRANCH  16  19
ATOM      8  N   UNL     1      15.350  12.257  15.532  0.00  0.00    -0.263 NA
ATOM     19  C   UNL     1      13.947  10.128  16.675  0.00  0.00    +0.041 A 
ATOM     23  C   UNL     1      14.021  11.348  17.336  0.00  0.00    +0.033 A 
ATOM     24  C   UNL     1      14.573   9.969  15.444  0.00  0.00    +0.033 A 
ATOM     25  C   UNL     1      14.728  12.373  16.727  0.00  0.00    +0.111 A 
ATOM     26  C   UNL     1      15.256  11.055  14.920  0.00  0.00    +0.111 A 
ENDBRANCH  16  19
ENDBRANCH   9  13
TORSDOF 5
ENDMDL
MODEL 2
REMARK VINA RESULT:      -6.4      3.333      4.462
REMARK  Name = 51137850
REMARK  7 active torsions:
REMARK  status: ('A' for Active; 'I' for Inactive)
REMARK    1  A    between atoms: O_3  and  C_20
REMARK    2  A    between atoms: O_3  and  C_27
REMARK    3  A    between atoms: O_4  and  C_22
REMARK    4  A    between atoms: O_4  and  C_28
REMARK    5  A    between atoms: C_9  and  C_13
REMARK    6  A    between atoms: C_14  and  C_15
REMARK    7  A    between atoms: C_16  and  C_19
REMARK                            x       y       z     vdW  Elec       q    Type
REMARK                         _______ _______ _______ _____ _____    ______ ____
ROOT
ATOM      2  O   UNL     1      10.199   9.431  22.340  0.00  0.00    -0.270 OA
ATOM      5  N   UNL     1      11.674   9.572  20.551  0.00  0.00    -0.297 N 
ATOM      9  C   UNL     1      13.224   9.067  18.818  0.00  0.00    +0.095 C 
ATOM     10  C   UNL     1      11.854   8.457  18.479  0.00  0.00    +0.033 C 
ATOM     11  C   UNL     1      12.853  10.116  19.874  0.00  0.00    +0.121 C 
ATOM     12  C   UNL     1      11.118   8.449  19.813  0.00  0.00    +0.109 C 
ATOM     14  C   UNL     1      11.150   9.965  21.773  0.00  0.00    +0.247 C 
ENDROOT
BRANCH  14  15
ATOM     15  C   UNL     1      11.789  11.103  22.452  0.00  0.00    +0.041 A 
ATOM     17  C   UNL     1      11.203  12.369  22.395  0.00  0.00    +0.062 A 
ATOM     18  C   UNL     1      12.981  10.918  23.153  0.00  0.00    +0.017 A 
ATOM     20  C   UNL     1      11.809  13.447  23.039  0.00  0.00    +0.162 A 
ATOM     21  C   UNL     1      13.587  11.996  23.797  0.00  0.00    +0.050 A 
ATOM     22  C   UNL     1      13.001  13.261  23.740  0.00  0.00    +0.162 A 
BRANCH  20   3
ATOM      3  O   UNL     1      11.227  14.678  22.977  0.00  0.00    -0.491 OA
ATOM     27  C   UNL     1      10.124  14.916  23.847  0.00  0.00    +0.277 C 
ENDBRANCH  20   3
BRANCH  22   4
ATOM      4  O   UNL     1      13.602  14.306  24.374  0.00  0.00    -0.491 OA
ATOM     28  C   UNL     1      14.575  13.988  25.367  0.00  0.00    +0.277 C 
ENDBRANCH  22   4
ENDBRANCH  14  15
BRANCH   9  13
ATOM      1  O   UNL     1      15.412   8.438  19.735  0.00  0.00    -0.420 OA
ATOM      6  N   UNL     1      14.116   6.694  19.200  0.00  0.00    -0.112 NA
ATOM      7  N   UNL     1      15.308   6.204  19.700  0.00  0.00    -0.107 NA
ATOM     13  C   UNL     1      14.222   8.003  19.239  0.00  0.00    +0.222 A 
ATOM     16  C   UNL     1      16.034   7.256  20.000  0.00  0.00    +0.248 A 
BRANCH  16  19
ATOM      8  N   UNL     1      19.928   7.529  21.627  0.00  0.00    -0.263 NA
ATOM     19  C   UNL     1      17.354   7.349  20.551  0.00  0.00    +0.041 A 
ATOM     23  C   UNL     1      17.701   8.430  21.354  0.00  0.00    +0.033 A 
ATOM     24  C   UNL     1      18.292   6.358  20.285  0.00  0.00    +0.033 A 
ATOM     25  C   UNL     1      18.989   8.472  21.863  0.00  0.00    +0.111 A 
ATOM     26  C   UNL     1      19.554   6.494  20.841  0.00  0.00    +0.111 A 
ENDBRANCH  16  19
ENDBRANCH   9  13
TORSDOF 5
ENDMDL
MODEL 3
REMARK VINA RESULT:      -6.4      3.608      4.937
REMARK  Name = 51137850
REMARK  7 active torsions:
REMARK  status: ('A' for Active; 'I' for Inactive)
REMARK    1  A    between atoms: O_3  and  C_20
REMARK    2  A    between atoms: O_3  and  C_27
REMARK    3  A    between atoms: O_4  and  C_22
REMARK    4  A    between atoms: O_4  and  C_28
REMARK    5  A    between atoms: C_9  and  C_13
REMARK    6  A    between atoms: C_14  and  C_15
REMARK    7  A    between atoms: C_16  and  C_19
REMARK                            x       y       z     vdW  Elec       q    Type
REMARK                         _______ _______ _______ _____ _____    ______ ____
ROOT
ATOM      2  O   UNL     1      11.208   7.969  22.324  0.00  0.00    -0.270 OA
ATOM      5  N   UNL     1      12.501   8.295  20.423  0.00  0.00    -0.297 N 
ATOM      9  C   UNL     1      14.066   8.040  18.648  0.00  0.00    +0.095 C 
ATOM     10  C   UNL     1      12.935   7.010  18.492  0.00  0.00    +0.033 C 
ATOM     11  C   UNL     1      13.432   9.066  19.596  0.00  0.00    +0.121 C 
ATOM     12  C   UNL     1      12.288   6.967  19.870  0.00  0.00    +0.109 C 
ATOM     14  C   UNL     1      11.928   8.679  21.625  0.00  0.00    +0.247 C 
ENDROOT
BRANCH  14  15
ATOM     15  C   UNL     1      12.214  10.037  22.112  0.00  0.00    +0.041 A 
ATOM     17  C   UNL     1      13.423  10.308  22.755  0.00  0.00    +0.062 A 
ATOM     18  C   UNL     1      11.278  11.055  21.930  0.00  0.00    +0.017 A 
ATOM     20  C   UNL     1      13.694  11.596  23.216  0.00  0.00    +0.162 A 
ATOM     21  C   UNL     1      11.549  12.343  22.392  0.00  0.00    +0.050 A 
ATOM     22  C   UNL     1      12.757  12.614  23.035  0.00  0.00    +0.162 A 
BRANCH  20   3
ATOM      3  O   UNL     1      14.878  11.848  23.842  0.00  0.00    -0.491 OA
ATOM     27  C   UNL     1      16.045  11.892  23.024  0.00  0.00    +0.277 C 
ENDBRANCH  20   3
BRANCH  22   4
ATOM      4  O   UNL     1      13.011  13.876  23.479  0.00  0.00    -0.491 OA
ATOM     28  C   UNL     1      12.917  14.930  22.524  0.00  0.00    +0.277 C 
ENDBRANCH  22   4
ENDBRANCH  14  15
BRANCH   9  13
ATOM      1  O   UNL     1      16.085   8.067  20.044  0.00  0.00    -0.420 OA
ATOM      6  N   UNL     1      15.894   6.247  18.757  0.00  0.00    -0.112 NA
ATOM      7  N   UNL     1      17.064   6.135  19.484  0.00  0.00    -0.107 NA
ATOM     13  C   UNL     1      15.356   7.390  19.115  0.00  0.00    +0.222 A 
ATOM     16  C   UNL     1      17.135   7.219  20.222  0.00  0.00    +0.248 A 
BRANCH  16  19
ATOM      8  N   UNL     1      20.065   8.454  23.010  0.00  0.00    -0.263 NA
ATOM     19  C   UNL     1      18.128   7.639  21.167  0.00  0.00    +0.041 A 
ATOM     23  C   UNL     1      18.225   8.976  21.531  0.00  0.00    +0.033 A 
ATOM     24  C   UNL     1      18.999   6.707  21.722  0.00  0.00    +0.033 A 
ATOM     25  C   UNL     1      19.201   9.330  22.448  0.00  0.00    +0.111 A 
ATOM     26  C   UNL     1      19.941   7.162  22.631  0.00  0.00    +0.111 A 
ENDBRANCH  16  19
ENDBRANCH   9  13
TORSDOF 5
ENDMDL
MODEL 4
REMARK VINA RESULT:      -6.3     27.930     29.790
REMARK  Name = 51137850
REMARK  7 active torsions:
REMARK  status: ('A' for Active; 'I' for Inactive)
REMARK    1  A    between atoms: O_3  and  C_20
REMARK    2  A    between atoms: O_3  and  C_27
REMARK    3  A    between atoms: O_4  and  C_22
REMARK    4  A    between atoms: O_4  and  C_28
REMARK    5  A    between atoms: C_9  and  C_13
REMARK    6  A    between atoms: C_14  and  C_15
REMARK    7  A    between atoms: C_16  and  C_19
REMARK                            x       y       z     vdW  Elec       q    Type
REMARK                         _______ _______ _______ _____ _____    ______ ____
ROOT
ATOM      2  O   UNL     1      -4.515 -14.016  15.506  0.00  0.00    -0.270 OA
ATOM      5  N   UNL     1      -4.629 -12.217  16.971  0.00  0.00    -0.297 N 
ATOM      9  C   UNL     1      -5.229 -10.737  18.736  0.00  0.00    +0.095 C 
ATOM     10  C   UNL     1      -4.594 -12.009  19.322  0.00  0.00    +0.033 C 
ATOM     11  C   UNL     1      -4.759 -10.791  17.276  0.00  0.00    +0.121 C 
ATOM     12  C   UNL     1      -4.682 -13.018  18.184  0.00  0.00    +0.109 C 
ATOM     14  C   UNL     1      -4.549 -12.806  15.719  0.00  0.00    +0.247 C 
ENDROOT
BRANCH  14  15
ATOM     15  C   UNL     1      -4.517 -11.914  14.550  0.00  0.00    +0.041 A 
ATOM     17  C   UNL     1      -5.701 -11.587  13.887  0.00  0.00    +0.062 A 
ATOM     18  C   UNL     1      -3.302 -11.393  14.102  0.00  0.00    +0.017 A 
ATOM     20  C   UNL     1      -5.670 -10.742  12.779  0.00  0.00    +0.162 A 
ATOM     21  C   UNL     1      -3.271 -10.548  12.994  0.00  0.00    +0.050 A 
ATOM     22  C   UNL     1      -4.455 -10.221  12.331  0.00  0.00    +0.162 A 
BRANCH  20   3
ATOM      3  O   UNL     1      -6.833 -10.430  12.142  0.00  0.00    -0.491 OA
ATOM     27  C   UNL     1      -7.769  -9.628  12.858  0.00  0.00    +0.277 C 
ENDBRANCH  20   3
BRANCH  22   4
ATOM      4  O   UNL     1      -4.412  -9.393  11.252  0.00  0.00    -0.491 OA
ATOM     28  C   UNL     1      -3.274  -9.500  10.398  0.00  0.00    +0.277 C 
ENDBRANCH  22   4
ENDBRANCH  14  15
BRANCH   9  13
ATOM      1  O   UNL     1      -7.459  -9.901  18.142  0.00  0.00    -0.420 OA
ATOM      6  N   UNL     1      -7.455 -11.342  19.854  0.00  0.00    -0.112 NA
ATOM      7  N   UNL     1      -8.761 -10.954  19.627  0.00  0.00    -0.107 NA
ATOM     13  C   UNL     1      -6.730 -10.703  18.965  0.00  0.00    +0.222 A 
ATOM     16  C   UNL     1      -8.717 -10.113  18.619  0.00  0.00    +0.248 A 
BRANCH  16  19
ATOM      8  N   UNL     1     -11.820  -8.005  16.667  0.00  0.00    -0.263 NA
ATOM     19  C   UNL     1      -9.769  -9.397  17.957  0.00  0.00    +0.041 A 
ATOM     23  C   UNL     1      -9.465  -8.363  17.080  0.00  0.00    +0.033 A 
ATOM     24  C   UNL     1     -11.097  -9.737  18.190  0.00  0.00    +0.033 A 
ATOM     25  C   UNL     1     -10.518  -7.703  16.466  0.00  0.00    +0.111 A 
ATOM     26  C   UNL     1     -12.076  -9.016  17.526  0.00  0.00    +0.111 A 
ENDBRANCH  16  19
ENDBRANCH   9  13
TORSDOF 5
ENDMDL
MODEL 5
REMARK VINA RESULT:      -6.1     27.235     29.357
REMARK  Name = 51137850
REMARK  7 active torsions:
REMARK  status: ('A' for Active; 'I' for Inactive)
REMARK    1  A    between atoms: O_3  and  C_20
REMARK    2  A    between atoms: O_3  and  C_27
REMARK    3  A    between atoms: O_4  and  C_22
REMARK    4  A    between atoms: O_4  and  C_28
REMARK    5  A    between atoms: C_9  and  C_13
REMARK    6  A    between atoms: C_14  and  C_15
REMARK    7  A    between atoms: C_16  and  C_19
REMARK                            x       y       z     vdW  Elec       q    Type
REMARK                         _______ _______ _______ _____ _____    ______ ____
ROOT
ATOM      2  O   UNL     1      -5.549 -13.451  11.252  0.00  0.00    -0.270 OA
ATOM      5  N   UNL     1      -3.643 -12.314  11.936  0.00  0.00    -0.297 N 
ATOM      9  C   UNL     1      -1.824 -11.453  13.207  0.00  0.00    +0.095 C 
ATOM     10  C   UNL     1      -1.632 -12.962  12.988  0.00  0.00    +0.033 C 
ATOM     11  C   UNL     1      -2.843 -11.100  12.115  0.00  0.00    +0.121 C 
ATOM     12  C   UNL     1      -3.018 -13.453  12.591  0.00  0.00    +0.109 C 
ATOM     14  C   UNL     1      -4.877 -12.424  11.315  0.00  0.00    +0.247 C 
ENDROOT
BRANCH  14  15
ATOM     15  C   UNL     1      -5.435 -11.213  10.694  0.00  0.00    +0.041 A 
ATOM     17  C   UNL     1      -5.241 -10.973   9.333  0.00  0.00    +0.062 A 
ATOM     18  C   UNL     1      -6.159 -10.302  11.465  0.00  0.00    +0.017 A 
ATOM     20  C   UNL     1      -5.770  -9.825   8.745  0.00  0.00    +0.162 A 
ATOM     21  C   UNL     1      -6.688  -9.154  10.877  0.00  0.00    +0.050 A 
ATOM     22  C   UNL     1      -6.494  -8.915   9.516  0.00  0.00    +0.162 A 
BRANCH  20   3
ATOM      3  O   UNL     1      -5.575  -9.603   7.414  0.00  0.00    -0.491 OA
ATOM     27  C   UNL     1      -5.319 -10.744   6.598  0.00  0.00    +0.277 C 
ENDBRANCH  20   3
BRANCH  22   4
ATOM      4  O   UNL     1      -7.017  -7.791   8.953  0.00  0.00    -0.491 OA
ATOM     28  C   UNL     1      -8.437  -7.721   8.845  0.00  0.00    +0.277 C 
ENDBRANCH  22   4
ENDBRANCH  14  15
BRANCH   9  13
ATOM      1  O   UNL     1      -3.546 -10.901  14.867  0.00  0.00    -0.420 OA
ATOM      6  N   UNL     1      -1.483 -11.065  15.718  0.00  0.00    -0.112 NA
ATOM      7  N   UNL     1      -2.347 -10.753  16.750  0.00  0.00    -0.107 NA
ATOM     13  C   UNL     1      -2.226 -11.141  14.638  0.00  0.00    +0.222 A 
ATOM     16  C   UNL     1      -3.540 -10.667  16.208  0.00  0.00    +0.248 A 
BRANCH  16  19
ATOM      8  N   UNL     1      -7.291  -9.793  17.955  0.00  0.00    -0.263 NA
ATOM     19  C   UNL     1      -4.812 -10.370  16.800  0.00  0.00    +0.041 A 
ATOM     23  C   UNL     1      -5.783  -9.697  16.068  0.00  0.00    +0.033 A 
ATOM     24  C   UNL     1      -5.078 -10.755  18.109  0.00  0.00    +0.033 A 
ATOM     25  C   UNL     1      -6.995  -9.435  16.685  0.00  0.00    +0.111 A 
ATOM     26  C   UNL     1      -6.322 -10.445  18.636  0.00  0.00    +0.111 A 
ENDBRANCH  16  19
ENDBRANCH   9  13
TORSDOF 5
ENDMDL
MODEL 6
REMARK VINA RESULT:      -6.1     25.992     28.873
REMARK  Name = 51137850
REMARK  7 active torsions:
REMARK  status: ('A' for Active; 'I' for Inactive)
REMARK    1  A    between atoms: O_3  and  C_20
REMARK    2  A    between atoms: O_3  and  C_27
REMARK    3  A    between atoms: O_4  and  C_22
REMARK    4  A    between atoms: O_4  and  C_28
REMARK    5  A    between atoms: C_9  and  C_13
REMARK    6  A    between atoms: C_14  and  C_15
REMARK    7  A    between atoms: C_16  and  C_19
REMARK                            x       y       z     vdW  Elec       q    Type
REMARK                         _______ _______ _______ _____ _____    ______ ____
ROOT
ATOM      2  O   UNL     1     -16.319   6.066  33.451  0.00  0.00    -0.270 OA
ATOM      5  N   UNL     1     -14.284   7.147  33.162  0.00  0.00    -0.297 N 
ATOM      9  C   UNL     1     -12.593   8.760  32.712  0.00  0.00    +0.095 C 
ATOM     10  C   UNL     1     -13.363   9.161  33.980  0.00  0.00    +0.033 C 
ATOM     11  C   UNL     1     -12.945   7.272  32.582  0.00  0.00    +0.121 C 
ATOM     12  C   UNL     1     -14.649   8.348  33.898  0.00  0.00    +0.109 C 
ATOM     14  C   UNL     1     -15.174   6.097  33.005  0.00  0.00    +0.247 C 
ENDROOT
BRANCH  14  15
ATOM     15  C   UNL     1     -14.720   4.931  32.230  0.00  0.00    +0.041 A 
ATOM     17  C   UNL     1     -15.185   4.733  30.930  0.00  0.00    +0.062 A 
ATOM     18  C   UNL     1     -13.823   4.024  32.796  0.00  0.00    +0.017 A 
ATOM     20  C   UNL     1     -14.754   3.628  30.196  0.00  0.00    +0.162 A 
ATOM     21  C   UNL     1     -13.393   2.919  32.062  0.00  0.00    +0.050 A 
ATOM     22  C   UNL     1     -13.858   2.720  30.762  0.00  0.00    +0.162 A 
BRANCH  20   3
ATOM      3  O   UNL     1     -15.215   3.446  28.926  0.00  0.00    -0.491 OA
ATOM     27  C   UNL     1     -16.553   2.977  28.785  0.00  0.00    +0.277 C 
ENDBRANCH  20   3
BRANCH  22   4
ATOM      4  O   UNL     1     -13.428   1.639  30.055  0.00  0.00    -0.491 OA
ATOM     28  C   UNL     1     -14.026   0.382  30.367  0.00  0.00    +0.277 C 
ENDBRANCH  22   4
ENDBRANCH  14  15
BRANCH   9  13
ATOM      1  O   UNL     1     -12.229   9.481  30.393  0.00  0.00    -0.420 OA
ATOM      6  N   UNL     1     -13.877  10.577  31.437  0.00  0.00    -0.112 NA
ATOM      7  N   UNL     1     -13.779  11.076  30.153  0.00  0.00    -0.107 NA
ATOM     13  C   UNL     1     -12.953   9.648  31.533  0.00  0.00    +0.222 A 
ATOM     16  C   UNL     1     -12.805  10.407  29.579  0.00  0.00    +0.248 A 
BRANCH  16  19
ATOM      8  N   UNL     1     -11.217  10.686  25.670  0.00  0.00    -0.263 NA
ATOM     19  C   UNL     1     -12.266  10.502  28.254  0.00  0.00    +0.041 A 
ATOM     23  C   UNL     1     -10.938  10.167  28.014  0.00  0.00    +0.033 A 
ATOM     24  C   UNL     1     -13.071  10.929  27.203  0.00  0.00    +0.033 A 
ATOM     25  C   UNL     1     -10.466  10.275  26.716  0.00  0.00    +0.111 A 
ATOM     26  C   UNL     1     -12.503  11.003  25.941  0.00  0.00    +0.111 A 
ENDBRANCH  16  19
ENDBRANCH   9  13
TORSDOF 5
ENDMDL
MODEL 7
REMARK VINA RESULT:      -6.0     14.280     18.540
REMARK  Name = 51137850
REMARK  7 active torsions:
REMARK  status: ('A' for Active; 'I' for Inactive)
REMARK    1  A    between atoms: O_3  and  C_20
REMARK    2  A    between atoms: O_3  and  C_27
REMARK    3  A    between atoms: O_4  and  C_22
REMARK    4  A    between atoms: O_4  and  C_28
REMARK    5  A    between atoms: C_9  and  C_13
REMARK    6  A    between atoms: C_14  and  C_15
REMARK    7  A    between atoms: C_16  and  C_19
REMARK                            x       y       z     vdW  Elec       q    Type
REMARK                         _______ _______ _______ _____ _____    ______ ____
ROOT
ATOM      2  O   UNL     1       9.681   7.945   1.732  0.00  0.00    -0.270 OA
ATOM      5  N   UNL     1       9.468   6.383   3.438  0.00  0.00    -0.297 N 
ATOM      9  C   UNL     1       9.424   5.300   5.557  0.00  0.00    +0.095 C 
ATOM     10  C   UNL     1       8.288   6.333   5.481  0.00  0.00    +0.033 C 
ATOM     11  C   UNL     1       9.771   5.100   4.075  0.00  0.00    +0.121 C 
ATOM     12  C   UNL     1       8.694   7.237   4.324  0.00  0.00    +0.109 C 
ATOM     14  C   UNL     1       9.898   6.828   2.198  0.00  0.00    +0.247 C 
ENDROOT
BRANCH  14  15
ATOM     15  C   UNL     1      10.690   5.897   1.379  0.00  0.00    +0.041 A 
ATOM     17  C   UNL     1      12.069   5.797   1.571  0.00  0.00    +0.062 A 
ATOM     18  C   UNL     1      10.063   5.113   0.410  0.00  0.00    +0.017 A 
ATOM     20  C   UNL     1      12.819   4.915   0.794  0.00  0.00    +0.162 A 
ATOM     21  C   UNL     1      10.813   4.231  -0.367  0.00  0.00    +0.050 A 
ATOM     22  C   UNL     1      12.192   4.131  -0.175  0.00  0.00    +0.162 A 
BRANCH  20   3
ATOM      3  O   UNL     1      14.165   4.826   0.992  0.00  0.00    -0.491 OA
ATOM     27  C   UNL     1      14.634   3.724   1.764  0.00  0.00    +0.277 C 
ENDBRANCH  20   3
BRANCH  22   4
ATOM      4  O   UNL     1      12.913   3.265  -0.939  0.00  0.00    -0.491 OA
ATOM     28  C   UNL     1      12.219   2.594  -1.988  0.00  0.00    +0.277 C 
ENDBRANCH  22   4
ENDBRANCH  14  15
BRANCH   9  13
ATOM      1  O   UNL     1      11.457   6.628   5.917  0.00  0.00    -0.420 OA
ATOM      6  N   UNL     1      10.794   5.474   7.716  0.00  0.00    -0.112 NA
ATOM      7  N   UNL     1      11.939   6.170   8.053  0.00  0.00    -0.107 NA
ATOM     13  C   UNL     1      10.550   5.770   6.460  0.00  0.00    +0.222 A 
ATOM     16  C   UNL     1      12.291   6.830   6.974  0.00  0.00    +0.248 A 
BRANCH  16  19
ATOM      8  N   UNL     1      15.553   9.432   6.290  0.00  0.00    -0.263 NA
ATOM     19  C   UNL     1      13.397   7.713   6.742  0.00  0.00    +0.041 A 
ATOM     23  C   UNL     1      13.216   9.090   6.803  0.00  0.00    +0.033 A 
ATOM     24  C   UNL     1      14.654   7.194   6.455  0.00  0.00    +0.033 A 
ATOM     25  C   UNL     1      14.316   9.899   6.572  0.00  0.00    +0.111 A 
ATOM     26  C   UNL     1      15.691   8.089   6.239  0.00  0.00    +0.111 A 
ENDBRANCH  16  19
ENDBRANCH   9  13
TORSDOF 5
ENDMDL
MODEL 8
REMARK VINA RESULT:      -6.0     26.771     28.982
REMARK  Name = 51137850
REMARK  7 active torsions:
REMARK  status: ('A' for Active; 'I' for Inactive)
REMARK    1  A    between atoms: O_3  and  C_20
REMARK    2  A    between atoms: O_3  and  C_27
REMARK    3  A    between atoms: O_4  and  C_22
REMARK    4  A    between atoms: O_4  and  C_28
REMARK    5  A    between atoms: C_9  and  C_13
REMARK    6  A    between atoms: C_14  and  C_15
REMARK    7  A    between atoms: C_16  and  C_19
REMARK                            x       y       z     vdW  Elec       q    Type
REMARK                         _______ _______ _______ _____ _____    ______ ____
ROOT
ATOM      2  O   UNL     1      -2.986 -13.134  11.732  0.00  0.00    -0.270 OA
ATOM      5  N   UNL     1      -2.459 -11.532  13.328  0.00  0.00    -0.297 N 
ATOM      9  C   UNL     1      -2.081 -10.379  15.376  0.00  0.00    +0.095 C 
ATOM     10  C   UNL     1      -1.038 -11.497  15.212  0.00  0.00    +0.033 C 
ATOM     11  C   UNL     1      -2.590 -10.208  13.938  0.00  0.00    +0.121 C 
ATOM     12  C   UNL     1      -1.644 -12.410  14.154  0.00  0.00    +0.109 C 
ATOM     14  C   UNL     1      -3.066 -11.988  12.169  0.00  0.00    +0.247 C 
ENDROOT
BRANCH  14  15
ATOM     15  C   UNL     1      -3.884 -11.031  11.409  0.00  0.00    +0.041 A 
ATOM     17  C   UNL     1      -5.240 -10.882  11.703  0.00  0.00    +0.062 A 
ATOM     18  C   UNL     1      -3.305 -10.271  10.392  0.00  0.00    +0.017 A 
ATOM     20  C   UNL     1      -6.015  -9.975  10.982  0.00  0.00    +0.162 A 
ATOM     21  C   UNL     1      -4.080  -9.363   9.671  0.00  0.00    +0.050 A 
ATOM     22  C   UNL     1      -5.436  -9.215   9.965  0.00  0.00    +0.162 A 
BRANCH  20   3
ATOM      3  O   UNL     1      -7.338  -9.838  11.280  0.00  0.00    -0.491 OA
ATOM     27  C   UNL     1      -7.670  -9.558  12.638  0.00  0.00    +0.277 C 
ENDBRANCH  20   3
BRANCH  22   4
ATOM      4  O   UNL     1      -6.181  -8.324   9.255  0.00  0.00    -0.491 OA
ATOM     28  C   UNL     1      -6.835  -8.813   8.086  0.00  0.00    +0.277 C 
ENDBRANCH  22   4
ENDBRANCH  14  15
BRANCH   9  13
ATOM      1  O   UNL     1      -4.370 -10.225  16.248  0.00  0.00    -0.420 OA
ATOM      6  N   UNL     1      -2.999 -11.464  17.509  0.00  0.00    -0.112 NA
ATOM      7  N   UNL     1      -4.244 -11.461  18.109  0.00  0.00    -0.107 NA
ATOM     13  C   UNL     1      -3.119 -10.731  16.426  0.00  0.00    +0.222 A 
ATOM     16  C   UNL     1      -5.013 -10.726  17.339  0.00  0.00    +0.248 A 
BRANCH  16  19
ATOM      8  N   UNL     1      -9.097  -9.699  17.720  0.00  0.00    -0.263 NA
ATOM     19  C   UNL     1      -6.398 -10.377  17.468  0.00  0.00    +0.041 A 
ATOM     23  C   UNL     1      -6.968  -9.450  16.604  0.00  0.00    +0.033 A 
ATOM     24  C   UNL     1      -7.175 -10.966  18.459  0.00  0.00    +0.033 A 
ATOM     25  C   UNL     1      -8.309  -9.147  16.770  0.00  0.00    +0.111 A 
ATOM     26  C   UNL     1      -8.508 -10.596  18.542  0.00  0.00    +0.111 A 
ENDBRANCH  16  19
ENDBRANCH   9  13
TORSDOF 5
ENDMDL
MODEL 9
REMARK VINA RESULT:      -6.0     27.408     29.887
REMARK  Name = 51137850
REMARK  7 active torsions:
REMARK  status: ('A' for Active; 'I' for Inactive)
REMARK    1  A    between atoms: O_3  and  C_20
REMARK    2  A    between atoms: O_3  and  C_27
REMARK    3  A    between atoms: O_4  and  C_22
REMARK    4  A    between atoms: O_4  and  C_28
REMARK    5  A    between atoms: C_9  and  C_13
REMARK    6  A    between atoms: C_14  and  C_15
REMARK    7  A    between atoms: C_16  and  C_19
REMARK                            x       y       z     vdW  Elec       q    Type
REMARK                         _______ _______ _______ _____ _____    ______ ____
ROOT
ATOM      2  O   UNL     1      -4.730 -13.736  15.065  0.00  0.00    -0.270 OA
ATOM      5  N   UNL     1      -4.760 -12.024  16.634  0.00  0.00    -0.297 N 
ATOM      9  C   UNL     1      -5.220 -10.672  18.538  0.00  0.00    +0.095 C 
ATOM     10  C   UNL     1      -4.457 -11.933  18.973  0.00  0.00    +0.033 C 
ATOM     11  C   UNL     1      -4.925 -10.624  17.033  0.00  0.00    +0.121 C 
ATOM     12  C   UNL     1      -4.628 -12.887  17.797  0.00  0.00    +0.109 C 
ATOM     14  C   UNL     1      -4.800 -12.542  15.349  0.00  0.00    +0.247 C 
ENDROOT
BRANCH  14  15
ATOM     15  C   UNL     1      -4.951 -11.591  14.237  0.00  0.00    +0.041 A 
ATOM     17  C   UNL     1      -3.835 -11.198  13.497  0.00  0.00    +0.062 A 
ATOM     18  C   UNL     1      -6.211 -11.081  13.921  0.00  0.00    +0.017 A 
ATOM     20  C   UNL     1      -3.979 -10.297  12.443  0.00  0.00    +0.162 A 
ATOM     21  C   UNL     1      -6.355 -10.180  12.867  0.00  0.00    +0.050 A 
ATOM     22  C   UNL     1      -5.238  -9.787  12.127  0.00  0.00    +0.162 A 
BRANCH  20   3
ATOM      3  O   UNL     1      -2.881  -9.922  11.728  0.00  0.00    -0.491 OA
ATOM     27  C   UNL     1      -1.615 -10.380  12.197  0.00  0.00    +0.277 C 
ENDBRANCH  20   3
BRANCH  22   4
ATOM      4  O   UNL     1      -5.392  -8.907  11.099  0.00  0.00    -0.491 OA
ATOM     28  C   UNL     1      -5.901  -9.427   9.873  0.00  0.00    +0.277 C 
ENDBRANCH  22   4
ENDBRANCH  14  15
BRANCH   9  13
ATOM      1  O   UNL     1      -7.582 -10.176  18.084  0.00  0.00    -0.420 OA
ATOM      6  N   UNL     1      -7.234 -11.258  20.012  0.00  0.00    -0.112 NA
ATOM      7  N   UNL     1      -8.593 -11.043  19.882  0.00  0.00    -0.107 NA
ATOM     13  C   UNL     1      -6.683 -10.735  18.940  0.00  0.00    +0.222 A 
ATOM     16  C   UNL     1      -8.750 -10.409  18.742  0.00  0.00    +0.248 A 
BRANCH  16  19
ATOM      8  N   UNL     1     -12.258  -9.006  16.843  0.00  0.00    -0.263 NA
ATOM     19  C   UNL     1      -9.940  -9.934  18.098  0.00  0.00    +0.041 A 
ATOM     23  C   UNL     1     -11.009 -10.796  17.882  0.00  0.00    +0.033 A 
ATOM     24  C   UNL     1     -10.028  -8.608  17.687  0.00  0.00    +0.033 A 
ATOM     25  C   UNL     1     -12.136 -10.287  17.256  0.00  0.00    +0.111 A 
ATOM     26  C   UNL     1     -11.198  -8.198  17.070  0.00  0.00    +0.111 A 
ENDBRANCH  16  19
ENDBRANCH   9  13
TORSDOF 5
ENDMDL
MODEL 10
REMARK VINA RESULT:      -6.0     27.772     29.070
REMARK  Name = 51137850
REMARK  7 active torsions:
REMARK  status: ('A' for Active; 'I' for Inactive)
REMARK    1  A    between atoms: O_3  and  C_20
REMARK    2  A    between atoms: O_3  and  C_27
REMARK    3  A    between atoms: O_4  and  C_22
REMARK    4  A    between atoms: O_4  and  C_28
REMARK    5  A    between atoms: C_9  and  C_13
REMARK    6  A    between atoms: C_14  and  C_15
REMARK    7  A    between atoms: C_16  and  C_19
REMARK                            x       y       z     vdW  Elec       q    Type
REMARK                         _______ _______ _______ _____ _____    ______ ____
ROOT
ATOM      2  O   UNL     1      -6.477 -10.421  19.998  0.00  0.00    -0.270 OA
ATOM      5  N   UNL     1      -6.346 -11.732  18.085  0.00  0.00    -0.297 N 
ATOM      9  C   UNL     1      -5.585 -12.869  16.138  0.00  0.00    +0.095 C 
ATOM     10  C   UNL     1      -4.916 -13.474  17.383  0.00  0.00    +0.033 C 
ATOM     11  C   UNL     1      -6.786 -12.133  16.748  0.00  0.00    +0.121 C 
ATOM     12  C   UNL     1      -5.113 -12.410  18.456  0.00  0.00    +0.109 C 
ATOM     14  C   UNL     1      -6.923 -10.780  18.910  0.00  0.00    +0.247 C 
ENDROOT
BRANCH  14  15
ATOM     15  C   UNL     1      -8.161 -10.136  18.443  0.00  0.00    +0.041 A 
ATOM     17  C   UNL     1      -9.398 -10.569  18.923  0.00  0.00    +0.062 A 
ATOM     18  C   UNL     1      -8.099  -9.093  17.518  0.00  0.00    +0.017 A 
ATOM     20  C   UNL     1     -10.570  -9.959  18.480  0.00  0.00    +0.162 A 
ATOM     21  C   UNL     1      -9.272  -8.483  17.075  0.00  0.00    +0.050 A 
ATOM     22  C   UNL     1     -10.509  -8.916  17.555  0.00  0.00    +0.162 A 
BRANCH  20   3
ATOM      3  O   UNL     1     -11.772 -10.391  18.958  0.00  0.00    -0.491 OA
ATOM     27  C   UNL     1     -12.110 -10.016  20.291  0.00  0.00    +0.277 C 
ENDBRANCH  20   3
BRANCH  22   4
ATOM      4  O   UNL     1     -11.647  -8.311  17.116  0.00  0.00    -0.491 OA
ATOM     28  C   UNL     1     -11.492  -7.125  16.339  0.00  0.00    +0.277 C 
ENDBRANCH  22   4
ENDBRANCH  14  15
BRANCH   9  13
ATOM      1  O   UNL     1      -5.048 -11.568  14.126  0.00  0.00    -0.420 OA
ATOM      6  N   UNL     1      -3.383 -11.663  15.619  0.00  0.00    -0.112 NA
ATOM      7  N   UNL     1      -2.952 -10.908  14.546  0.00  0.00    -0.107 NA
ATOM     13  C   UNL     1      -4.612 -12.028  15.331  0.00  0.00    +0.222 A 
ATOM     16  C   UNL     1      -3.955 -10.878  13.699  0.00  0.00    +0.248 A 
BRANCH  16  19
ATOM      8  N   UNL     1      -4.307  -9.010   9.921  0.00  0.00    -0.263 NA
ATOM     19  C   UNL     1      -4.073 -10.244  12.418  0.00  0.00    +0.041 A 
ATOM     23  C   UNL     1      -2.981 -10.195  11.560  0.00  0.00    +0.033 A 
ATOM     24  C   UNL     1      -5.283  -9.678  12.030  0.00  0.00    +0.033 A 
ATOM     25  C   UNL     1      -3.148  -9.572  10.333  0.00  0.00    +0.111 A 
ATOM     26  C   UNL     1      -5.346  -9.077  10.783  0.00  0.00    +0.111 A 
ENDBRANCH  16  19
ENDBRANCH   9  13
TORSDOF 5
ENDMDL
