MODEL 1
REMARK VINA RESULT:      -6.5      0.000      0.000
REMARK  Name = 75536802
REMARK  8 active torsions:
REMARK  status: ('A' for Active; 'I' for Inactive)
REMARK    1  A    between atoms: O_2  and  C_9
REMARK    2  A    between atoms: N_4  and  C_8
REMARK    3  A    between atoms: N_4  and  C_13
REMARK    4  A    between atoms: N_5  and  C_12
REMARK    5  A    between atoms: C_10  and  C_12
REMARK    6  A    between atoms: C_13  and  C_14
REMARK    7  A    between atoms: C_15  and  C_18
REMARK    8  A    between atoms: C_19  and  C_24
REMARK                            x       y       z     vdW  Elec       q    Type
REMARK                         _______ _______ _______ _____ _____    ______ ____
ROOT
ATOM      1  O   UNL     1     -17.614   5.323  24.242  0.00  0.00    -0.371 OA
ATOM      8  C   UNL     1     -15.978   4.102  23.027  0.00  0.00    +0.111 C 
ATOM      9  C   UNL     1     -15.757   3.884  24.513  0.00  0.00    +0.164 C 
ATOM     10  C   UNL     1     -17.124   4.255  25.070  0.00  0.00    +0.165 C 
ATOM     11  C   UNL     1     -16.835   5.357  23.032  0.00  0.00    +0.181 C 
ENDROOT
BRANCH   9   2
ATOM      2  O   UNL     1     -15.407   2.549  24.821  0.00  0.00    -0.388 OA
ATOM     28  H   UNL     1     -14.633   2.563  25.408  0.00  0.00    +0.210 HD
ENDBRANCH   9   2
BRANCH   8   4
ATOM      4  N   UNL     1     -14.746   4.262  22.272  0.00  0.00    -0.305 NA
ATOM     27  H   UNL     1     -14.970   4.336  21.279  0.00  0.00    +0.123 HD
BRANCH   4  13
ATOM     13  C   UNL     1     -14.029   5.463  22.684  0.00  0.00    +0.116 C 
BRANCH  13  14
ATOM     14  C   UNL     1     -13.518   6.246  21.504  0.00  0.00    -0.032 A 
ATOM     16  C   UNL     1     -14.415   6.900  20.659  0.00  0.00    +0.023 A 
ATOM     17  C   UNL     1     -12.148   6.319  21.256  0.00  0.00    +0.005 A 
ATOM     19  C   UNL     1     -13.942   7.626  19.567  0.00  0.00    +0.052 A 
ATOM     20  C   UNL     1     -11.674   7.045  20.164  0.00  0.00    +0.002 A 
ATOM     21  C   UNL     1     -12.571   7.699  19.319  0.00  0.00    +0.019 A 
BRANCH  19  24
ATOM      7  N   UNL     1     -15.606   8.840  17.997  0.00  0.00    -0.191 NA
ATOM     24  C   UNL     1     -14.860   8.296  18.701  0.00  0.00    +0.099 C 
ENDBRANCH  19  24
ENDBRANCH  13  14
ENDBRANCH   4  13
ENDBRANCH   8   4
BRANCH  10  12
ATOM     12  C   UNL     1     -17.079   4.710  26.518  0.00  0.00    +0.138 C 
BRANCH  12   5
ATOM      3  O   UNL     1     -17.843   2.832  28.551  0.00  0.00    -0.270 OA
ATOM      5  N   UNL     1     -16.200   3.885  27.296  0.00  0.00    -0.309 N 
ATOM     15  C   UNL     1     -16.661   2.999  28.266  0.00  0.00    +0.244 C 
ATOM     29  H   UNL     1     -15.205   4.023  27.158  0.00  0.00    +0.149 HD
BRANCH  15  18
ATOM      6  N   UNL     1     -13.661   0.802  30.388  0.00  0.00    -0.263 NA
ATOM     18  C   UNL     1     -15.621   2.236  29.004  0.00  0.00    +0.040 A 
ATOM     22  C   UNL     1     -14.643   2.910  29.727  0.00  0.00    +0.033 A 
ATOM     23  C   UNL     1     -15.621   0.846  28.973  0.00  0.00    +0.033 A 
ATOM     25  C   UNL     1     -13.694   2.154  30.395  0.00  0.00    +0.111 A 
ATOM     26  C   UNL     1     -14.628   0.181  29.676  0.00  0.00    +0.111 A 
ENDBRANCH  15  18
ENDBRANCH  12   5
ENDBRANCH  10  12
TORSDOF 8
ENDMDL
MODEL 2
REMARK VINA RESULT:      -6.5     31.705     34.920
REMARK  Name = 75536802
REMARK  8 active torsions:
REMARK  status: ('A' for Active; 'I' for Inactive)
REMARK    1  A    between atoms: O_2  and  C_9
REMARK    2  A    between atoms: N_4  and  C_8
REMARK    3  A    between atoms: N_4  and  C_13
REMARK    4  A    between atoms: N_5  and  C_12
REMARK    5  A    between atoms: C_10  and  C_12
REMARK    6  A    between atoms: C_13  and  C_14
REMARK    7  A    between atoms: C_15  and  C_18
REMARK    8  A    between atoms: C_19  and  C_24
REMARK                            x       y       z     vdW  Elec       q    Type
REMARK                         _______ _______ _______ _____ _____    ______ ____
ROOT
ATOM      1  O   UNL     1      18.043   7.147  21.303  0.00  0.00    -0.371 OA
ATOM      8  C   UNL     1      19.552   5.764  20.098  0.00  0.00    +0.111 C 
ATOM      9  C   UNL     1      18.139   5.497  19.612  0.00  0.00    +0.164 C 
ATOM     10  C   UNL     1      17.430   6.767  20.060  0.00  0.00    +0.165 C 
ATOM     11  C   UNL     1      19.288   6.436  21.435  0.00  0.00    +0.181 C 
ENDROOT
BRANCH   9   2
ATOM      2  O   UNL     1      18.070   5.321  18.210  0.00  0.00    -0.388 OA
ATOM     28  H   UNL     1      18.389   6.132  17.783  0.00  0.00    +0.210 HD
ENDBRANCH   9   2
BRANCH   8   4
ATOM      4  N   UNL     1      20.364   4.564  20.219  0.00  0.00    -0.305 NA
ATOM     27  H   UNL     1      20.822   4.380  19.326  0.00  0.00    +0.123 HD
BRANCH   4  13
ATOM     13  C   UNL     1      21.384   4.721  21.250  0.00  0.00    +0.116 C 
BRANCH  13  14
ATOM     14  C   UNL     1      22.651   3.987  20.902  0.00  0.00    -0.032 A 
ATOM     16  C   UNL     1      23.687   4.654  20.248  0.00  0.00    +0.023 A 
ATOM     17  C   UNL     1      22.790   2.640  21.235  0.00  0.00    +0.005 A 
ATOM     19  C   UNL     1      24.862   3.974  19.927  0.00  0.00    +0.052 A 
ATOM     20  C   UNL     1      23.965   1.960  20.915  0.00  0.00    +0.002 A 
ATOM     21  C   UNL     1      25.001   2.626  20.261  0.00  0.00    +0.019 A 
BRANCH  19  24
ATOM      7  N   UNL     1      26.787   5.210  18.714  0.00  0.00    -0.191 NA
ATOM     24  C   UNL     1      25.924   4.656  19.258  0.00  0.00    +0.099 C 
ENDBRANCH  19  24
ENDBRANCH  13  14
ENDBRANCH   4  13
ENDBRANCH   8   4
BRANCH  10  12
ATOM     12  C   UNL     1      15.937   6.582  20.260  0.00  0.00    +0.138 C 
BRANCH  12   5
ATOM      3  O   UNL     1      13.088   6.921  20.148  0.00  0.00    -0.270 OA
ATOM      5  N   UNL     1      15.188   7.192  19.200  0.00  0.00    -0.309 N 
ATOM     15  C   UNL     1      13.801   7.314  19.230  0.00  0.00    +0.244 C 
ATOM     29  H   UNL     1      15.711   7.478  18.379  0.00  0.00    +0.149 HD
BRANCH  15  18
ATOM      6  N   UNL     1      11.990   9.135  15.805  0.00  0.00    -0.263 NA
ATOM     18  C   UNL     1      13.174   7.947  18.042  0.00  0.00    +0.040 A 
ATOM     22  C   UNL     1      11.793   8.103  17.982  0.00  0.00    +0.033 A 
ATOM     23  C   UNL     1      13.963   8.386  16.984  0.00  0.00    +0.033 A 
ATOM     25  C   UNL     1      11.255   8.697  16.852  0.00  0.00    +0.111 A 
ATOM     26  C   UNL     1      13.329   8.968  15.898  0.00  0.00    +0.111 A 
ENDBRANCH  15  18
ENDBRANCH  12   5
ENDBRANCH  10  12
TORSDOF 8
ENDMDL
MODEL 3
REMARK VINA RESULT:      -6.5     27.020     29.791
REMARK  Name = 75536802
REMARK  8 active torsions:
REMARK  status: ('A' for Active; 'I' for Inactive)
REMARK    1  A    between atoms: O_2  and  C_9
REMARK    2  A    between atoms: N_4  and  C_8
REMARK    3  A    between atoms: N_4  and  C_13
REMARK    4  A    between atoms: N_5  and  C_12
REMARK    5  A    between atoms: C_10  and  C_12
REMARK    6  A    between atoms: C_13  and  C_14
REMARK    7  A    between atoms: C_15  and  C_18
REMARK    8  A    between atoms: C_19  and  C_24
REMARK                            x       y       z     vdW  Elec       q    Type
REMARK                         _______ _______ _______ _____ _____    ______ ____
ROOT
ATOM      1  O   UNL     1      13.891  13.940  23.362  0.00  0.00    -0.371 OA
ATOM      8  C   UNL     1      11.919  12.682  23.777  0.00  0.00    +0.111 C 
ATOM      9  C   UNL     1      13.120  11.905  24.287  0.00  0.00    +0.164 C 
ATOM     10  C   UNL     1      14.148  13.017  24.434  0.00  0.00    +0.165 C 
ATOM     11  C   UNL     1      12.581  13.669  22.830  0.00  0.00    +0.181 C 
ENDROOT
BRANCH   9   2
ATOM      2  O   UNL     1      12.866  11.256  25.518  0.00  0.00    -0.388 OA
ATOM     28  H   UNL     1      11.928  11.004  25.544  0.00  0.00    +0.210 HD
ENDBRANCH   9   2
BRANCH   8   4
ATOM      4  N   UNL     1      10.923  11.850  23.122  0.00  0.00    -0.305 NA
ATOM     27  H   UNL     1      10.036  12.355  23.091  0.00  0.00    +0.123 HD
BRANCH   4  13
ATOM     13  C   UNL     1      11.327  11.522  21.760  0.00  0.00    +0.116 C 
BRANCH  13  14
ATOM     14  C   UNL     1      11.261  10.041  21.496  0.00  0.00    -0.032 A 
ATOM     16  C   UNL     1      11.682   9.531  20.268  0.00  0.00    +0.023 A 
ATOM     17  C   UNL     1      10.781   9.178  22.482  0.00  0.00    +0.005 A 
ATOM     19  C   UNL     1      11.622   8.159  20.025  0.00  0.00    +0.052 A 
ATOM     20  C   UNL     1      10.723   7.806  22.239  0.00  0.00    +0.002 A 
ATOM     21  C   UNL     1      11.143   7.296  21.010  0.00  0.00    +0.019 A 
BRANCH  19  24
ATOM      7  N   UNL     1      12.403   7.211  17.745  0.00  0.00    -0.191 NA
ATOM     24  C   UNL     1      12.053   7.636  18.767  0.00  0.00    +0.099 C 
ENDBRANCH  19  24
ENDBRANCH  13  14
ENDBRANCH   4  13
ENDBRANCH   8   4
BRANCH  10  12
ATOM     12  C   UNL     1      15.582  12.524  24.352  0.00  0.00    +0.138 C 
BRANCH  12   5
ATOM      3  O   UNL     1      15.929  11.857  21.582  0.00  0.00    -0.270 OA
ATOM      5  N   UNL     1      15.649  11.206  23.791  0.00  0.00    -0.309 N 
ATOM     15  C   UNL     1      15.819  10.975  22.428  0.00  0.00    +0.244 C 
ATOM     29  H   UNL     1      15.498  10.431  24.427  0.00  0.00    +0.149 HD
BRANCH  15  18
ATOM      6  N   UNL     1      15.886   6.873  21.205  0.00  0.00    -0.263 NA
ATOM     18  C   UNL     1      15.842   9.552  22.003  0.00  0.00    +0.040 A 
ATOM     22  C   UNL     1      14.727   8.746  22.204  0.00  0.00    +0.033 A 
ATOM     23  C   UNL     1      16.978   9.021  21.402  0.00  0.00    +0.033 A 
ATOM     25  C   UNL     1      14.799   7.425  21.792  0.00  0.00    +0.111 A 
ATOM     26  C   UNL     1      16.950   7.688  21.025  0.00  0.00    +0.111 A 
ENDBRANCH  15  18
ENDBRANCH  12   5
ENDBRANCH  10  12
TORSDOF 8
ENDMDL
MODEL 4
REMARK VINA RESULT:      -6.3      1.933      2.298
REMARK  Name = 75536802
REMARK  8 active torsions:
REMARK  status: ('A' for Active; 'I' for Inactive)
REMARK    1  A    between atoms: O_2  and  C_9
REMARK    2  A    between atoms: N_4  and  C_8
REMARK    3  A    between atoms: N_4  and  C_13
REMARK    4  A    between atoms: N_5  and  C_12
REMARK    5  A    between atoms: C_10  and  C_12
REMARK    6  A    between atoms: C_13  and  C_14
REMARK    7  A    between atoms: C_15  and  C_18
REMARK    8  A    between atoms: C_19  and  C_24
REMARK                            x       y       z     vdW  Elec       q    Type
REMARK                         _______ _______ _______ _____ _____    ______ ____
ROOT
ATOM      1  O   UNL     1     -17.670   3.781  26.067  0.00  0.00    -0.371 OA
ATOM      8  C   UNL     1     -16.423   4.747  24.291  0.00  0.00    +0.111 C 
ATOM      9  C   UNL     1     -16.153   3.254  24.331  0.00  0.00    +0.164 C 
ATOM     10  C   UNL     1     -17.366   2.757  25.105  0.00  0.00    +0.165 C 
ATOM     11  C   UNL     1     -16.987   4.988  25.682  0.00  0.00    +0.181 C 
ENDROOT
BRANCH   9   2
ATOM      2  O   UNL     1     -16.079   2.679  23.041  0.00  0.00    -0.388 OA
ATOM     28  H   UNL     1     -16.865   2.125  22.907  0.00  0.00    +0.210 HD
ENDBRANCH   9   2
BRANCH   8   4
ATOM      4  N   UNL     1     -15.241   5.547  24.014  0.00  0.00    -0.305 NA
ATOM     27  H   UNL     1     -14.475   4.928  23.747  0.00  0.00    +0.123 HD
BRANCH   4  13
ATOM     13  C   UNL     1     -15.486   6.490  22.929  0.00  0.00    +0.116 C 
BRANCH  13  14
ATOM     14  C   UNL     1     -14.219   6.851  22.202  0.00  0.00    -0.032 A 
ATOM     16  C   UNL     1     -13.904   8.190  21.968  0.00  0.00    +0.023 A 
ATOM     17  C   UNL     1     -13.357   5.846  21.762  0.00  0.00    +0.005 A 
ATOM     19  C   UNL     1     -12.730   8.523  21.296  0.00  0.00    +0.052 A 
ATOM     20  C   UNL     1     -12.182   6.180  21.090  0.00  0.00    +0.002 A 
ATOM     21  C   UNL     1     -11.868   7.518  20.856  0.00  0.00    +0.019 A 
BRANCH  19  24
ATOM      7  N   UNL     1     -12.145  11.009  20.862  0.00  0.00    -0.191 NA
ATOM     24  C   UNL     1     -12.407   9.895  21.056  0.00  0.00    +0.099 C 
ENDBRANCH  19  24
ENDBRANCH  13  14
ENDBRANCH   4  13
ENDBRANCH   8   4
BRANCH  10  12
ATOM     12  C   UNL     1     -17.124   1.439  25.818  0.00  0.00    +0.138 C 
BRANCH  12   5
ATOM      3  O   UNL     1     -17.575   0.206  28.371  0.00  0.00    -0.270 OA
ATOM      5  N   UNL     1     -16.345   1.625  27.009  0.00  0.00    -0.309 N 
ATOM     15  C   UNL     1     -16.639   0.983  28.209  0.00  0.00    +0.244 C 
ATOM     29  H   UNL     1     -15.597   2.307  26.962  0.00  0.00    +0.149 HD
BRANCH  15  18
ATOM      6  N   UNL     1     -14.083   1.899  31.519  0.00  0.00    -0.263 NA
ATOM     18  C   UNL     1     -15.752   1.302  29.357  0.00  0.00    +0.040 A 
ATOM     22  C   UNL     1     -14.633   0.517  29.612  0.00  0.00    +0.033 A 
ATOM     23  C   UNL     1     -16.037   2.386  30.180  0.00  0.00    +0.033 A 
ATOM     25  C   UNL     1     -13.838   0.853  30.697  0.00  0.00    +0.111 A 
ATOM     26  C   UNL     1     -15.179   2.640  31.239  0.00  0.00    +0.111 A 
ENDBRANCH  15  18
ENDBRANCH  12   5
ENDBRANCH  10  12
TORSDOF 8
ENDMDL
MODEL 5
REMARK VINA RESULT:      -6.3     27.283     30.368
REMARK  Name = 75536802
REMARK  8 active torsions:
REMARK  status: ('A' for Active; 'I' for Inactive)
REMARK    1  A    between atoms: O_2  and  C_9
REMARK    2  A    between atoms: N_4  and  C_8
REMARK    3  A    between atoms: N_4  and  C_13
REMARK    4  A    between atoms: N_5  and  C_12
REMARK    5  A    between atoms: C_10  and  C_12
REMARK    6  A    between atoms: C_13  and  C_14
REMARK    7  A    between atoms: C_15  and  C_18
REMARK    8  A    between atoms: C_19  and  C_24
REMARK                            x       y       z     vdW  Elec       q    Type
REMARK                         _______ _______ _______ _____ _____    ______ ____
ROOT
ATOM      1  O   UNL     1      11.205   7.612  20.363  0.00  0.00    -0.371 OA
ATOM      8  C   UNL     1      11.772   9.562  21.596  0.00  0.00    +0.111 C 
ATOM      9  C   UNL     1      13.016   9.032  20.906  0.00  0.00    +0.164 C 
ATOM     10  C   UNL     1      12.400   8.181  19.804  0.00  0.00    +0.165 C 
ATOM     11  C   UNL     1      10.864   8.343  21.555  0.00  0.00    +0.181 C 
ENDROOT
BRANCH   9   2
ATOM      2  O   UNL     1      13.830  10.064  20.383  0.00  0.00    -0.388 OA
ATOM     28  H   UNL     1      13.903   9.938  19.422  0.00  0.00    +0.210 HD
ENDBRANCH   9   2
BRANCH   8   4
ATOM      4  N   UNL     1      12.014  10.041  22.947  0.00  0.00    -0.305 NA
ATOM     27  H   UNL     1      12.748  10.749  22.922  0.00  0.00    +0.123 HD
BRANCH   4  13
ATOM     13  C   UNL     1      10.809  10.629  23.519  0.00  0.00    +0.116 C 
BRANCH  13  14
ATOM     14  C   UNL     1      11.111  11.881  24.300  0.00  0.00    -0.032 A 
ATOM     16  C   UNL     1      12.245  11.942  25.109  0.00  0.00    +0.023 A 
ATOM     17  C   UNL     1      10.257  12.980  24.212  0.00  0.00    +0.005 A 
ATOM     19  C   UNL     1      12.526  13.102  25.831  0.00  0.00    +0.052 A 
ATOM     20  C   UNL     1      10.538  14.141  24.933  0.00  0.00    +0.002 A 
ATOM     21  C   UNL     1      11.672  14.201  25.743  0.00  0.00    +0.019 A 
BRANCH  19  24
ATOM      7  N   UNL     1      14.632  13.216  27.334  0.00  0.00    -0.191 NA
ATOM     24  C   UNL     1      13.688  13.165  26.661  0.00  0.00    +0.099 C 
ENDBRANCH  19  24
ENDBRANCH  13  14
ENDBRANCH   4  13
ENDBRANCH   8   4
BRANCH  10  12
ATOM     12  C   UNL     1      13.317   7.072  19.319  0.00  0.00    +0.138 C 
BRANCH  12   5
ATOM      3  O   UNL     1      15.784   6.142  18.183  0.00  0.00    -0.270 OA
ATOM      5  N   UNL     1      14.624   7.183  19.901  0.00  0.00    -0.309 N 
ATOM     15  C   UNL     1      15.770   6.701  19.276  0.00  0.00    +0.244 C 
ATOM     29  H   UNL     1      14.675   7.574  20.835  0.00  0.00    +0.149 HD
BRANCH  15  18
ATOM      6  N   UNL     1      19.441   7.192  21.423  0.00  0.00    -0.263 NA
ATOM     18  C   UNL     1      17.044   6.870  20.022  0.00  0.00    +0.040 A 
ATOM     22  C   UNL     1      17.176   7.895  20.952  0.00  0.00    +0.033 A 
ATOM     23  C   UNL     1      18.108   6.004  19.793  0.00  0.00    +0.033 A 
ATOM     25  C   UNL     1      18.385   8.013  21.619  0.00  0.00    +0.111 A 
ATOM     26  C   UNL     1      19.275   6.206  20.513  0.00  0.00    +0.111 A 
ENDBRANCH  15  18
ENDBRANCH  12   5
ENDBRANCH  10  12
TORSDOF 8
ENDMDL
MODEL 6
REMARK VINA RESULT:      -6.2     15.877     18.375
REMARK  Name = 75536802
REMARK  8 active torsions:
REMARK  status: ('A' for Active; 'I' for Inactive)
REMARK    1  A    between atoms: O_2  and  C_9
REMARK    2  A    between atoms: N_4  and  C_8
REMARK    3  A    between atoms: N_4  and  C_13
REMARK    4  A    between atoms: N_5  and  C_12
REMARK    5  A    between atoms: C_10  and  C_12
REMARK    6  A    between atoms: C_13  and  C_14
REMARK    7  A    between atoms: C_15  and  C_18
REMARK    8  A    between atoms: C_19  and  C_24
REMARK                            x       y       z     vdW  Elec       q    Type
REMARK                         _______ _______ _______ _____ _____    ______ ____
ROOT
ATOM      1  O   UNL     1     -12.040  -8.005  16.969  0.00  0.00    -0.371 OA
ATOM      8  C   UNL     1      -9.705  -7.816  16.573  0.00  0.00    +0.111 C 
ATOM      9  C   UNL     1     -10.449  -6.949  15.574  0.00  0.00    +0.164 C 
ATOM     10  C   UNL     1     -11.786  -6.770  16.279  0.00  0.00    +0.165 C 
ATOM     11  C   UNL     1     -10.810  -8.749  17.042  0.00  0.00    +0.181 C 
ENDROOT
BRANCH   9   2
ATOM      2  O   UNL     1      -9.805  -5.711  15.341  0.00  0.00    -0.388 OA
ATOM     28  H   UNL     1     -10.485  -5.020  15.279  0.00  0.00    +0.210 HD
ENDBRANCH   9   2
BRANCH   8   4
ATOM      4  N   UNL     1      -8.573  -8.525  16.000  0.00  0.00    -0.305 NA
ATOM     27  H   UNL     1      -7.710  -8.066  16.292  0.00  0.00    +0.123 HD
BRANCH   4  13
ATOM     13  C   UNL     1      -8.542  -9.914  16.445  0.00  0.00    +0.116 C 
BRANCH  13  14
ATOM     14  C   UNL     1      -7.302 -10.221  17.241  0.00  0.00    -0.032 A 
ATOM     16  C   UNL     1      -6.065 -10.306  16.602  0.00  0.00    +0.023 A 
ATOM     17  C   UNL     1      -7.390 -10.420  18.619  0.00  0.00    +0.005 A 
ATOM     19  C   UNL     1      -4.916 -10.589  17.339  0.00  0.00    +0.052 A 
ATOM     20  C   UNL     1      -6.241 -10.703  19.357  0.00  0.00    +0.002 A 
ATOM     21  C   UNL     1      -5.004 -10.788  18.717  0.00  0.00    +0.019 A 
BRANCH  19  24
ATOM      7  N   UNL     1      -2.619 -10.746  16.154  0.00  0.00    -0.191 NA
ATOM     24  C   UNL     1      -3.649 -10.676  16.685  0.00  0.00    +0.099 C 
ENDBRANCH  19  24
ENDBRANCH  13  14
ENDBRANCH   4  13
ENDBRANCH   8   4
BRANCH  10  12
ATOM     12  C   UNL     1     -12.931  -6.469  15.328  0.00  0.00    +0.138 C 
BRANCH  12   5
ATOM      3  O   UNL     1     -13.910  -4.346  13.662  0.00  0.00    -0.270 OA
ATOM      5  N   UNL     1     -12.447  -6.111  14.026  0.00  0.00    -0.309 N 
ATOM     15  C   UNL     1     -12.985  -5.061  13.286  0.00  0.00    +0.244 C 
ATOM     29  H   UNL     1     -11.729  -6.704  13.628  0.00  0.00    +0.149 HD
BRANCH  15  18
ATOM      6  N   UNL     1     -11.275  -4.405   9.417  0.00  0.00    -0.263 NA
ATOM     18  C   UNL     1     -12.390  -4.834  11.944  0.00  0.00    +0.040 A 
ATOM     22  C   UNL     1     -12.108  -3.542  11.515  0.00  0.00    +0.033 A 
ATOM     23  C   UNL     1     -12.114  -5.913  11.110  0.00  0.00    +0.033 A 
ATOM     25  C   UNL     1     -11.557  -3.382  10.254  0.00  0.00    +0.111 A 
ATOM     26  C   UNL     1     -11.561  -5.648   9.868  0.00  0.00    +0.111 A 
ENDBRANCH  15  18
ENDBRANCH  12   5
ENDBRANCH  10  12
TORSDOF 8
ENDMDL
MODEL 7
REMARK VINA RESULT:      -6.2     16.352     18.907
REMARK  Name = 75536802
REMARK  8 active torsions:
REMARK  status: ('A' for Active; 'I' for Inactive)
REMARK    1  A    between atoms: O_2  and  C_9
REMARK    2  A    between atoms: N_4  and  C_8
REMARK    3  A    between atoms: N_4  and  C_13
REMARK    4  A    between atoms: N_5  and  C_12
REMARK    5  A    between atoms: C_10  and  C_12
REMARK    6  A    between atoms: C_13  and  C_14
REMARK    7  A    between atoms: C_15  and  C_18
REMARK    8  A    between atoms: C_19  and  C_24
REMARK                            x       y       z     vdW  Elec       q    Type
REMARK                         _______ _______ _______ _____ _____    ______ ____
ROOT
ATOM      1  O   UNL     1     -11.607  -8.340  14.563  0.00  0.00    -0.371 OA
ATOM      8  C   UNL     1      -9.730  -8.761  15.956  0.00  0.00    +0.111 C 
ATOM      9  C   UNL     1     -10.181  -7.326  16.154  0.00  0.00    +0.164 C 
ATOM     10  C   UNL     1     -11.615  -7.397  15.647  0.00  0.00    +0.165 C 
ATOM     11  C   UNL     1     -10.389  -9.104  14.630  0.00  0.00    +0.181 C 
ENDROOT
BRANCH   9   2
ATOM      2  O   UNL     1     -10.119  -6.917  17.507  0.00  0.00    -0.388 OA
ATOM     28  H   UNL     1      -9.580  -7.559  17.996  0.00  0.00    +0.210 HD
ENDBRANCH   9   2
BRANCH   8   4
ATOM      4  N   UNL     1      -8.285  -8.920  15.927  0.00  0.00    -0.305 NA
ATOM     27  H   UNL     1      -7.854  -8.010  15.758  0.00  0.00    +0.123 HD
BRANCH   4  13
ATOM     13  C   UNL     1      -7.789  -9.449  17.191  0.00  0.00    +0.116 C 
BRANCH  13  14
ATOM     14  C   UNL     1      -6.400 -10.015  17.057  0.00  0.00    -0.032 A 
ATOM     16  C   UNL     1      -5.806 -10.672  18.135  0.00  0.00    +0.023 A 
ATOM     17  C   UNL     1      -5.708  -9.886  15.852  0.00  0.00    +0.005 A 
ATOM     19  C   UNL     1      -4.520 -11.197  18.009  0.00  0.00    +0.052 A 
ATOM     20  C   UNL     1      -4.423 -10.412  15.727  0.00  0.00    +0.002 A 
ATOM     21  C   UNL     1      -3.829 -11.067  16.805  0.00  0.00    +0.019 A 
BRANCH  19  24
ATOM      7  N   UNL     1      -3.416 -12.416  20.010  0.00  0.00    -0.191 NA
ATOM     24  C   UNL     1      -3.911 -11.869  19.113  0.00  0.00    +0.099 C 
ENDBRANCH  19  24
ENDBRANCH  13  14
ENDBRANCH   4  13
ENDBRANCH   8   4
BRANCH  10  12
ATOM     12  C   UNL     1     -12.147  -6.060  15.161  0.00  0.00    +0.138 C 
BRANCH  12   5
ATOM      3  O   UNL     1     -13.135  -3.918  13.526  0.00  0.00    -0.270 OA
ATOM      5  N   UNL     1     -11.971  -5.913  13.745  0.00  0.00    -0.309 N 
ATOM     15  C   UNL     1     -12.488  -4.836  13.030  0.00  0.00    +0.244 C 
ATOM     29  H   UNL     1     -11.504  -6.672  13.262  0.00  0.00    +0.149 HD
BRANCH  15  18
ATOM      6  N   UNL     1     -11.781  -4.855   8.808  0.00  0.00    -0.263 NA
ATOM     18  C   UNL     1     -12.242  -4.843  11.565  0.00  0.00    +0.040 A 
ATOM     22  C   UNL     1     -12.075  -3.644  10.880  0.00  0.00    +0.033 A 
ATOM     23  C   UNL     1     -12.177  -6.048  10.873  0.00  0.00    +0.033 A 
ATOM     25  C   UNL     1     -11.850  -3.704   9.514  0.00  0.00    +0.111 A 
ATOM     26  C   UNL     1     -11.947  -6.000   9.507  0.00  0.00    +0.111 A 
ENDBRANCH  15  18
ENDBRANCH  12   5
ENDBRANCH  10  12
TORSDOF 8
ENDMDL
MODEL 8
REMARK VINA RESULT:      -6.1     31.533     34.843
REMARK  Name = 75536802
REMARK  8 active torsions:
REMARK  status: ('A' for Active; 'I' for Inactive)
REMARK    1  A    between atoms: O_2  and  C_9
REMARK    2  A    between atoms: N_4  and  C_8
REMARK    3  A    between atoms: N_4  and  C_13
REMARK    4  A    between atoms: N_5  and  C_12
REMARK    5  A    between atoms: C_10  and  C_12
REMARK    6  A    between atoms: C_13  and  C_14
REMARK    7  A    between atoms: C_15  and  C_18
REMARK    8  A    between atoms: C_19  and  C_24
REMARK                            x       y       z     vdW  Elec       q    Type
REMARK                         _______ _______ _______ _____ _____    ______ ____
ROOT
ATOM      1  O   UNL     1      18.416   7.160  21.614  0.00  0.00    -0.371 OA
ATOM      8  C   UNL     1      19.785   5.856  20.175  0.00  0.00    +0.111 C 
ATOM      9  C   UNL     1      18.327   5.567  19.868  0.00  0.00    +0.164 C 
ATOM     10  C   UNL     1      17.654   6.803  20.448  0.00  0.00    +0.165 C 
ATOM     11  C   UNL     1      19.682   6.479  21.558  0.00  0.00    +0.181 C 
ENDROOT
BRANCH   9   2
ATOM      2  O   UNL     1      18.078   5.433  18.482  0.00  0.00    -0.388 OA
ATOM     28  H   UNL     1      18.827   4.962  18.081  0.00  0.00    +0.210 HD
ENDBRANCH   9   2
BRANCH   8   4
ATOM      4  N   UNL     1      20.632   4.675  20.149  0.00  0.00    -0.305 NA
ATOM     27  H   UNL     1      20.648   4.298  19.201  0.00  0.00    +0.123 HD
BRANCH   4  13
ATOM     13  C   UNL     1      21.996   4.997  20.552  0.00  0.00    +0.116 C 
BRANCH  13  14
ATOM     14  C   UNL     1      22.679   3.827  21.208  0.00  0.00    -0.032 A 
ATOM     16  C   UNL     1      22.393   3.507  22.535  0.00  0.00    +0.023 A 
ATOM     17  C   UNL     1      23.596   3.062  20.488  0.00  0.00    +0.005 A 
ATOM     19  C   UNL     1      23.025   2.422  23.142  0.00  0.00    +0.052 A 
ATOM     20  C   UNL     1      24.227   1.976  21.094  0.00  0.00    +0.002 A 
ATOM     21  C   UNL     1      23.942   1.657  22.422  0.00  0.00    +0.019 A 
BRANCH  19  24
ATOM      7  N   UNL     1      22.496   1.826  25.607  0.00  0.00    -0.191 NA
ATOM     24  C   UNL     1      22.734   2.093  24.502  0.00  0.00    +0.099 C 
ENDBRANCH  19  24
ENDBRANCH  13  14
ENDBRANCH   4  13
ENDBRANCH   8   4
BRANCH  10  12
ATOM     12  C   UNL     1      16.204   6.571  20.835  0.00  0.00    +0.138 C 
BRANCH  12   5
ATOM      3  O   UNL     1      15.189   9.195  20.264  0.00  0.00    -0.270 OA
ATOM      5  N   UNL     1      15.315   6.932  19.768  0.00  0.00    -0.309 N 
ATOM     15  C   UNL     1      14.872   8.237  19.565  0.00  0.00    +0.244 C 
ATOM     29  H   UNL     1      14.961   6.175  19.194  0.00  0.00    +0.149 HD
BRANCH  15  18
ATOM      6  N   UNL     1      12.170   8.823  16.297  0.00  0.00    -0.263 NA
ATOM     18  C   UNL     1      13.934   8.441  18.432  0.00  0.00    +0.040 A 
ATOM     22  C   UNL     1      12.627   7.976  18.516  0.00  0.00    +0.033 A 
ATOM     23  C   UNL     1      14.360   9.099  17.283  0.00  0.00    +0.033 A 
ATOM     25  C   UNL     1      11.791   8.189  17.431  0.00  0.00    +0.111 A 
ATOM     26  C   UNL     1      13.447   9.263  16.253  0.00  0.00    +0.111 A 
ENDBRANCH  15  18
ENDBRANCH  12   5
ENDBRANCH  10  12
TORSDOF 8
ENDMDL
MODEL 9
REMARK VINA RESULT:      -6.1     28.204     31.238
REMARK  Name = 75536802
REMARK  8 active torsions:
REMARK  status: ('A' for Active; 'I' for Inactive)
REMARK    1  A    between atoms: O_2  and  C_9
REMARK    2  A    between atoms: N_4  and  C_8
REMARK    3  A    between atoms: N_4  and  C_13
REMARK    4  A    between atoms: N_5  and  C_12
REMARK    5  A    between atoms: C_10  and  C_12
REMARK    6  A    between atoms: C_13  and  C_14
REMARK    7  A    between atoms: C_15  and  C_18
REMARK    8  A    between atoms: C_19  and  C_24
REMARK                            x       y       z     vdW  Elec       q    Type
REMARK                         _______ _______ _______ _____ _____    ______ ____
ROOT
ATOM      1  O   UNL     1      15.940  13.184  22.430  0.00  0.00    -0.371 OA
ATOM      8  C   UNL     1      13.799  12.218  22.781  0.00  0.00    +0.111 C 
ATOM      9  C   UNL     1      14.838  11.113  22.729  0.00  0.00    +0.164 C 
ATOM     10  C   UNL     1      16.110  11.892  23.036  0.00  0.00    +0.165 C 
ATOM     11  C   UNL     1      14.546  13.365  22.121  0.00  0.00    +0.181 C 
ENDROOT
BRANCH   9   2
ATOM      2  O   UNL     1      14.600  10.095  23.682  0.00  0.00    -0.388 OA
ATOM     28  H   UNL     1      13.666   9.834  23.623  0.00  0.00    +0.210 HD
ENDBRANCH   9   2
BRANCH   8   4
ATOM      4  N   UNL     1      12.559  11.884  22.099  0.00  0.00    -0.305 NA
ATOM     27  H   UNL     1      11.844  12.567  22.354  0.00  0.00    +0.123 HD
BRANCH   4  13
ATOM     13  C   UNL     1      12.734  11.904  20.651  0.00  0.00    +0.116 C 
BRANCH  13  14
ATOM     14  C   UNL     1      12.492  10.550  20.038  0.00  0.00    -0.032 A 
ATOM     16  C   UNL     1      13.077  10.223  18.815  0.00  0.00    +0.023 A 
ATOM     17  C   UNL     1      11.683   9.622  20.695  0.00  0.00    +0.005 A 
ATOM     19  C   UNL     1      12.854   8.968  18.249  0.00  0.00    +0.052 A 
ATOM     20  C   UNL     1      11.461   8.368  20.128  0.00  0.00    +0.002 A 
ATOM     21  C   UNL     1      12.045   8.040  18.905  0.00  0.00    +0.019 A 
BRANCH  19  24
ATOM      7  N   UNL     1      13.940   8.359  15.977  0.00  0.00    -0.191 NA
ATOM     24  C   UNL     1      13.453   8.632  16.996  0.00  0.00    +0.099 C 
ENDBRANCH  19  24
ENDBRANCH  13  14
ENDBRANCH   4  13
ENDBRANCH   8   4
BRANCH  10  12
ATOM     12  C   UNL     1      17.364  11.231  22.493  0.00  0.00    +0.138 C 
BRANCH  12   5
ATOM      3  O   UNL     1      18.931   8.845  22.190  0.00  0.00    -0.270 OA
ATOM      5  N   UNL     1      17.045  10.095  21.678  0.00  0.00    -0.309 N 
ATOM     15  C   UNL     1      17.868   8.975  21.590  0.00  0.00    +0.244 C 
ATOM     29  H   UNL     1      16.213  10.166  21.103  0.00  0.00    +0.149 HD
BRANCH  15  18
ATOM      6  N   UNL     1      16.541   5.857  18.975  0.00  0.00    -0.263 NA
ATOM     18  C   UNL     1      17.408   7.894  20.682  0.00  0.00    +0.040 A 
ATOM     22  C   UNL     1      16.138   7.949  20.118  0.00  0.00    +0.033 A 
ATOM     23  C   UNL     1      18.246   6.822  20.391  0.00  0.00    +0.033 A 
ATOM     25  C   UNL     1      15.755   6.915  19.280  0.00  0.00    +0.111 A 
ATOM     26  C   UNL     1      17.769   5.838  19.540  0.00  0.00    +0.111 A 
ENDBRANCH  15  18
ENDBRANCH  12   5
ENDBRANCH  10  12
TORSDOF 8
ENDMDL
MODEL 10
REMARK VINA RESULT:      -6.1     19.676     22.192
REMARK  Name = 75536802
REMARK  8 active torsions:
REMARK  status: ('A' for Active; 'I' for Inactive)
REMARK    1  A    between atoms: O_2  and  C_9
REMARK    2  A    between atoms: N_4  and  C_8
REMARK    3  A    between atoms: N_4  and  C_13
REMARK    4  A    between atoms: N_5  and  C_12
REMARK    5  A    between atoms: C_10  and  C_12
REMARK    6  A    between atoms: C_13  and  C_14
REMARK    7  A    between atoms: C_15  and  C_18
REMARK    8  A    between atoms: C_19  and  C_24
REMARK                            x       y       z     vdW  Elec       q    Type
REMARK                         _______ _______ _______ _____ _____    ______ ____
ROOT
ATOM      1  O   UNL     1      -1.262 -11.401  15.203  0.00  0.00    -0.371 OA
ATOM      8  C   UNL     1      -3.364 -11.308  16.307  0.00  0.00    +0.111 C 
ATOM      9  C   UNL     1      -3.560 -11.875  14.912  0.00  0.00    +0.164 C 
ATOM     10  C   UNL     1      -2.151 -12.347  14.586  0.00  0.00    +0.165 C 
ATOM     11  C   UNL     1      -2.007 -10.637  16.169  0.00  0.00    +0.181 C 
ENDROOT
BRANCH   9   2
ATOM      2  O   UNL     1      -4.493 -12.939  14.883  0.00  0.00    -0.388 OA
ATOM     28  H   UNL     1      -5.303 -12.624  14.450  0.00  0.00    +0.210 HD
ENDBRANCH   9   2
BRANCH   8   4
ATOM      4  N   UNL     1      -4.412 -10.387  16.715  0.00  0.00    -0.305 NA
ATOM     27  H   UNL     1      -5.193 -10.461  16.062  0.00  0.00    +0.123 HD
BRANCH   4  13
ATOM     13  C   UNL     1      -4.887 -10.694  18.058  0.00  0.00    +0.116 C 
BRANCH  13  14
ATOM     14  C   UNL     1      -6.382 -10.557  18.170  0.00  0.00    -0.032 A 
ATOM     16  C   UNL     1      -7.059  -9.630  17.377  0.00  0.00    +0.023 A 
ATOM     17  C   UNL     1      -7.091 -11.359  19.064  0.00  0.00    +0.005 A 
ATOM     19  C   UNL     1      -8.444  -9.504  17.480  0.00  0.00    +0.052 A 
ATOM     20  C   UNL     1      -8.476 -11.234  19.166  0.00  0.00    +0.002 A 
ATOM     21  C   UNL     1      -9.153 -10.306  18.374  0.00  0.00    +0.019 A 
BRANCH  19  24
ATOM      7  N   UNL     1      -9.703  -7.783  16.008  0.00  0.00    -0.191 NA
ATOM     24  C   UNL     1      -9.139  -8.554  16.668  0.00  0.00    +0.099 C 
ENDBRANCH  19  24
ENDBRANCH  13  14
ENDBRANCH   4  13
ENDBRANCH   8   4
BRANCH  10  12
ATOM     12  C   UNL     1      -1.871 -12.416  13.095  0.00  0.00    +0.138 C 
BRANCH  12   5
ATOM      3  O   UNL     1      -1.458  -9.883  11.809  0.00  0.00    -0.270 OA
ATOM      5  N   UNL     1      -2.840 -11.668  12.347  0.00  0.00    -0.309 N 
ATOM     15  C   UNL     1      -2.550 -10.441  11.755  0.00  0.00    +0.244 C 
ATOM     29  H   UNL     1      -3.782 -12.041  12.321  0.00  0.00    +0.149 HD
BRANCH  15  18
ATOM      6  N   UNL     1      -5.779  -8.539   9.686  0.00  0.00    -0.263 NA
ATOM     18  C   UNL     1      -3.670  -9.780  11.037  0.00  0.00    +0.040 A 
ATOM     22  C   UNL     1      -4.903  -9.623  11.662  0.00  0.00    +0.033 A 
ATOM     23  C   UNL     1      -3.490  -9.316   9.739  0.00  0.00    +0.033 A 
ATOM     25  C   UNL     1      -5.916  -9.002  10.949  0.00  0.00    +0.111 A 
ATOM     26  C   UNL     1      -4.567  -8.708   9.112  0.00  0.00    +0.111 A 
ENDBRANCH  15  18
ENDBRANCH  12   5
ENDBRANCH  10  12
TORSDOF 8
ENDMDL
