MODEL 1
REMARK VINA RESULT:      -7.3      0.000      0.000
REMARK  Name = 51137608
REMARK  6 active torsions:
REMARK  status: ('A' for Active; 'I' for Inactive)
REMARK    1  A    between atoms: O_3  and  C_17
REMARK    2  A    between atoms: O_3  and  C_20
REMARK    3  A    between atoms: N_4  and  C_13
REMARK    4  A    between atoms: C_9  and  C_14
REMARK    5  A    between atoms: C_13  and  C_15
REMARK    6  A    between atoms: C_16  and  C_17
REMARK                            x       y       z     vdW  Elec       q    Type
REMARK                         _______ _______ _______ _____ _____    ______ ____
ROOT
ATOM      2  O   UNL     1      13.196   7.977  19.536  0.00  0.00    -0.421 OA
ATOM      5  N   UNL     1      11.662   7.871  17.912  0.00  0.00    -0.112 NA
ATOM      8  N   UNL     1      12.861   7.411  17.398  0.00  0.00    -0.109 NA
ATOM     14  C   UNL     1      11.905   8.190  19.161  0.00  0.00    +0.222 A 
ATOM     16  C   UNL     1      13.727   7.491  18.381  0.00  0.00    +0.254 A 
ENDROOT
BRANCH  14   9
ATOM      4  N   UNL     1      10.938   9.835  22.289  0.00  0.00    -0.294 NA
ATOM      9  C   UNL     1      10.972   8.745  20.213  0.00  0.00    +0.092 C 
ATOM     10  C   UNL     1      10.571   7.745  21.312  0.00  0.00    +0.029 C 
ATOM     11  C   UNL     1      11.569   9.938  20.972  0.00  0.00    +0.097 C 
ATOM     12  C   UNL     1      10.985   8.410  22.619  0.00  0.00    +0.085 C 
BRANCH   4  13
ATOM     13  C   UNL     1      11.602  10.657  23.290  0.00  0.00    +0.158 C 
BRANCH  13  15
ATOM      6  N   UNL     1      10.080  12.463  24.127  0.00  0.00    -0.347 N 
ATOM      7  N   UNL     1      11.497  13.060  22.524  0.00  0.00    -0.239 NA
ATOM     15  C   UNL     1      11.084  12.072  23.286  0.00  0.00    +0.121 A 
ATOM     18  C   UNL     1       9.837  13.786  23.886  0.00  0.00    +0.104 A 
ATOM     19  C   UNL     1      10.724  14.132  22.894  0.00  0.00    +0.130 A 
ATOM     26  H   UNL     1       9.604  11.882  24.805  0.00  0.00    +0.167 HD
ENDBRANCH  13  15
ENDBRANCH   4  13
ENDBRANCH  14   9
BRANCH  16  17
ATOM     17  C   UNL     1      15.151   7.134  18.404  0.00  0.00    +0.326 C 
BRANCH  17   3
ATOM      3  O   UNL     1      15.484   6.502  19.642  0.00  0.00    -0.483 OA
BRANCH   3  20
ATOM      1  F   UNL     1      20.425   7.678  21.742  0.00  0.00    -0.205 F 
ATOM     20  C   UNL     1      16.712   6.794  20.164  0.00  0.00    +0.121 A 
ATOM     21  C   UNL     1      16.864   7.885  21.021  0.00  0.00    +0.048 A 
ATOM     22  C   UNL     1      17.814   6.002  19.841  0.00  0.00    +0.048 A 
ATOM     23  C   UNL     1      18.118   8.184  21.554  0.00  0.00    +0.042 A 
ATOM     24  C   UNL     1      19.068   6.301  20.374  0.00  0.00    +0.042 A 
ATOM     25  C   UNL     1      19.220   7.391  21.230  0.00  0.00    +0.124 A 
ENDBRANCH   3  20
ENDBRANCH  17   3
ENDBRANCH  16  17
TORSDOF 6
ENDMDL
MODEL 2
REMARK VINA RESULT:      -6.6     26.744     28.421
REMARK  Name = 51137608
REMARK  6 active torsions:
REMARK  status: ('A' for Active; 'I' for Inactive)
REMARK    1  A    between atoms: O_3  and  C_17
REMARK    2  A    between atoms: O_3  and  C_20
REMARK    3  A    between atoms: N_4  and  C_13
REMARK    4  A    between atoms: C_9  and  C_14
REMARK    5  A    between atoms: C_13  and  C_15
REMARK    6  A    between atoms: C_16  and  C_17
REMARK                            x       y       z     vdW  Elec       q    Type
REMARK                         _______ _______ _______ _____ _____    ______ ____
ROOT
ATOM      2  O   UNL     1      -3.395 -10.956  14.713  0.00  0.00    -0.421 OA
ATOM      5  N   UNL     1      -1.992 -10.798  16.448  0.00  0.00    -0.112 NA
ATOM      8  N   UNL     1      -1.261 -11.190  15.342  0.00  0.00    -0.109 NA
ATOM     14  C   UNL     1      -3.231 -10.674  16.034  0.00  0.00    +0.222 A 
ATOM     16  C   UNL     1      -2.121 -11.270  14.353  0.00  0.00    +0.254 A 
ENDROOT
BRANCH  14   9
ATOM      4  N   UNL     1      -6.179 -11.115  18.165  0.00  0.00    -0.294 NA
ATOM      9  C   UNL     1      -4.468 -10.269  16.803  0.00  0.00    +0.092 C 
ATOM     10  C   UNL     1      -5.778 -10.337  16.000  0.00  0.00    +0.029 C 
ATOM     11  C   UNL     1      -4.721 -11.148  18.035  0.00  0.00    +0.097 C 
ATOM     12  C   UNL     1      -6.683 -11.266  16.799  0.00  0.00    +0.085 C 
BRANCH   4  13
ATOM     13  C   UNL     1      -6.682 -12.148  19.059  0.00  0.00    +0.158 C 
BRANCH  13  15
ATOM      6  N   UNL     1      -8.605 -10.624  19.563  0.00  0.00    -0.347 N 
ATOM      7  N   UNL     1      -9.017 -12.797  19.762  0.00  0.00    -0.239 NA
ATOM     15  C   UNL     1      -8.109 -11.894  19.464  0.00  0.00    +0.121 A 
ATOM     18  C   UNL     1      -9.913 -10.724  19.947  0.00  0.00    +0.104 A 
ATOM     19  C   UNL     1     -10.143 -12.074  20.063  0.00  0.00    +0.130 A 
ATOM     26  H   UNL     1      -8.099  -9.766  19.383  0.00  0.00    +0.167 HD
ENDBRANCH  13  15
ENDBRANCH   4  13
ENDBRANCH  14   9
BRANCH  16  17
ATOM     17  C   UNL     1      -1.899 -11.638  12.948  0.00  0.00    +0.326 C 
BRANCH  17   3
ATOM      3  O   UNL     1      -1.853 -10.467  12.130  0.00  0.00    -0.483 OA
BRANCH   3  20
ATOM      1  F   UNL     1      -5.407 -10.263   7.942  0.00  0.00    -0.205 F 
ATOM     20  C   UNL     1      -2.736 -10.417  11.089  0.00  0.00    +0.121 A 
ATOM     21  C   UNL     1      -2.973  -9.208  10.434  0.00  0.00    +0.048 A 
ATOM     22  C   UNL     1      -3.401 -11.573  10.681  0.00  0.00    +0.048 A 
ATOM     23  C   UNL     1      -3.875  -9.156   9.371  0.00  0.00    +0.042 A 
ATOM     24  C   UNL     1      -4.303 -11.521   9.618  0.00  0.00    +0.042 A 
ATOM     25  C   UNL     1      -4.540 -10.313   8.963  0.00  0.00    +0.124 A 
ENDBRANCH   3  20
ENDBRANCH  17   3
ENDBRANCH  16  17
TORSDOF 6
ENDMDL
MODEL 3
REMARK VINA RESULT:      -6.5      2.062      2.956
REMARK  Name = 51137608
REMARK  6 active torsions:
REMARK  status: ('A' for Active; 'I' for Inactive)
REMARK    1  A    between atoms: O_3  and  C_17
REMARK    2  A    between atoms: O_3  and  C_20
REMARK    3  A    between atoms: N_4  and  C_13
REMARK    4  A    between atoms: C_9  and  C_14
REMARK    5  A    between atoms: C_13  and  C_15
REMARK    6  A    between atoms: C_16  and  C_17
REMARK                            x       y       z     vdW  Elec       q    Type
REMARK                         _______ _______ _______ _____ _____    ______ ____
ROOT
ATOM      2  O   UNL     1      15.400   7.790  20.830  0.00  0.00    -0.421 OA
ATOM      5  N   UNL     1      14.645   7.007  18.876  0.00  0.00    -0.112 NA
ATOM      8  N   UNL     1      15.797   6.314  19.197  0.00  0.00    -0.109 NA
ATOM     14  C   UNL     1      14.452   7.857  19.856  0.00  0.00    +0.222 A 
ATOM     16  C   UNL     1      16.204   6.804  20.345  0.00  0.00    +0.254 A 
ENDROOT
BRANCH  14   9
ATOM      4  N   UNL     1      11.562   9.443  21.457  0.00  0.00    -0.294 NA
ATOM      9  C   UNL     1      13.348   8.872  20.049  0.00  0.00    +0.092 C 
ATOM     10  C   UNL     1      12.018   8.518  19.362  0.00  0.00    +0.029 C 
ATOM     11  C   UNL     1      12.980   9.082  21.523  0.00  0.00    +0.097 C 
ATOM     12  C   UNL     1      10.984   8.519  20.480  0.00  0.00    +0.085 C 
BRANCH   4  13
ATOM     13  C   UNL     1      10.906   9.361  22.754  0.00  0.00    +0.158 C 
BRANCH  13  15
ATOM      6  N   UNL     1      10.597  11.846  22.790  0.00  0.00    -0.347 N 
ATOM      7  N   UNL     1      11.138  10.911  24.731  0.00  0.00    -0.239 NA
ATOM     15  C   UNL     1      10.889  10.691  23.459  0.00  0.00    +0.121 A 
ATOM     18  C   UNL     1      10.664  12.870  23.694  0.00  0.00    +0.104 A 
ATOM     19  C   UNL     1      10.998  12.268  24.883  0.00  0.00    +0.130 A 
ATOM     26  H   UNL     1      10.371  11.931  21.808  0.00  0.00    +0.167 HD
ENDBRANCH  13  15
ENDBRANCH   4  13
ENDBRANCH  14   9
BRANCH  16  17
ATOM     17  C   UNL     1      17.373   6.441  21.155  0.00  0.00    +0.326 C 
BRANCH  17   3
ATOM      3  O   UNL     1      18.477   7.293  20.842  0.00  0.00    -0.483 OA
BRANCH   3  20
ATOM      1  F   UNL     1      23.372   4.856  20.290  0.00  0.00    -0.205 F 
ATOM     20  C   UNL     1      19.694   6.688  20.704  0.00  0.00    +0.121 A 
ATOM     21  C   UNL     1      19.770   5.303  20.552  0.00  0.00    +0.048 A 
ATOM     22  C   UNL     1      20.860   7.453  20.717  0.00  0.00    +0.048 A 
ATOM     23  C   UNL     1      21.013   4.684  20.411  0.00  0.00    +0.042 A 
ATOM     24  C   UNL     1      22.102   6.835  20.577  0.00  0.00    +0.042 A 
ATOM     25  C   UNL     1      22.178   5.451  20.424  0.00  0.00    +0.124 A 
ENDBRANCH   3  20
ENDBRANCH  17   3
ENDBRANCH  16  17
TORSDOF 6
ENDMDL
MODEL 4
REMARK VINA RESULT:      -6.4      5.313     10.104
REMARK  Name = 51137608
REMARK  6 active torsions:
REMARK  status: ('A' for Active; 'I' for Inactive)
REMARK    1  A    between atoms: O_3  and  C_17
REMARK    2  A    between atoms: O_3  and  C_20
REMARK    3  A    between atoms: N_4  and  C_13
REMARK    4  A    between atoms: C_9  and  C_14
REMARK    5  A    between atoms: C_13  and  C_15
REMARK    6  A    between atoms: C_16  and  C_17
REMARK                            x       y       z     vdW  Elec       q    Type
REMARK                         _______ _______ _______ _____ _____    ______ ____
ROOT
ATOM      2  O   UNL     1      17.384   7.237  20.248  0.00  0.00    -0.421 OA
ATOM      5  N   UNL     1      17.941   5.405  19.092  0.00  0.00    -0.112 NA
ATOM      8  N   UNL     1      16.607   5.674  18.848  0.00  0.00    -0.109 NA
ATOM     14  C   UNL     1      18.353   6.342  19.913  0.00  0.00    +0.222 A 
ATOM     16  C   UNL     1      16.325   6.751  19.543  0.00  0.00    +0.254 A 
ENDROOT
BRANCH  14   9
ATOM      4  N   UNL     1      21.372   5.516  21.817  0.00  0.00    -0.294 NA
ATOM      9  C   UNL     1      19.720   6.558  20.521  0.00  0.00    +0.092 C 
ATOM     10  C   UNL     1      19.708   7.149  21.941  0.00  0.00    +0.029 C 
ATOM     11  C   UNL     1      20.531   5.262  20.646  0.00  0.00    +0.097 C 
ATOM     12  C   UNL     1      20.482   6.150  22.791  0.00  0.00    +0.085 C 
BRANCH   4  13
ATOM     13  C   UNL     1      21.985   4.301  22.335  0.00  0.00    +0.158 C 
BRANCH  13  15
ATOM      6  N   UNL     1      23.951   4.642  20.819  0.00  0.00    -0.347 N 
ATOM      7  N   UNL     1      23.307   2.536  21.109  0.00  0.00    -0.239 NA
ATOM     15  C   UNL     1      23.071   3.789  21.426  0.00  0.00    +0.121 A 
ATOM     18  C   UNL     1      24.803   3.882  20.067  0.00  0.00    +0.104 A 
ATOM     19  C   UNL     1      24.386   2.587  20.263  0.00  0.00    +0.130 A 
ATOM     26  H   UNL     1      23.970   5.649  20.910  0.00  0.00    +0.167 HD
ENDBRANCH  13  15
ENDBRANCH   4  13
ENDBRANCH  14   9
BRANCH  16  17
ATOM     17  C   UNL     1      15.058   7.486  19.658  0.00  0.00    +0.326 C 
BRANCH  17   3
ATOM      3  O   UNL     1      14.083   6.688  20.334  0.00  0.00    -0.483 OA
BRANCH   3  20
ATOM      1  F   UNL     1       9.884   9.383  22.638  0.00  0.00    -0.205 F 
ATOM     20  C   UNL     1      13.040   7.358  20.907  0.00  0.00    +0.121 A 
ATOM     21  C   UNL     1      11.833   6.698  21.144  0.00  0.00    +0.048 A 
ATOM     22  C   UNL     1      13.180   8.701  21.255  0.00  0.00    +0.048 A 
ATOM     23  C   UNL     1      10.767   7.382  21.729  0.00  0.00    +0.042 A 
ATOM     24  C   UNL     1      12.114   9.386  21.840  0.00  0.00    +0.042 A 
ATOM     25  C   UNL     1      10.908   8.726  22.077  0.00  0.00    +0.124 A 
ENDBRANCH   3  20
ENDBRANCH  17   3
ENDBRANCH  16  17
TORSDOF 6
ENDMDL
MODEL 5
REMARK VINA RESULT:      -6.4      5.339     10.049
REMARK  Name = 51137608
REMARK  6 active torsions:
REMARK  status: ('A' for Active; 'I' for Inactive)
REMARK    1  A    between atoms: O_3  and  C_17
REMARK    2  A    between atoms: O_3  and  C_20
REMARK    3  A    between atoms: N_4  and  C_13
REMARK    4  A    between atoms: C_9  and  C_14
REMARK    5  A    between atoms: C_13  and  C_15
REMARK    6  A    between atoms: C_16  and  C_17
REMARK                            x       y       z     vdW  Elec       q    Type
REMARK                         _______ _______ _______ _____ _____    ______ ____
ROOT
ATOM      2  O   UNL     1      17.112   6.880  20.815  0.00  0.00    -0.421 OA
ATOM      5  N   UNL     1      17.579   5.708  18.968  0.00  0.00    -0.112 NA
ATOM      8  N   UNL     1      16.206   5.858  19.043  0.00  0.00    -0.109 NA
ATOM     14  C   UNL     1      18.065   6.320  20.021  0.00  0.00    +0.222 A 
ATOM     16  C   UNL     1      15.980   6.548  20.136  0.00  0.00    +0.254 A 
ENDROOT
BRANCH  14   9
ATOM      4  N   UNL     1      21.256   5.378  21.558  0.00  0.00    -0.294 NA
ATOM      9  C   UNL     1      19.502   6.484  20.463  0.00  0.00    +0.092 C 
ATOM     10  C   UNL     1      19.680   7.073  21.873  0.00  0.00    +0.029 C 
ATOM     11  C   UNL     1      20.273   5.158  20.495  0.00  0.00    +0.097 C 
ATOM     12  C   UNL     1      20.512   6.044  22.628  0.00  0.00    +0.085 C 
BRANCH   4  13
ATOM     13  C   UNL     1      21.880   4.141  22.003  0.00  0.00    +0.158 C 
BRANCH  13  15
ATOM      6  N   UNL     1      23.322   2.790  20.463  0.00  0.00    -0.347 N 
ATOM      7  N   UNL     1      24.271   4.598  21.336  0.00  0.00    -0.239 NA
ATOM     15  C   UNL     1      23.175   3.875  21.282  0.00  0.00    +0.121 A 
ATOM     18  C   UNL     1      24.594   2.825  19.963  0.00  0.00    +0.104 A 
ATOM     19  C   UNL     1      25.159   3.949  20.516  0.00  0.00    +0.130 A 
ATOM     26  H   UNL     1      22.620   2.090  20.261  0.00  0.00    +0.167 HD
ENDBRANCH  13  15
ENDBRANCH   4  13
ENDBRANCH  14   9
BRANCH  16  17
ATOM     17  C   UNL     1      14.706   7.001  20.709  0.00  0.00    +0.326 C 
BRANCH  17   3
ATOM      3  O   UNL     1      14.473   8.373  20.379  0.00  0.00    -0.483 OA
BRANCH   3  20
ATOM      1  F   UNL     1      11.749   9.344  15.706  0.00  0.00    -0.205 F 
ATOM     20  C   UNL     1      13.797   8.614  19.218  0.00  0.00    +0.121 A 
ATOM     21  C   UNL     1      14.235   9.614  18.349  0.00  0.00    +0.048 A 
ATOM     22  C   UNL     1      12.666   7.861  18.899  0.00  0.00    +0.048 A 
ATOM     23  C   UNL     1      13.544   9.861  17.163  0.00  0.00    +0.042 A 
ATOM     24  C   UNL     1      11.975   8.107  17.713  0.00  0.00    +0.042 A 
ATOM     25  C   UNL     1      12.414   9.107  16.846  0.00  0.00    +0.124 A 
ENDBRANCH   3  20
ENDBRANCH  17   3
ENDBRANCH  16  17
TORSDOF 6
ENDMDL
MODEL 6
REMARK VINA RESULT:      -6.4     26.429     28.245
REMARK  Name = 51137608
REMARK  6 active torsions:
REMARK  status: ('A' for Active; 'I' for Inactive)
REMARK    1  A    between atoms: O_3  and  C_17
REMARK    2  A    between atoms: O_3  and  C_20
REMARK    3  A    between atoms: N_4  and  C_13
REMARK    4  A    between atoms: C_9  and  C_14
REMARK    5  A    between atoms: C_13  and  C_15
REMARK    6  A    between atoms: C_16  and  C_17
REMARK                            x       y       z     vdW  Elec       q    Type
REMARK                         _______ _______ _______ _____ _____    ______ ____
ROOT
ATOM      2  O   UNL     1      -3.287 -10.928  14.315  0.00  0.00    -0.421 OA
ATOM      5  N   UNL     1      -2.063 -10.474  16.131  0.00  0.00    -0.112 NA
ATOM      8  N   UNL     1      -1.299 -10.180  15.017  0.00  0.00    -0.109 NA
ATOM     14  C   UNL     1      -3.214 -10.906  15.673  0.00  0.00    +0.222 A 
ATOM     16  C   UNL     1      -2.053 -10.461  13.980  0.00  0.00    +0.254 A 
ENDROOT
BRANCH  14   9
ATOM      4  N   UNL     1      -6.403 -10.599  17.452  0.00  0.00    -0.294 NA
ATOM      9  C   UNL     1      -4.439 -11.370  16.429  0.00  0.00    +0.092 C 
ATOM     10  C   UNL     1      -4.275 -11.417  17.957  0.00  0.00    +0.029 C 
ATOM     11  C   UNL     1      -5.661 -10.471  16.197  0.00  0.00    +0.097 C 
ATOM     12  C   UNL     1      -5.386 -10.527  18.501  0.00  0.00    +0.085 C 
BRANCH   4  13
ATOM     13  C   UNL     1      -7.426  -9.575  17.601  0.00  0.00    +0.158 C 
BRANCH  13  15
ATOM      6  N   UNL     1      -8.560  -8.906  15.469  0.00  0.00    -0.347 N 
ATOM      7  N   UNL     1      -9.508 -10.575  16.586  0.00  0.00    -0.239 NA
ATOM     15  C   UNL     1      -8.515  -9.715  16.570  0.00  0.00    +0.121 A 
ATOM     18  C   UNL     1      -9.652  -9.276  14.735  0.00  0.00    +0.104 A 
ATOM     19  C   UNL     1     -10.220 -10.307  15.443  0.00  0.00    +0.130 A 
ATOM     26  H   UNL     1      -7.905  -8.170  15.237  0.00  0.00    +0.167 HD
ENDBRANCH  13  15
ENDBRANCH   4  13
ENDBRANCH  14   9
BRANCH  16  17
ATOM     17  C   UNL     1      -1.756 -10.340  12.547  0.00  0.00    +0.326 C 
BRANCH  17   3
ATOM      3  O   UNL     1      -2.501 -11.307  11.802  0.00  0.00    -0.483 OA
BRANCH   3  20
ATOM      1  F   UNL     1      -5.319  -9.428   7.475  0.00  0.00    -0.205 F 
ATOM     20  C   UNL     1      -3.202 -10.840  10.727  0.00  0.00    +0.121 A 
ATOM     21  C   UNL     1      -3.884 -11.732   9.898  0.00  0.00    +0.048 A 
ATOM     22  C   UNL     1      -3.235  -9.472  10.456  0.00  0.00    +0.048 A 
ATOM     23  C   UNL     1      -4.600 -11.255   8.800  0.00  0.00    +0.042 A 
ATOM     24  C   UNL     1      -3.950  -8.995   9.358  0.00  0.00    +0.042 A 
ATOM     25  C   UNL     1      -4.632  -9.886   8.530  0.00  0.00    +0.124 A 
ENDBRANCH   3  20
ENDBRANCH  17   3
ENDBRANCH  16  17
TORSDOF 6
ENDMDL
MODEL 7
REMARK VINA RESULT:      -6.4     27.006     29.671
REMARK  Name = 51137608
REMARK  6 active torsions:
REMARK  status: ('A' for Active; 'I' for Inactive)
REMARK    1  A    between atoms: O_3  and  C_17
REMARK    2  A    between atoms: O_3  and  C_20
REMARK    3  A    between atoms: N_4  and  C_13
REMARK    4  A    between atoms: C_9  and  C_14
REMARK    5  A    between atoms: C_13  and  C_15
REMARK    6  A    between atoms: C_16  and  C_17
REMARK                            x       y       z     vdW  Elec       q    Type
REMARK                         _______ _______ _______ _____ _____    ______ ____
ROOT
ATOM      2  O   UNL     1     -16.115   4.546  24.894  0.00  0.00    -0.421 OA
ATOM      5  N   UNL     1     -16.363   2.432  24.209  0.00  0.00    -0.112 NA
ATOM      8  N   UNL     1     -15.916   3.179  23.135  0.00  0.00    -0.109 NA
ATOM     14  C   UNL     1     -16.465   3.270  25.213  0.00  0.00    +0.222 A 
ATOM     16  C   UNL     1     -15.785   4.406  23.581  0.00  0.00    +0.254 A 
ENDROOT
BRANCH  14   9
ATOM      4  N   UNL     1     -16.315   1.877  28.598  0.00  0.00    -0.294 NA
ATOM      9  C   UNL     1     -16.904   3.020  26.637  0.00  0.00    +0.092 C 
ATOM     10  C   UNL     1     -17.830   1.806  26.823  0.00  0.00    +0.029 C 
ATOM     11  C   UNL     1     -15.729   2.761  27.589  0.00  0.00    +0.097 C 
ATOM     12  C   UNL     1     -17.121   0.920  27.839  0.00  0.00    +0.085 C 
BRANCH   4  13
ATOM     13  C   UNL     1     -15.306   1.224  29.419  0.00  0.00    +0.158 C 
BRANCH  13  15
ATOM      6  N   UNL     1     -13.310   2.403  30.370  0.00  0.00    -0.347 N 
ATOM      7  N   UNL     1     -15.261   2.895  31.310  0.00  0.00    -0.239 NA
ATOM     15  C   UNL     1     -14.659   2.183  30.383  0.00  0.00    +0.121 A 
ATOM     18  C   UNL     1     -13.034   3.313  31.351  0.00  0.00    +0.104 A 
ATOM     19  C   UNL     1     -14.254   3.602  31.916  0.00  0.00    +0.130 A 
ATOM     26  H   UNL     1     -12.638   1.973  29.748  0.00  0.00    +0.167 HD
ENDBRANCH  13  15
ENDBRANCH   4  13
ENDBRANCH  14   9
BRANCH  16  17
ATOM     17  C   UNL     1     -15.341   5.615  22.876  0.00  0.00    +0.326 C 
BRANCH  17   3
ATOM      3  O   UNL     1     -14.214   5.320  22.047  0.00  0.00    -0.483 OA
BRANCH   3  20
ATOM      1  F   UNL     1     -11.401   9.626  20.110  0.00  0.00    -0.205 F 
ATOM     20  C   UNL     1     -13.515   6.390  21.565  0.00  0.00    +0.121 A 
ATOM     21  C   UNL     1     -12.199   6.226  21.133  0.00  0.00    +0.048 A 
ATOM     22  C   UNL     1     -14.117   7.647  21.505  0.00  0.00    +0.048 A 
ATOM     23  C   UNL     1     -11.485   7.319  20.641  0.00  0.00    +0.042 A 
ATOM     24  C   UNL     1     -13.403   8.740  21.014  0.00  0.00    +0.042 A 
ATOM     25  C   UNL     1     -12.088   8.576  20.582  0.00  0.00    +0.124 A 
ENDBRANCH   3  20
ENDBRANCH  17   3
ENDBRANCH  16  17
TORSDOF 6
ENDMDL
MODEL 8
REMARK VINA RESULT:      -6.2     27.201     28.786
REMARK  Name = 51137608
REMARK  6 active torsions:
REMARK  status: ('A' for Active; 'I' for Inactive)
REMARK    1  A    between atoms: O_3  and  C_17
REMARK    2  A    between atoms: O_3  and  C_20
REMARK    3  A    between atoms: N_4  and  C_13
REMARK    4  A    between atoms: C_9  and  C_14
REMARK    5  A    between atoms: C_13  and  C_15
REMARK    6  A    between atoms: C_16  and  C_17
REMARK                            x       y       z     vdW  Elec       q    Type
REMARK                         _______ _______ _______ _____ _____    ______ ____
ROOT
ATOM      2  O   UNL     1      -3.949 -10.317  12.151  0.00  0.00    -0.421 OA
ATOM      5  N   UNL     1      -1.869  -9.872  11.461  0.00  0.00    -0.112 NA
ATOM      8  N   UNL     1      -1.791 -10.414  12.731  0.00  0.00    -0.109 NA
ATOM     14  C   UNL     1      -3.146  -9.835  11.164  0.00  0.00    +0.222 A 
ATOM     16  C   UNL     1      -3.028 -10.658  13.094  0.00  0.00    +0.254 A 
ENDROOT
BRANCH  14   9
ATOM      4  N   UNL     1      -5.914  -8.699   9.048  0.00  0.00    -0.294 NA
ATOM      9  C   UNL     1      -3.830  -9.345   9.908  0.00  0.00    +0.092 C 
ATOM     10  C   UNL     1      -4.376 -10.456   8.995  0.00  0.00    +0.029 C 
ATOM     11  C   UNL     1      -5.041  -8.449  10.198  0.00  0.00    +0.097 C 
ATOM     12  C   UNL     1      -5.860 -10.146   8.842  0.00  0.00    +0.085 C 
BRANCH   4  13
ATOM     13  C   UNL     1      -7.271  -8.219   9.266  0.00  0.00    +0.158 C 
BRANCH  13  15
ATOM      6  N   UNL     1      -7.625  -7.223   6.995  0.00  0.00    -0.347 N 
ATOM      7  N   UNL     1      -9.123  -8.734   7.631  0.00  0.00    -0.239 NA
ATOM     15  C   UNL     1      -8.032  -8.085   7.974  0.00  0.00    +0.121 A 
ATOM     18  C   UNL     1      -8.512  -7.329   5.960  0.00  0.00    +0.104 A 
ATOM     19  C   UNL     1      -9.427  -8.267   6.377  0.00  0.00    +0.130 A 
ATOM     26  H   UNL     1      -6.814  -6.618   7.026  0.00  0.00    +0.167 HD
ENDBRANCH  13  15
ENDBRANCH   4  13
ENDBRANCH  14   9
BRANCH  16  17
ATOM     17  C   UNL     1      -3.540 -11.235  14.343  0.00  0.00    +0.326 C 
BRANCH  17   3
ATOM      3  O   UNL     1      -4.517 -10.369  14.926  0.00  0.00    -0.483 OA
BRANCH   3  20
ATOM      1  F   UNL     1      -5.710 -11.235  20.220  0.00  0.00    -0.205 F 
ATOM     20  C   UNL     1      -4.813 -10.584  16.242  0.00  0.00    +0.121 A 
ATOM     21  C   UNL     1      -3.921 -11.286  17.053  0.00  0.00    +0.048 A 
ATOM     22  C   UNL     1      -6.009 -10.102  16.776  0.00  0.00    +0.048 A 
ATOM     23  C   UNL     1      -4.223 -11.506  18.396  0.00  0.00    +0.042 A 
ATOM     24  C   UNL     1      -6.311 -10.322  18.120  0.00  0.00    +0.042 A 
ATOM     25  C   UNL     1      -5.419 -11.023  18.929  0.00  0.00    +0.124 A 
ENDBRANCH   3  20
ENDBRANCH  17   3
ENDBRANCH  16  17
TORSDOF 6
ENDMDL
MODEL 9
REMARK VINA RESULT:      -6.1     26.960     29.738
REMARK  Name = 51137608
REMARK  6 active torsions:
REMARK  status: ('A' for Active; 'I' for Inactive)
REMARK    1  A    between atoms: O_3  and  C_17
REMARK    2  A    between atoms: O_3  and  C_20
REMARK    3  A    between atoms: N_4  and  C_13
REMARK    4  A    between atoms: C_9  and  C_14
REMARK    5  A    between atoms: C_13  and  C_15
REMARK    6  A    between atoms: C_16  and  C_17
REMARK                            x       y       z     vdW  Elec       q    Type
REMARK                         _______ _______ _______ _____ _____    ______ ____
ROOT
ATOM      2  O   UNL     1     -15.783   4.425  24.797  0.00  0.00    -0.421 OA
ATOM      5  N   UNL     1     -16.151   2.724  23.392  0.00  0.00    -0.112 NA
ATOM      8  N   UNL     1     -16.273   2.245  24.683  0.00  0.00    -0.109 NA
ATOM     14  C   UNL     1     -15.865   4.000  23.507  0.00  0.00    +0.222 A 
ATOM     16  C   UNL     1     -16.049   3.272  25.470  0.00  0.00    +0.254 A 
ENDROOT
BRANCH  14   9
ATOM      4  N   UNL     1     -13.957   6.384  21.483  0.00  0.00    -0.294 NA
ATOM      9  C   UNL     1     -15.623   5.034  22.432  0.00  0.00    +0.092 C 
ATOM     10  C   UNL     1     -15.823   6.492  22.882  0.00  0.00    +0.029 C 
ATOM     11  C   UNL     1     -14.194   4.993  21.874  0.00  0.00    +0.097 C 
ATOM     12  C   UNL     1     -14.499   7.182  22.582  0.00  0.00    +0.085 C 
BRANCH   4  13
ATOM     13  C   UNL     1     -12.548   6.660  21.239  0.00  0.00    +0.158 C 
BRANCH  13  15
ATOM      6  N   UNL     1     -11.132   7.965  19.636  0.00  0.00    -0.347 N 
ATOM      7  N   UNL     1     -13.226   7.596  18.995  0.00  0.00    -0.239 NA
ATOM     15  C   UNL     1     -12.338   7.400  19.944  0.00  0.00    +0.121 A 
ATOM     18  C   UNL     1     -11.259   8.558  18.411  0.00  0.00    +0.104 A 
ATOM     19  C   UNL     1     -12.559   8.316  18.036  0.00  0.00    +0.130 A 
ATOM     26  H   UNL     1     -10.297   7.946  20.207  0.00  0.00    +0.167 HD
ENDBRANCH  13  15
ENDBRANCH   4  13
ENDBRANCH  14   9
BRANCH  16  17
ATOM     17  C   UNL     1     -16.051   3.344  26.937  0.00  0.00    +0.326 C 
BRANCH  17   3
ATOM      3  O   UNL     1     -16.218   2.039  27.497  0.00  0.00    -0.483 OA
BRANCH   3  20
ATOM      1  F   UNL     1     -14.366   1.318  32.621  0.00  0.00    -0.205 F 
ATOM     20  C   UNL     1     -15.757   1.860  28.770  0.00  0.00    +0.121 A 
ATOM     21  C   UNL     1     -15.788   0.592  29.352  0.00  0.00    +0.048 A 
ATOM     22  C   UNL     1     -15.255   2.945  29.491  0.00  0.00    +0.048 A 
ATOM     23  C   UNL     1     -15.319   0.409  30.652  0.00  0.00    +0.042 A 
ATOM     24  C   UNL     1     -14.786   2.762  30.791  0.00  0.00    +0.042 A 
ATOM     25  C   UNL     1     -14.817   1.494  31.371  0.00  0.00    +0.124 A 
ENDBRANCH   3  20
ENDBRANCH  17   3
ENDBRANCH  16  17
TORSDOF 6
ENDMDL
MODEL 10
REMARK VINA RESULT:      -6.0     12.996     14.468
REMARK  Name = 51137608
REMARK  6 active torsions:
REMARK  status: ('A' for Active; 'I' for Inactive)
REMARK    1  A    between atoms: O_3  and  C_17
REMARK    2  A    between atoms: O_3  and  C_20
REMARK    3  A    between atoms: N_4  and  C_13
REMARK    4  A    between atoms: C_9  and  C_14
REMARK    5  A    between atoms: C_13  and  C_15
REMARK    6  A    between atoms: C_16  and  C_17
REMARK                            x       y       z     vdW  Elec       q    Type
REMARK                         _______ _______ _______ _____ _____    ______ ____
ROOT
ATOM      2  O   UNL     1      18.157  -3.083  27.788  0.00  0.00    -0.421 OA
ATOM      5  N   UNL     1      18.290  -4.556  29.467  0.00  0.00    -0.112 NA
ATOM      8  N   UNL     1      19.064  -5.027  28.423  0.00  0.00    -0.109 NA
ATOM     14  C   UNL     1      17.780  -3.420  29.052  0.00  0.00    +0.222 A 
ATOM     16  C   UNL     1      18.957  -4.136  27.465  0.00  0.00    +0.254 A 
ENDROOT
BRANCH  14   9
ATOM      4  N   UNL     1      16.666  -1.145  31.700  0.00  0.00    -0.294 NA
ATOM      9  C   UNL     1      16.858  -2.459  29.766  0.00  0.00    +0.092 C 
ATOM     10  C   UNL     1      15.867  -3.119  30.740  0.00  0.00    +0.029 C 
ATOM     11  C   UNL     1      17.611  -1.428  30.618  0.00  0.00    +0.097 C 
ATOM     12  C   UNL     1      16.131  -2.452  32.084  0.00  0.00    +0.085 C 
BRANCH   4  13
ATOM     13  C   UNL     1      17.290  -0.451  32.817  0.00  0.00    +0.158 C 
BRANCH  13  15
ATOM      6  N   UNL     1      16.835   1.785  31.782  0.00  0.00    -0.347 N 
ATOM      7  N   UNL     1      16.472   1.640  33.968  0.00  0.00    -0.239 NA
ATOM     15  C   UNL     1      16.858   0.990  32.893  0.00  0.00    +0.121 A 
ATOM     18  C   UNL     1      16.406   3.022  32.173  0.00  0.00    +0.104 A 
ATOM     19  C   UNL     1      16.187   2.908  33.525  0.00  0.00    +0.130 A 
ATOM     26  H   UNL     1      17.088   1.510  30.841  0.00  0.00    +0.167 HD
ENDBRANCH  13  15
ENDBRANCH   4  13
ENDBRANCH  14   9
BRANCH  16  17
ATOM     17  C   UNL     1      19.569  -4.120  26.130  0.00  0.00    +0.326 C 
BRANCH  17   3
ATOM      3  O   UNL     1      18.655  -4.639  25.160  0.00  0.00    -0.483 OA
BRANCH   3  20
ATOM      1  F   UNL     1      15.773  -0.942  22.291  0.00  0.00    -0.205 F 
ATOM     20  C   UNL     1      17.939  -3.721  24.447  0.00  0.00    +0.121 A 
ATOM     21  C   UNL     1      18.601  -2.789  23.646  0.00  0.00    +0.048 A 
ATOM     22  C   UNL     1      16.546  -3.713  24.519  0.00  0.00    +0.048 A 
ATOM     23  C   UNL     1      17.869  -1.851  22.918  0.00  0.00    +0.042 A 
ATOM     24  C   UNL     1      15.814  -2.775  23.790  0.00  0.00    +0.042 A 
ATOM     25  C   UNL     1      16.476  -1.844  22.990  0.00  0.00    +0.124 A 
ENDBRANCH   3  20
ENDBRANCH  17   3
ENDBRANCH  16  17
TORSDOF 6
ENDMDL
