MODEL 1
REMARK VINA RESULT:      -6.5      0.000      0.000
REMARK  Name = 26742985
REMARK  8 active torsions:
REMARK  status: ('A' for Active; 'I' for Inactive)
REMARK    1  A    between atoms: C_7  and  C_11
REMARK    2  A    between atoms: C_8  and  C_12
REMARK    3  A    between atoms: C_11  and  C_14
REMARK    4  A    between atoms: C_12  and  C_15
REMARK    5  A    between atoms: C_21  and  C_22
REMARK    6  A    between atoms: C_22  and  C_23
REMARK    7  A    between atoms: C_23  and  C_24
REMARK    8  A    between atoms: C_24  and  C_25
REMARK                            x       y       z     vdW  Elec       q    Type
REMARK                         _______ _______ _______ _____ _____    ______ ____
ROOT
ATOM      4  N   UNL     1      11.718   6.104  20.707  0.00  0.00    -0.316 NA
ATOM      7  C   UNL     1      11.967   8.952  19.976  0.00  0.00    +0.004 C 
ATOM      8  C   UNL     1      12.684   7.823  19.197  0.00  0.00    +0.012 C 
ATOM      9  C   UNL     1      10.732   8.369  20.681  0.00  0.00    +0.019 C 
ATOM     10  C   UNL     1      12.948   6.598  20.089  0.00  0.00    +0.085 C 
ATOM     13  C   UNL     1      11.065   7.133  21.515  0.00  0.00    +0.081 C 
ATOM     26  H   UNL     1      11.934   5.301  21.295  0.00  0.00    +0.122 HD
ENDROOT
BRANCH   7  11
ATOM     11  C   UNL     1      12.867   9.691  20.973  0.00  0.00    +0.100 C 
BRANCH  11  14
ATOM      1  O   UNL     1      12.797  11.768  19.832  0.00  0.00    -0.276 OA
ATOM      2  O   UNL     1      10.606  12.938  24.109  0.00  0.00    -0.377 OA
ATOM      5  N   UNL     1      12.175  11.790  22.069  0.00  0.00    -0.297 N 
ATOM     14  C   UNL     1      12.613  11.175  20.899  0.00  0.00    +0.216 C 
ATOM     16  C   UNL     1      11.900  13.227  22.083  0.00  0.00    +0.136 C 
ATOM     17  C   UNL     1      12.068  11.145  23.382  0.00  0.00    +0.136 C 
ATOM     19  C   UNL     1      10.587  13.509  22.797  0.00  0.00    +0.179 C 
ATOM     20  C   UNL     1      10.750  11.517  24.047  0.00  0.00    +0.179 C 
ENDBRANCH  11  14
ENDBRANCH   7  11
BRANCH   8  12
ATOM     12  C   UNL     1      13.976   8.286  18.524  0.00  0.00    +0.064 C 
BRANCH  12  15
ATOM      3  O   UNL     1      16.683   6.014  19.217  0.00  0.00    -0.359 OA
ATOM      6  N   UNL     1      15.577   6.423  18.481  0.00  0.00    -0.083 NA
ATOM     15  C   UNL     1      15.169   7.552  19.065  0.00  0.00    +0.084 A 
ATOM     18  C   UNL     1      15.969   7.902  20.167  0.00  0.00    +0.071 A 
ATOM     21  C   UNL     1      16.906   6.903  20.219  0.00  0.00    +0.138 A 
BRANCH  21  22
ATOM     22  C   UNL     1      18.045   6.624  21.101  0.00  0.00    +0.077 C 
BRANCH  22  23
ATOM     23  C   UNL     1      19.209   5.908  20.378  0.00  0.00    +0.007 C 
BRANCH  23  24
ATOM     24  C   UNL     1      20.503   5.925  21.190  0.00  0.00    -0.003 C 
ATOM     25  C   UNL     1      20.263   6.414  22.610  0.00  0.00    +0.004 C 
ENDBRANCH  23  24
ENDBRANCH  22  23
ENDBRANCH  21  22
ENDBRANCH  12  15
ENDBRANCH   8  12
TORSDOF 7
ENDMDL
MODEL 2
REMARK VINA RESULT:      -6.4      3.461      4.460
REMARK  Name = 26742985
REMARK  8 active torsions:
REMARK  status: ('A' for Active; 'I' for Inactive)
REMARK    1  A    between atoms: C_7  and  C_11
REMARK    2  A    between atoms: C_8  and  C_12
REMARK    3  A    between atoms: C_11  and  C_14
REMARK    4  A    between atoms: C_12  and  C_15
REMARK    5  A    between atoms: C_21  and  C_22
REMARK    6  A    between atoms: C_22  and  C_23
REMARK    7  A    between atoms: C_23  and  C_24
REMARK    8  A    between atoms: C_24  and  C_25
REMARK                            x       y       z     vdW  Elec       q    Type
REMARK                         _______ _______ _______ _____ _____    ______ ____
ROOT
ATOM      4  N   UNL     1      12.753   6.943  21.913  0.00  0.00    -0.316 NA
ATOM      7  C   UNL     1      13.712   7.343  19.152  0.00  0.00    +0.004 C 
ATOM      8  C   UNL     1      14.666   7.296  20.369  0.00  0.00    +0.012 C 
ATOM      9  C   UNL     1      12.425   6.575  19.492  0.00  0.00    +0.019 C 
ATOM     10  C   UNL     1      13.958   7.734  21.662  0.00  0.00    +0.085 C 
ATOM     13  C   UNL     1      11.801   7.038  20.808  0.00  0.00    +0.081 C 
ATOM     26  H   UNL     1      12.308   7.268  22.770  0.00  0.00    +0.122 HD
ENDROOT
BRANCH   7  11
ATOM     11  C   UNL     1      13.391   8.761  18.666  0.00  0.00    +0.100 C 
BRANCH  11  14
ATOM      1  O   UNL     1      13.487   7.968  16.433  0.00  0.00    -0.276 OA
ATOM      2  O   UNL     1      14.802  12.698  15.838  0.00  0.00    -0.377 OA
ATOM      5  N   UNL     1      14.326  10.099  16.816  0.00  0.00    -0.297 N 
ATOM     14  C   UNL     1      13.737   8.899  17.204  0.00  0.00    +0.216 C 
ATOM     16  C   UNL     1      14.690  10.317  15.416  0.00  0.00    +0.136 C 
ATOM     17  C   UNL     1      14.752  11.171  17.722  0.00  0.00    +0.136 C 
ATOM     19  C   UNL     1      14.257  11.705  14.965  0.00  0.00    +0.179 C 
ATOM     20  C   UNL     1      14.323  12.526  17.174  0.00  0.00    +0.179 C 
ENDBRANCH  11  14
ENDBRANCH   7  11
BRANCH   8  12
ATOM     12  C   UNL     1      15.948   8.102  20.158  0.00  0.00    +0.064 C 
BRANCH  12  15
ATOM      3  O   UNL     1      18.438   5.565  19.588  0.00  0.00    -0.359 OA
ATOM      6  N   UNL     1      17.201   6.151  19.347  0.00  0.00    -0.083 NA
ATOM     15  C   UNL     1      17.158   7.215  20.153  0.00  0.00    +0.084 A 
ATOM     18  C   UNL     1      18.328   7.348  20.923  0.00  0.00    +0.071 A 
ATOM     21  C   UNL     1      19.099   6.286  20.529  0.00  0.00    +0.138 A 
BRANCH  21  22
ATOM     22  C   UNL     1      20.433   5.805  20.907  0.00  0.00    +0.077 C 
BRANCH  22  23
ATOM     23  C   UNL     1      20.696   4.346  20.466  0.00  0.00    +0.007 C 
BRANCH  23  24
ATOM     24  C   UNL     1      21.536   3.569  21.479  0.00  0.00    -0.003 C 
ATOM     25  C   UNL     1      22.166   4.496  22.508  0.00  0.00    +0.004 C 
ENDBRANCH  23  24
ENDBRANCH  22  23
ENDBRANCH  21  22
ENDBRANCH  12  15
ENDBRANCH   8  12
TORSDOF 7
ENDMDL
MODEL 3
REMARK VINA RESULT:      -6.1      3.429      4.798
REMARK  Name = 26742985
REMARK  8 active torsions:
REMARK  status: ('A' for Active; 'I' for Inactive)
REMARK    1  A    between atoms: C_7  and  C_11
REMARK    2  A    between atoms: C_8  and  C_12
REMARK    3  A    between atoms: C_11  and  C_14
REMARK    4  A    between atoms: C_12  and  C_15
REMARK    5  A    between atoms: C_21  and  C_22
REMARK    6  A    between atoms: C_22  and  C_23
REMARK    7  A    between atoms: C_23  and  C_24
REMARK    8  A    between atoms: C_24  and  C_25
REMARK                            x       y       z     vdW  Elec       q    Type
REMARK                         _______ _______ _______ _____ _____    ______ ____
ROOT
ATOM      4  N   UNL     1      13.589   6.204  20.843  0.00  0.00    -0.316 NA
ATOM      7  C   UNL     1      14.790   8.237  19.074  0.00  0.00    +0.004 C 
ATOM      8  C   UNL     1      15.595   7.505  20.174  0.00  0.00    +0.012 C 
ATOM      9  C   UNL     1      13.595   7.362  18.661  0.00  0.00    +0.019 C 
ATOM     10  C   UNL     1      14.689   7.039  21.326  0.00  0.00    +0.085 C 
ATOM     13  C   UNL     1      12.765   6.905  19.861  0.00  0.00    +0.081 C 
ATOM     26  H   UNL     1      13.007   5.923  21.631  0.00  0.00    +0.122 HD
ENDROOT
BRANCH   7  11
ATOM     11  C   UNL     1      14.326   9.643  19.470  0.00  0.00    +0.100 C 
BRANCH  11  14
ATOM      1  O   UNL     1      15.867  11.295  18.751  0.00  0.00    -0.276 OA
ATOM      2  O   UNL     1      13.177  10.631  14.654  0.00  0.00    -0.377 OA
ATOM      5  N   UNL     1      14.118  10.807  17.304  0.00  0.00    -0.297 N 
ATOM     14  C   UNL     1      14.845  10.658  18.483  0.00  0.00    +0.216 C 
ATOM     16  C   UNL     1      14.554  11.767  16.290  0.00  0.00    +0.136 C 
ATOM     17  C   UNL     1      12.834  10.162  17.009  0.00  0.00    +0.136 C 
ATOM     19  C   UNL     1      14.490  11.140  14.905  0.00  0.00    +0.179 C 
ATOM     20  C   UNL     1      12.836   9.607  15.591  0.00  0.00    +0.179 C 
ENDBRANCH  11  14
ENDBRANCH   7  11
BRANCH   8  12
ATOM     12  C   UNL     1      16.764   8.332  20.711  0.00  0.00    +0.064 C 
BRANCH  12  15
ATOM      3  O   UNL     1      19.883   6.840  21.715  0.00  0.00    -0.359 OA
ATOM      6  N   UNL     1      18.890   7.806  21.824  0.00  0.00    -0.083 NA
ATOM     15  C   UNL     1      17.995   7.491  20.885  0.00  0.00    +0.084 A 
ATOM     18  C   UNL     1      18.367   6.347  20.156  0.00  0.00    +0.071 A 
ATOM     21  C   UNL     1      19.560   5.977  20.718  0.00  0.00    +0.138 A 
BRANCH  21  22
ATOM     22  C   UNL     1      20.507   4.885  20.464  0.00  0.00    +0.077 C 
BRANCH  22  23
ATOM     23  C   UNL     1      21.507   4.669  21.624  0.00  0.00    +0.007 C 
BRANCH  23  24
ATOM     24  C   UNL     1      21.993   3.224  21.718  0.00  0.00    -0.003 C 
ATOM     25  C   UNL     1      22.543   2.910  23.102  0.00  0.00    +0.004 C 
ENDBRANCH  23  24
ENDBRANCH  22  23
ENDBRANCH  21  22
ENDBRANCH  12  15
ENDBRANCH   8  12
TORSDOF 7
ENDMDL
MODEL 4
REMARK VINA RESULT:      -6.0     26.884     28.488
REMARK  Name = 26742985
REMARK  8 active torsions:
REMARK  status: ('A' for Active; 'I' for Inactive)
REMARK    1  A    between atoms: C_7  and  C_11
REMARK    2  A    between atoms: C_8  and  C_12
REMARK    3  A    between atoms: C_11  and  C_14
REMARK    4  A    between atoms: C_12  and  C_15
REMARK    5  A    between atoms: C_21  and  C_22
REMARK    6  A    between atoms: C_22  and  C_23
REMARK    7  A    between atoms: C_23  and  C_24
REMARK    8  A    between atoms: C_24  and  C_25
REMARK                            x       y       z     vdW  Elec       q    Type
REMARK                         _______ _______ _______ _____ _____    ______ ____
ROOT
ATOM      4  N   UNL     1      -5.310 -12.676  18.941  0.00  0.00    -0.316 NA
ATOM      7  C   UNL     1      -5.758 -11.453  16.294  0.00  0.00    +0.004 C 
ATOM      8  C   UNL     1      -4.345 -11.676  16.883  0.00  0.00    +0.012 C 
ATOM      9  C   UNL     1      -6.733 -12.454  16.934  0.00  0.00    +0.019 C 
ATOM     10  C   UNL     1      -4.366 -11.687  18.421  0.00  0.00    +0.085 C 
ATOM     13  C   UNL     1      -6.669 -12.435  18.461  0.00  0.00    +0.081 C 
ATOM     26  H   UNL     1      -5.302 -12.647  19.959  0.00  0.00    +0.122 HD
ENDROOT
BRANCH   7  11
ATOM     11  C   UNL     1      -6.276 -10.017  16.440  0.00  0.00    +0.100 C 
BRANCH  11  14
ATOM      1  O   UNL     1      -7.196 -10.012  14.255  0.00  0.00    -0.276 OA
ATOM      2  O   UNL     1     -11.181  -8.953  16.986  0.00  0.00    -0.377 OA
ATOM      5  N   UNL     1      -8.573  -9.252  15.964  0.00  0.00    -0.297 N 
ATOM     14  C   UNL     1      -7.383  -9.762  15.449  0.00  0.00    +0.216 C 
ATOM     16  C   UNL     1      -9.699  -8.979  15.071  0.00  0.00    +0.136 C 
ATOM     17  C   UNL     1      -8.786  -8.824  17.350  0.00  0.00    +0.136 C 
ATOM     19  C   UNL     1     -10.994  -9.500  15.678  0.00  0.00    +0.179 C 
ATOM     20  C   UNL     1     -10.123  -9.346  17.863  0.00  0.00    +0.179 C 
ENDBRANCH  11  14
ENDBRANCH   7  11
BRANCH   8  12
ATOM     12  C   UNL     1      -3.315 -10.671  16.367  0.00  0.00    +0.064 C 
BRANCH  12  15
ATOM      3  O   UNL     1      -1.836 -11.763  13.270  0.00  0.00    -0.359 OA
ATOM      6  N   UNL     1      -1.886 -11.708  14.658  0.00  0.00    -0.083 NA
ATOM     15  C   UNL     1      -2.948 -10.949  14.937  0.00  0.00    +0.084 A 
ATOM     18  C   UNL     1      -3.602 -10.498  13.777  0.00  0.00    +0.071 A 
ATOM     21  C   UNL     1      -2.863 -11.038  12.757  0.00  0.00    +0.138 A 
BRANCH  21  22
ATOM     22  C   UNL     1      -2.963 -10.988  11.294  0.00  0.00    +0.077 C 
BRANCH  22  23
ATOM     23  C   UNL     1      -2.651  -9.589  10.714  0.00  0.00    +0.007 C 
BRANCH  23  24
ATOM     24  C   UNL     1      -3.687  -9.136   9.686  0.00  0.00    -0.003 C 
ATOM     25  C   UNL     1      -4.868  -8.445  10.351  0.00  0.00    +0.004 C 
ENDBRANCH  23  24
ENDBRANCH  22  23
ENDBRANCH  21  22
ENDBRANCH  12  15
ENDBRANCH   8  12
TORSDOF 7
ENDMDL
MODEL 5
REMARK VINA RESULT:      -6.0     18.972     22.124
REMARK  Name = 26742985
REMARK  8 active torsions:
REMARK  status: ('A' for Active; 'I' for Inactive)
REMARK    1  A    between atoms: C_7  and  C_11
REMARK    2  A    between atoms: C_8  and  C_12
REMARK    3  A    between atoms: C_11  and  C_14
REMARK    4  A    between atoms: C_12  and  C_15
REMARK    5  A    between atoms: C_21  and  C_22
REMARK    6  A    between atoms: C_22  and  C_23
REMARK    7  A    between atoms: C_23  and  C_24
REMARK    8  A    between atoms: C_24  and  C_25
REMARK                            x       y       z     vdW  Elec       q    Type
REMARK                         _______ _______ _______ _____ _____    ______ ____
ROOT
ATOM      4  N   UNL     1      15.620   4.167   1.149  0.00  0.00    -0.316 NA
ATOM      7  C   UNL     1      12.985   4.510  -0.133  0.00  0.00    +0.004 C 
ATOM      8  C   UNL     1      13.150   4.264   1.386  0.00  0.00    +0.012 C 
ATOM      9  C   UNL     1      14.276   5.136  -0.684  0.00  0.00    +0.019 C 
ATOM     10  C   UNL     1      14.444   3.494   1.698  0.00  0.00    +0.085 C 
ATOM     13  C   UNL     1      15.521   4.338  -0.300  0.00  0.00    +0.081 C 
ATOM     26  H   UNL     1      16.454   3.624   1.367  0.00  0.00    +0.122 HD
ENDROOT
BRANCH   7  11
ATOM     11  C   UNL     1      12.602   3.257  -0.930  0.00  0.00    +0.100 C 
BRANCH  11  14
ATOM      1  O   UNL     1      10.350   3.973  -1.125  0.00  0.00    -0.276 OA
ATOM      2  O   UNL     1      11.558   3.275  -5.870  0.00  0.00    -0.377 OA
ATOM      5  N   UNL     1      11.360   3.183  -3.061  0.00  0.00    -0.297 N 
ATOM     14  C   UNL     1      11.333   3.505  -1.706  0.00  0.00    +0.216 C 
ATOM     16  C   UNL     1      10.172   3.395  -3.888  0.00  0.00    +0.136 C 
ATOM     17  C   UNL     1      12.463   2.509  -3.754  0.00  0.00    +0.136 C 
ATOM     19  C   UNL     1      10.555   4.050  -5.207  0.00  0.00    +0.179 C 
ATOM     20  C   UNL     1      12.749   3.196  -5.083  0.00  0.00    +0.179 C 
ENDBRANCH  11  14
ENDBRANCH   7  11
BRANCH   8  12
ATOM     12  C   UNL     1      11.944   3.567   2.015  0.00  0.00    +0.064 C 
BRANCH  12  15
ATOM      3  O   UNL     1      10.630   6.278   3.987  0.00  0.00    -0.359 OA
ATOM      6  N   UNL     1      11.360   5.777   2.916  0.00  0.00    -0.083 NA
ATOM     15  C   UNL     1      11.266   4.449   3.022  0.00  0.00    +0.084 A 
ATOM     18  C   UNL     1      10.497   4.056   4.133  0.00  0.00    +0.071 A 
ATOM     21  C   UNL     1      10.121   5.243   4.704  0.00  0.00    +0.138 A 
BRANCH  21  22
ATOM     22  C   UNL     1       9.316   5.594   5.880  0.00  0.00    +0.077 C 
BRANCH  22  23
ATOM     23  C   UNL     1       8.221   6.642   5.572  0.00  0.00    +0.007 C 
BRANCH  23  24
ATOM     24  C   UNL     1       8.294   7.855   6.499  0.00  0.00    -0.003 C 
ATOM     25  C   UNL     1       8.848   7.481   7.864  0.00  0.00    +0.004 C 
ENDBRANCH  23  24
ENDBRANCH  22  23
ENDBRANCH  21  22
ENDBRANCH  12  15
ENDBRANCH   8  12
TORSDOF 7
ENDMDL
MODEL 6
REMARK VINA RESULT:      -5.9      3.253      4.651
REMARK  Name = 26742985
REMARK  8 active torsions:
REMARK  status: ('A' for Active; 'I' for Inactive)
REMARK    1  A    between atoms: C_7  and  C_11
REMARK    2  A    between atoms: C_8  and  C_12
REMARK    3  A    between atoms: C_11  and  C_14
REMARK    4  A    between atoms: C_12  and  C_15
REMARK    5  A    between atoms: C_21  and  C_22
REMARK    6  A    between atoms: C_22  and  C_23
REMARK    7  A    between atoms: C_23  and  C_24
REMARK    8  A    between atoms: C_24  and  C_25
REMARK                            x       y       z     vdW  Elec       q    Type
REMARK                         _______ _______ _______ _____ _____    ______ ____
ROOT
ATOM      4  N   UNL     1      14.919   6.713  19.315  0.00  0.00    -0.316 NA
ATOM      7  C   UNL     1      12.306   7.904  19.991  0.00  0.00    +0.004 C 
ATOM      8  C   UNL     1      12.789   7.720  18.532  0.00  0.00    +0.012 C 
ATOM      9  C   UNL     1      13.024   6.884  20.890  0.00  0.00    +0.019 C 
ATOM     10  C   UNL     1      14.323   7.721  18.438  0.00  0.00    +0.085 C 
ATOM     13  C   UNL     1      14.541   6.917  20.712  0.00  0.00    +0.081 C 
ATOM     26  H   UNL     1      15.934   6.750  19.232  0.00  0.00    +0.122 HD
ENDROOT
BRANCH   7  11
ATOM     11  C   UNL     1      12.482   9.328  20.531  0.00  0.00    +0.100 C 
BRANCH  11  14
ATOM      1  O   UNL     1      10.447   8.895  21.667  0.00  0.00    -0.276 OA
ATOM      2  O   UNL     1      12.485  12.312  24.603  0.00  0.00    -0.377 OA
ATOM      5  N   UNL     1      11.705  10.687  22.438  0.00  0.00    -0.297 N 
ATOM     14  C   UNL     1      11.448   9.611  21.592  0.00  0.00    +0.216 C 
ATOM     16  C   UNL     1      10.755  11.029  23.497  0.00  0.00    +0.136 C 
ATOM     17  C   UNL     1      12.816  11.634  22.298  0.00  0.00    +0.136 C 
ATOM     19  C   UNL     1      11.491  11.302  24.801  0.00  0.00    +0.179 C 
ATOM     20  C   UNL     1      13.465  11.890  23.652  0.00  0.00    +0.179 C 
ENDBRANCH  11  14
ENDBRANCH   7  11
BRANCH   8  12
ATOM     12  C   UNL     1      12.190   8.745  17.569  0.00  0.00    +0.064 C 
BRANCH  12  15
ATOM      3  O   UNL     1      14.434   9.234  14.795  0.00  0.00    -0.359 OA
ATOM      6  N   UNL     1      13.459   8.516  15.477  0.00  0.00    -0.083 NA
ATOM     15  C   UNL     1      13.212   9.227  16.580  0.00  0.00    +0.084 A 
ATOM     18  C   UNL     1      13.996  10.393  16.650  0.00  0.00    +0.071 A 
ATOM     21  C   UNL     1      14.746  10.349  15.504  0.00  0.00    +0.138 A 
BRANCH  21  22
ATOM     22  C   UNL     1      15.767  11.230  14.925  0.00  0.00    +0.077 C 
BRANCH  22  23
ATOM     23  C   UNL     1      16.358  12.226  15.950  0.00  0.00    +0.007 C 
BRANCH  23  24
ATOM     24  C   UNL     1      17.760  12.699  15.567  0.00  0.00    -0.003 C 
ATOM     25  C   UNL     1      18.410  11.760  14.563  0.00  0.00    +0.004 C 
ENDBRANCH  23  24
ENDBRANCH  22  23
ENDBRANCH  21  22
ENDBRANCH  12  15
ENDBRANCH   8  12
TORSDOF 7
ENDMDL
MODEL 7
REMARK VINA RESULT:      -5.9      4.102     10.478
REMARK  Name = 26742985
REMARK  8 active torsions:
REMARK  status: ('A' for Active; 'I' for Inactive)
REMARK    1  A    between atoms: C_7  and  C_11
REMARK    2  A    between atoms: C_8  and  C_12
REMARK    3  A    between atoms: C_11  and  C_14
REMARK    4  A    between atoms: C_12  and  C_15
REMARK    5  A    between atoms: C_21  and  C_22
REMARK    6  A    between atoms: C_22  and  C_23
REMARK    7  A    between atoms: C_23  and  C_24
REMARK    8  A    between atoms: C_24  and  C_25
REMARK                            x       y       z     vdW  Elec       q    Type
REMARK                         _______ _______ _______ _____ _____    ______ ____
ROOT
ATOM      4  N   UNL     1      20.492   9.376  21.489  0.00  0.00    -0.316 NA
ATOM      7  C   UNL     1      21.208   6.666  20.568  0.00  0.00    +0.004 C 
ATOM      8  C   UNL     1      19.742   7.133  20.733  0.00  0.00    +0.012 C 
ATOM      9  C   UNL     1      22.104   7.894  20.345  0.00  0.00    +0.019 C 
ATOM     10  C   UNL     1      19.615   8.244  21.788  0.00  0.00    +0.085 C 
ATOM     13  C   UNL     1      21.894   8.971  21.410  0.00  0.00    +0.081 C 
ATOM     26  H   UNL     1      20.388  10.085  22.213  0.00  0.00    +0.122 HD
ENDROOT
BRANCH   7  11
ATOM     11  C   UNL     1      21.726   5.816  21.735  0.00  0.00    +0.100 C 
BRANCH  11  14
ATOM      1  O   UNL     1      21.419   3.567  21.051  0.00  0.00    -0.276 OA
ATOM      2  O   UNL     1      26.134   4.335  19.768  0.00  0.00    -0.377 OA
ATOM      5  N   UNL     1      23.590   4.387  20.980  0.00  0.00    -0.297 N 
ATOM     14  C   UNL     1      22.223   4.486  21.226  0.00  0.00    +0.216 C 
ATOM     16  C   UNL     1      24.156   3.134  20.480  0.00  0.00    +0.136 C 
ATOM     17  C   UNL     1      24.589   5.414  21.296  0.00  0.00    +0.136 C 
ATOM     19  C   UNL     1      25.131   3.407  19.345  0.00  0.00    +0.179 C 
ATOM     20  C   UNL     1      25.552   5.590  20.129  0.00  0.00    +0.179 C 
ENDBRANCH  11  14
ENDBRANCH   7  11
BRANCH   8  12
ATOM     12  C   UNL     1      18.778   5.987  21.041  0.00  0.00    +0.064 C 
BRANCH  12  15
ATOM      3  O   UNL     1      15.983   6.186  18.779  0.00  0.00    -0.359 OA
ATOM      6  N   UNL     1      17.306   5.883  19.075  0.00  0.00    -0.083 NA
ATOM     15  C   UNL     1      17.452   6.191  20.367  0.00  0.00    +0.084 A 
ATOM     18  C   UNL     1      16.265   6.691  20.933  0.00  0.00    +0.071 A 
ATOM     21  C   UNL     1      15.374   6.667  19.893  0.00  0.00    +0.138 A 
BRANCH  21  22
ATOM     22  C   UNL     1      13.961   7.040  19.758  0.00  0.00    +0.077 C 
BRANCH  22  23
ATOM     23  C   UNL     1      13.236   7.165  21.118  0.00  0.00    +0.007 C 
BRANCH  23  24
ATOM     24  C   UNL     1      11.883   6.455  21.130  0.00  0.00    -0.003 C 
ATOM     25  C   UNL     1      10.818   7.297  21.817  0.00  0.00    +0.004 C 
ENDBRANCH  23  24
ENDBRANCH  22  23
ENDBRANCH  21  22
ENDBRANCH  12  15
ENDBRANCH   8  12
TORSDOF 7
ENDMDL
MODEL 8
REMARK VINA RESULT:      -5.8      4.860     10.436
REMARK  Name = 26742985
REMARK  8 active torsions:
REMARK  status: ('A' for Active; 'I' for Inactive)
REMARK    1  A    between atoms: C_7  and  C_11
REMARK    2  A    between atoms: C_8  and  C_12
REMARK    3  A    between atoms: C_11  and  C_14
REMARK    4  A    between atoms: C_12  and  C_15
REMARK    5  A    between atoms: C_21  and  C_22
REMARK    6  A    between atoms: C_22  and  C_23
REMARK    7  A    between atoms: C_23  and  C_24
REMARK    8  A    between atoms: C_24  and  C_25
REMARK                            x       y       z     vdW  Elec       q    Type
REMARK                         _______ _______ _______ _____ _____    ______ ____
ROOT
ATOM      4  N   UNL     1      19.749   8.397  23.491  0.00  0.00    -0.316 NA
ATOM      7  C   UNL     1      21.532   7.397  21.364  0.00  0.00    +0.004 C 
ATOM      8  C   UNL     1      20.004   7.157  21.354  0.00  0.00    +0.012 C 
ATOM      9  C   UNL     1      21.838   8.652  22.198  0.00  0.00    +0.019 C 
ATOM     10  C   UNL     1      19.420   7.163  22.777  0.00  0.00    +0.085 C 
ATOM     13  C   UNL     1      21.193   8.603  23.582  0.00  0.00    +0.081 C 
ATOM     26  H   UNL     1      19.354   8.360  24.429  0.00  0.00    +0.122 HD
ENDROOT
BRANCH   7  11
ATOM     11  C   UNL     1      22.349   6.198  21.860  0.00  0.00    +0.100 C 
BRANCH  11  14
ATOM      1  O   UNL     1      24.058   6.754  20.313  0.00  0.00    -0.276 OA
ATOM      2  O   UNL     1      24.584   1.846  20.613  0.00  0.00    -0.377 OA
ATOM      5  N   UNL     1      23.620   4.493  20.608  0.00  0.00    -0.297 N 
ATOM     14  C   UNL     1      23.419   5.849  20.856  0.00  0.00    +0.216 C 
ATOM     16  C   UNL     1      24.641   4.067  19.651  0.00  0.00    +0.136 C 
ATOM     17  C   UNL     1      22.797   3.400  21.136  0.00  0.00    +0.136 C 
ATOM     19  C   UNL     1      25.452   2.913  20.220  0.00  0.00    +0.179 C 
ATOM     20  C   UNL     1      23.683   2.269  21.639  0.00  0.00    +0.179 C 
ENDBRANCH  11  14
ENDBRANCH   7  11
BRANCH   8  12
ATOM     12  C   UNL     1      19.602   5.881  20.614  0.00  0.00    +0.064 C 
BRANCH  12  15
ATOM      3  O   UNL     1      16.625   5.712  18.596  0.00  0.00    -0.359 OA
ATOM      6  N   UNL     1      17.954   5.400  18.857  0.00  0.00    -0.083 NA
ATOM     15  C   UNL     1      18.232   6.005  20.015  0.00  0.00    +0.084 A 
ATOM     18  C   UNL     1      17.127   6.708  20.527  0.00  0.00    +0.071 A 
ATOM     21  C   UNL     1      16.144   6.492  19.598  0.00  0.00    +0.138 A 
BRANCH  21  22
ATOM     22  C   UNL     1      14.744   6.917  19.483  0.00  0.00    +0.077 C 
BRANCH  22  23
ATOM     23  C   UNL     1      14.549   8.100  18.506  0.00  0.00    +0.007 C 
BRANCH  23  24
ATOM     24  C   UNL     1      13.889   7.675  17.195  0.00  0.00    -0.003 C 
ATOM     25  C   UNL     1      14.043   8.743  16.122  0.00  0.00    +0.004 C 
ENDBRANCH  23  24
ENDBRANCH  22  23
ENDBRANCH  21  22
ENDBRANCH  12  15
ENDBRANCH   8  12
TORSDOF 7
ENDMDL
MODEL 9
REMARK VINA RESULT:      -5.8     18.166     21.204
REMARK  Name = 26742985
REMARK  8 active torsions:
REMARK  status: ('A' for Active; 'I' for Inactive)
REMARK    1  A    between atoms: C_7  and  C_11
REMARK    2  A    between atoms: C_8  and  C_12
REMARK    3  A    between atoms: C_11  and  C_14
REMARK    4  A    between atoms: C_12  and  C_15
REMARK    5  A    between atoms: C_21  and  C_22
REMARK    6  A    between atoms: C_22  and  C_23
REMARK    7  A    between atoms: C_23  and  C_24
REMARK    8  A    between atoms: C_24  and  C_25
REMARK                            x       y       z     vdW  Elec       q    Type
REMARK                         _______ _______ _______ _____ _____    ______ ____
ROOT
ATOM      4  N   UNL     1      13.156   2.971   1.706  0.00  0.00    -0.316 NA
ATOM      7  C   UNL     1      11.764   5.292   0.531  0.00  0.00    +0.004 C 
ATOM      8  C   UNL     1      11.644   4.915   2.027  0.00  0.00    +0.012 C 
ATOM      9  C   UNL     1      13.084   4.733  -0.024  0.00  0.00    +0.019 C 
ATOM     10  C   UNL     1      11.872   3.411   2.253  0.00  0.00    +0.085 C 
ATOM     13  C   UNL     1      13.258   3.244   0.274  0.00  0.00    +0.081 C 
ATOM     26  H   UNL     1      13.266   1.971   1.866  0.00  0.00    +0.122 HD
ENDROOT
BRANCH   7  11
ATOM     11  C   UNL     1      10.575   4.836  -0.324  0.00  0.00    +0.100 C 
BRANCH  11  14
ATOM      1  O   UNL     1      10.485   6.668  -1.826  0.00  0.00    -0.276 OA
ATOM      2  O   UNL     1      12.208   3.088  -4.770  0.00  0.00    -0.377 OA
ATOM      5  N   UNL     1      10.936   4.588  -2.753  0.00  0.00    -0.297 N 
ATOM     14  C   UNL     1      10.659   5.453  -1.698  0.00  0.00    +0.216 C 
ATOM     16  C   UNL     1      11.039   5.105  -4.117  0.00  0.00    +0.136 C 
ATOM     17  C   UNL     1      11.022   3.127  -2.655  0.00  0.00    +0.136 C 
ATOM     19  C   UNL     1      12.255   4.517  -4.817  0.00  0.00    +0.179 C 
ATOM     20  C   UNL     1      12.236   2.617  -3.421  0.00  0.00    +0.179 C 
ENDBRANCH  11  14
ENDBRANCH   7  11
BRANCH   8  12
ATOM     12  C   UNL     1      10.322   5.358   2.653  0.00  0.00    +0.064 C 
BRANCH  12  15
ATOM      3  O   UNL     1      11.202   6.015   6.082  0.00  0.00    -0.359 OA
ATOM      6  N   UNL     1      11.398   6.153   4.714  0.00  0.00    -0.083 NA
ATOM     15  C   UNL     1      10.423   5.436   4.149  0.00  0.00    +0.084 A 
ATOM     18  C   UNL     1       9.589   4.826   5.103  0.00  0.00    +0.071 A 
ATOM     21  C   UNL     1      10.122   5.222   6.301  0.00  0.00    +0.138 A 
BRANCH  21  22
ATOM     22  C   UNL     1       9.767   4.969   7.703  0.00  0.00    +0.077 C 
BRANCH  22  23
ATOM     23  C   UNL     1       9.452   6.262   8.490  0.00  0.00    +0.007 C 
BRANCH  23  24
ATOM     24  C   UNL     1       8.672   7.280   7.658  0.00  0.00    -0.003 C 
ATOM     25  C   UNL     1       9.332   8.650   7.691  0.00  0.00    +0.004 C 
ENDBRANCH  23  24
ENDBRANCH  22  23
ENDBRANCH  21  22
ENDBRANCH  12  15
ENDBRANCH   8  12
TORSDOF 7
ENDMDL
MODEL 10
REMARK VINA RESULT:      -5.8     28.211     30.577
REMARK  Name = 26742985
REMARK  8 active torsions:
REMARK  status: ('A' for Active; 'I' for Inactive)
REMARK    1  A    between atoms: C_7  and  C_11
REMARK    2  A    between atoms: C_8  and  C_12
REMARK    3  A    between atoms: C_11  and  C_14
REMARK    4  A    between atoms: C_12  and  C_15
REMARK    5  A    between atoms: C_21  and  C_22
REMARK    6  A    between atoms: C_22  and  C_23
REMARK    7  A    between atoms: C_23  and  C_24
REMARK    8  A    between atoms: C_24  and  C_25
REMARK                            x       y       z     vdW  Elec       q    Type
REMARK                         _______ _______ _______ _____ _____    ______ ____
ROOT
ATOM      4  N   UNL     1     -14.124   9.217  30.996  0.00  0.00    -0.316 NA
ATOM      7  C   UNL     1     -12.959   7.764  33.284  0.00  0.00    +0.004 C 
ATOM      8  C   UNL     1     -14.227   7.278  32.543  0.00  0.00    +0.012 C 
ATOM      9  C   UNL     1     -12.129   8.643  32.334  0.00  0.00    +0.019 C 
ATOM     10  C   UNL     1     -14.986   8.445  31.891  0.00  0.00    +0.085 C 
ATOM     13  C   UNL     1     -12.959   9.755  31.694  0.00  0.00    +0.081 C 
ATOM     26  H   UNL     1     -14.658   9.984  30.591  0.00  0.00    +0.122 HD
ENDROOT
BRANCH   7  11
ATOM     11  C   UNL     1     -13.248   8.501  34.598  0.00  0.00    +0.100 C 
BRANCH  11  14
ATOM      1  O   UNL     1     -12.931   6.762  36.178  0.00  0.00    -0.276 OA
ATOM      2  O   UNL     1      -8.750   9.346  36.731  0.00  0.00    -0.377 OA
ATOM      5  N   UNL     1     -11.388   8.496  36.219  0.00  0.00    -0.297 N 
ATOM     14  C   UNL     1     -12.515   7.836  35.736  0.00  0.00    +0.216 C 
ATOM     16  C   UNL     1     -10.616   7.919  37.320  0.00  0.00    +0.136 C 
ATOM     17  C   UNL     1     -10.939   9.830  35.805  0.00  0.00    +0.136 C 
ATOM     19  C   UNL     1      -9.126   7.996  37.020  0.00  0.00    +0.179 C 
ATOM     20  C   UNL     1      -9.434   9.832  35.574  0.00  0.00    +0.179 C 
ENDBRANCH  11  14
ENDBRANCH   7  11
BRANCH   8  12
ATOM     12  C   UNL     1     -15.163   6.458  33.432  0.00  0.00    +0.064 C 
BRANCH  12  15
ATOM      3  O   UNL     1     -15.594   2.893  33.171  0.00  0.00    -0.359 OA
ATOM      6  N   UNL     1     -15.910   4.134  33.710  0.00  0.00    -0.083 NA
ATOM     15  C   UNL     1     -15.098   4.997  33.095  0.00  0.00    +0.084 A 
ATOM     18  C   UNL     1     -14.252   4.364  32.166  0.00  0.00    +0.071 A 
ATOM     21  C   UNL     1     -14.605   3.043  32.253  0.00  0.00    +0.138 A 
BRANCH  21  22
ATOM     22  C   UNL     1     -14.144   1.823  31.580  0.00  0.00    +0.077 C 
BRANCH  22  23
ATOM     23  C   UNL     1     -15.274   1.089  30.819  0.00  0.00    +0.007 C 
BRANCH  23  24
ATOM     24  C   UNL     1     -14.909  -0.354  30.476  0.00  0.00    -0.003 C 
ATOM     25  C   UNL     1     -13.511  -0.450  29.884  0.00  0.00    +0.004 C 
ENDBRANCH  23  24
ENDBRANCH  22  23
ENDBRANCH  21  22
ENDBRANCH  12  15
ENDBRANCH   8  12
TORSDOF 7
ENDMDL
