MODEL 1
REMARK VINA RESULT:      -7.0      0.000      0.000
REMARK  Name = 51137799
REMARK  5 active torsions:
REMARK  status: ('A' for Active; 'I' for Inactive)
REMARK    1  A    between atoms: O_3  and  C_18
REMARK    2  A    between atoms: O_3  and  C_26
REMARK    3  A    between atoms: C_7  and  C_11
REMARK    4  A    between atoms: C_12  and  C_13
REMARK    5  A    between atoms: C_14  and  C_17
REMARK                            x       y       z     vdW  Elec       q    Type
REMARK                         _______ _______ _______ _____ _____    ______ ____
ROOT
ATOM      2  O   UNL     1      -6.100 -12.611  11.566  0.00  0.00    -0.270 OA
ATOM      4  N   UNL     1      -3.865 -12.467  12.182  0.00  0.00    -0.297 N 
ATOM      7  C   UNL     1      -1.828 -12.433  13.412  0.00  0.00    +0.095 C 
ATOM      8  C   UNL     1      -2.411 -13.855  13.417  0.00  0.00    +0.033 C 
ATOM      9  C   UNL     1      -2.568 -11.791  12.230  0.00  0.00    +0.121 C 
ATOM     10  C   UNL     1      -3.868 -13.655  13.022  0.00  0.00    +0.109 C 
ATOM     12  C   UNL     1      -5.007 -12.048  11.519  0.00  0.00    +0.247 C 
ENDROOT
BRANCH  12  13
ATOM     13  C   UNL     1      -4.912 -10.825  10.706  0.00  0.00    +0.037 A 
ATOM     15  C   UNL     1      -4.524 -10.906   9.368  0.00  0.00    +0.013 A 
ATOM     16  C   UNL     1      -5.209  -9.586  11.272  0.00  0.00    +0.013 A 
ATOM     19  C   UNL     1      -4.435  -9.748   8.597  0.00  0.00    +0.001 A 
ATOM     20  C   UNL     1      -5.120  -8.428  10.501  0.00  0.00    +0.001 A 
ATOM     22  C   UNL     1      -4.733  -8.509   9.162  0.00  0.00    +0.000 A 
ENDBRANCH  12  13
BRANCH   7  11
ATOM      1  O   UNL     1      -3.204 -11.870  15.366  0.00  0.00    -0.420 OA
ATOM      5  N   UNL     1      -1.121 -11.061  15.458  0.00  0.00    -0.112 NA
ATOM      6  N   UNL     1      -1.780 -10.674  16.609  0.00  0.00    -0.107 NA
ATOM     11  C   UNL     1      -1.990 -11.756  14.762  0.00  0.00    +0.222 A 
ATOM     14  C   UNL     1      -2.992 -11.168  16.513  0.00  0.00    +0.252 A 
BRANCH  14  17
ATOM     17  C   UNL     1      -4.107 -11.084  17.412  0.00  0.00    +0.080 A 
ATOM     18  C   UNL     1      -5.233 -10.329  17.086  0.00  0.00    +0.132 A 
ATOM     21  C   UNL     1      -4.053 -11.770  18.625  0.00  0.00    +0.017 A 
ATOM     23  C   UNL     1      -6.306 -10.258  17.975  0.00  0.00    +0.046 A 
ATOM     24  C   UNL     1      -5.126 -11.701  19.514  0.00  0.00    +0.001 A 
ATOM     25  C   UNL     1      -6.253 -10.944  19.189  0.00  0.00    +0.004 A 
BRANCH  18   3
ATOM      3  O   UNL     1      -5.312  -9.647  15.908  0.00  0.00    -0.494 OA
ATOM     26  C   UNL     1      -6.227 -10.143  14.934  0.00  0.00    +0.277 C 
ENDBRANCH  18   3
ENDBRANCH  14  17
ENDBRANCH   7  11
TORSDOF 4
ENDMDL
MODEL 2
REMARK VINA RESULT:      -7.0     26.808     27.881
REMARK  Name = 51137799
REMARK  5 active torsions:
REMARK  status: ('A' for Active; 'I' for Inactive)
REMARK    1  A    between atoms: O_3  and  C_18
REMARK    2  A    between atoms: O_3  and  C_26
REMARK    3  A    between atoms: C_7  and  C_11
REMARK    4  A    between atoms: C_12  and  C_13
REMARK    5  A    between atoms: C_14  and  C_17
REMARK                            x       y       z     vdW  Elec       q    Type
REMARK                         _______ _______ _______ _____ _____    ______ ____
ROOT
ATOM      2  O   UNL     1      11.844   7.333  17.192  0.00  0.00    -0.270 OA
ATOM      4  N   UNL     1      12.783   7.769  19.271  0.00  0.00    -0.297 N 
ATOM      7  C   UNL     1      13.123   8.127  21.599  0.00  0.00    +0.095 C 
ATOM      8  C   UNL     1      12.754   6.656  21.352  0.00  0.00    +0.033 C 
ATOM      9  C   UNL     1      13.567   8.582  20.202  0.00  0.00    +0.121 C 
ATOM     10  C   UNL     1      12.135   6.663  19.960  0.00  0.00    +0.109 C 
ATOM     12  C   UNL     1      12.571   8.004  17.922  0.00  0.00    +0.247 C 
ENDROOT
BRANCH  12  13
ATOM     13  C   UNL     1      13.258   9.156  17.316  0.00  0.00    +0.037 A 
ATOM     15  C   UNL     1      13.973   8.997  16.130  0.00  0.00    +0.013 A 
ATOM     16  C   UNL     1      13.193  10.407  17.929  0.00  0.00    +0.013 A 
ATOM     19  C   UNL     1      14.622  10.089  15.555  0.00  0.00    +0.001 A 
ATOM     20  C   UNL     1      13.842  11.500  17.354  0.00  0.00    +0.001 A 
ATOM     22  C   UNL     1      14.557  11.340  16.167  0.00  0.00    +0.000 A 
ENDBRANCH  12  13
BRANCH   7  11
ATOM      1  O   UNL     1      12.239  10.163  22.650  0.00  0.00    -0.420 OA
ATOM      5  N   UNL     1      10.735   8.521  22.441  0.00  0.00    -0.112 NA
ATOM      6  N   UNL     1      10.111   9.599  23.041  0.00  0.00    -0.107 NA
ATOM     11  C   UNL     1      11.975   8.895  22.230  0.00  0.00    +0.222 A 
ATOM     14  C   UNL     1      11.026  10.533  23.143  0.00  0.00    +0.252 A 
BRANCH  14  17
ATOM     17  C   UNL     1      10.948  11.859  23.685  0.00  0.00    +0.080 A 
ATOM     18  C   UNL     1      10.883  12.972  22.846  0.00  0.00    +0.132 A 
ATOM     21  C   UNL     1      10.937  12.026  25.069  0.00  0.00    +0.017 A 
ATOM     23  C   UNL     1      10.809  14.253  23.393  0.00  0.00    +0.046 A 
ATOM     24  C   UNL     1      10.862  13.308  25.617  0.00  0.00    +0.001 A 
ATOM     25  C   UNL     1      10.798  14.421  24.778  0.00  0.00    +0.004 A 
BRANCH  18   3
ATOM      3  O   UNL     1      10.893  12.837  21.489  0.00  0.00    -0.494 OA
ATOM     26  C   UNL     1      11.476  13.900  20.739  0.00  0.00    +0.277 C 
ENDBRANCH  18   3
ENDBRANCH  14  17
ENDBRANCH   7  11
TORSDOF 4
ENDMDL
MODEL 3
REMARK VINA RESULT:      -6.7      3.478      5.617
REMARK  Name = 51137799
REMARK  5 active torsions:
REMARK  status: ('A' for Active; 'I' for Inactive)
REMARK    1  A    between atoms: O_3  and  C_18
REMARK    2  A    between atoms: O_3  and  C_26
REMARK    3  A    between atoms: C_7  and  C_11
REMARK    4  A    between atoms: C_12  and  C_13
REMARK    5  A    between atoms: C_14  and  C_17
REMARK                            x       y       z     vdW  Elec       q    Type
REMARK                         _______ _______ _______ _____ _____    ______ ____
ROOT
ATOM      2  O   UNL     1      -4.154 -13.966  15.563  0.00  0.00    -0.270 OA
ATOM      4  N   UNL     1      -4.483 -12.090  16.892  0.00  0.00    -0.297 N 
ATOM      7  C   UNL     1      -5.365 -10.497  18.424  0.00  0.00    +0.095 C 
ATOM      8  C   UNL     1      -4.935 -11.761  19.185  0.00  0.00    +0.033 C 
ATOM      9  C   UNL     1      -4.600 -10.647  17.102  0.00  0.00    +0.121 C 
ATOM     10  C   UNL     1      -4.832 -12.824  18.099  0.00  0.00    +0.109 C 
ATOM     12  C   UNL     1      -4.170 -12.746  15.712  0.00  0.00    +0.247 C 
ENDROOT
BRANCH  12  13
ATOM     13  C   UNL     1      -3.845 -11.918  14.540  0.00  0.00    +0.037 A 
ATOM     15  C   UNL     1      -4.848 -11.563  13.637  0.00  0.00    +0.013 A 
ATOM     16  C   UNL     1      -2.535 -11.488  14.332  0.00  0.00    +0.013 A 
ATOM     19  C   UNL     1      -4.540 -10.777  12.527  0.00  0.00    +0.001 A 
ATOM     20  C   UNL     1      -2.227 -10.702  13.222  0.00  0.00    +0.001 A 
ATOM     22  C   UNL     1      -3.230 -10.346  12.319  0.00  0.00    +0.000 A 
ENDBRANCH  12  13
BRANCH   7  11
ATOM      1  O   UNL     1      -7.372  -9.496  17.425  0.00  0.00    -0.420 OA
ATOM      5  N   UNL     1      -7.806 -11.036  18.988  0.00  0.00    -0.112 NA
ATOM      6  N   UNL     1      -9.012 -10.558  18.512  0.00  0.00    -0.107 NA
ATOM     11  C   UNL     1      -6.876 -10.389  18.326  0.00  0.00    +0.222 A 
ATOM     14  C   UNL     1      -8.710  -9.663  17.602  0.00  0.00    +0.252 A 
BRANCH  14  17
ATOM     17  C   UNL     1      -9.558  -8.846  16.781  0.00  0.00    +0.080 A 
ATOM     18  C   UNL     1      -9.844  -9.209  15.465  0.00  0.00    +0.132 A 
ATOM     21  C   UNL     1     -10.098  -7.677  17.316  0.00  0.00    +0.017 A 
ATOM     23  C   UNL     1     -10.669  -8.401  14.683  0.00  0.00    +0.046 A 
ATOM     24  C   UNL     1     -10.924  -6.869  16.534  0.00  0.00    +0.001 A 
ATOM     25  C   UNL     1     -11.209  -7.231  15.217  0.00  0.00    +0.004 A 
BRANCH  18   3
ATOM      3  O   UNL     1      -9.329 -10.347  14.916  0.00  0.00    -0.494 OA
ATOM     26  C   UNL     1      -8.292 -10.187  13.952  0.00  0.00    +0.277 C 
ENDBRANCH  18   3
ENDBRANCH  14  17
ENDBRANCH   7  11
TORSDOF 4
ENDMDL
MODEL 4
REMARK VINA RESULT:      -6.5      1.902      2.542
REMARK  Name = 51137799
REMARK  5 active torsions:
REMARK  status: ('A' for Active; 'I' for Inactive)
REMARK    1  A    between atoms: O_3  and  C_18
REMARK    2  A    between atoms: O_3  and  C_26
REMARK    3  A    between atoms: C_7  and  C_11
REMARK    4  A    between atoms: C_12  and  C_13
REMARK    5  A    between atoms: C_14  and  C_17
REMARK                            x       y       z     vdW  Elec       q    Type
REMARK                         _______ _______ _______ _____ _____    ______ ____
ROOT
ATOM      2  O   UNL     1      -4.007 -12.852  11.077  0.00  0.00    -0.270 OA
ATOM      4  N   UNL     1      -2.942 -11.565  12.691  0.00  0.00    -0.297 N 
ATOM      7  C   UNL     1      -2.121 -10.695  14.748  0.00  0.00    +0.095 C 
ATOM      8  C   UNL     1      -1.458 -12.051  14.461  0.00  0.00    +0.033 C 
ATOM      9  C   UNL     1      -2.647 -10.299  13.361  0.00  0.00    +0.121 C 
ATOM     10  C   UNL     1      -2.366 -12.687  13.416  0.00  0.00    +0.109 C 
ATOM     12  C   UNL     1      -3.726 -11.758  11.565  0.00  0.00    +0.247 C 
ENDROOT
BRANCH  12  13
ATOM     13  C   UNL     1      -4.278 -10.563  10.908  0.00  0.00    +0.037 A 
ATOM     15  C   UNL     1      -3.558  -9.929   9.896  0.00  0.00    +0.013 A 
ATOM     16  C   UNL     1      -5.521 -10.065  11.297  0.00  0.00    +0.013 A 
ATOM     19  C   UNL     1      -4.082  -8.797   9.272  0.00  0.00    +0.001 A 
ATOM     20  C   UNL     1      -6.046  -8.934  10.673  0.00  0.00    +0.001 A 
ATOM     22  C   UNL     1      -5.326  -8.299   9.660  0.00  0.00    +0.000 A 
ENDBRANCH  12  13
BRANCH   7  11
ATOM      1  O   UNL     1      -4.450 -10.586  15.518  0.00  0.00    -0.420 OA
ATOM      5  N   UNL     1      -2.979 -11.064  17.134  0.00  0.00    -0.112 NA
ATOM      6  N   UNL     1      -4.240 -11.035  17.699  0.00  0.00    -0.107 NA
ATOM     11  C   UNL     1      -3.149 -10.797  15.861  0.00  0.00    +0.222 A 
ATOM     14  C   UNL     1      -5.067 -10.752  16.720  0.00  0.00    +0.252 A 
BRANCH  14  17
ATOM     17  C   UNL     1      -6.492 -10.594  16.720  0.00  0.00    +0.080 A 
ATOM     18  C   UNL     1      -7.332 -11.667  16.418  0.00  0.00    +0.132 A 
ATOM     21  C   UNL     1      -7.036  -9.347  17.027  0.00  0.00    +0.017 A 
ATOM     23  C   UNL     1      -8.715 -11.492  16.422  0.00  0.00    +0.046 A 
ATOM     24  C   UNL     1      -8.421  -9.172  17.033  0.00  0.00    +0.001 A 
ATOM     25  C   UNL     1      -9.260 -10.245  16.729  0.00  0.00    +0.004 A 
BRANCH  18   3
ATOM      3  O   UNL     1      -6.827 -12.897  16.113  0.00  0.00    -0.494 OA
ATOM     26  C   UNL     1      -7.039 -13.936  17.065  0.00  0.00    +0.277 C 
ENDBRANCH  18   3
ENDBRANCH  14  17
ENDBRANCH   7  11
TORSDOF 4
ENDMDL
MODEL 5
REMARK VINA RESULT:      -6.4     23.676     25.986
REMARK  Name = 51137799
REMARK  5 active torsions:
REMARK  status: ('A' for Active; 'I' for Inactive)
REMARK    1  A    between atoms: O_3  and  C_18
REMARK    2  A    between atoms: O_3  and  C_26
REMARK    3  A    between atoms: C_7  and  C_11
REMARK    4  A    between atoms: C_12  and  C_13
REMARK    5  A    between atoms: C_14  and  C_17
REMARK                            x       y       z     vdW  Elec       q    Type
REMARK                         _______ _______ _______ _____ _____    ______ ____
ROOT
ATOM      2  O   UNL     1       9.840   7.492   1.741  0.00  0.00    -0.270 OA
ATOM      4  N   UNL     1       9.679   6.037   3.544  0.00  0.00    -0.297 N 
ATOM      7  C   UNL     1       9.654   5.095   5.729  0.00  0.00    +0.095 C 
ATOM      8  C   UNL     1       8.473   6.064   5.572  0.00  0.00    +0.033 C 
ATOM      9  C   UNL     1      10.032   4.815   4.267  0.00  0.00    +0.121 C 
ATOM     10  C   UNL     1       8.851   6.909   4.363  0.00  0.00    +0.109 C 
ATOM     12  C   UNL     1      10.104   6.419   2.282  0.00  0.00    +0.247 C 
ENDROOT
BRANCH  12  13
ATOM     13  C   UNL     1      10.952   5.476   1.535  0.00  0.00    +0.037 A 
ATOM     15  C   UNL     1      12.286   5.298   1.900  0.00  0.00    +0.013 A 
ATOM     16  C   UNL     1      10.420   4.760   0.463  0.00  0.00    +0.013 A 
ATOM     19  C   UNL     1      13.088   4.403   1.193  0.00  0.00    +0.001 A 
ATOM     20  C   UNL     1      11.222   3.865  -0.244  0.00  0.00    +0.001 A 
ATOM     22  C   UNL     1      12.557   3.686   0.121  0.00  0.00    +0.000 A 
ENDBRANCH  12  13
BRANCH   7  11
ATOM      1  O   UNL     1      11.616   6.542   6.024  0.00  0.00    -0.420 OA
ATOM      5  N   UNL     1      10.985   5.474   7.886  0.00  0.00    -0.112 NA
ATOM      6  N   UNL     1      12.090   6.247   8.190  0.00  0.00    -0.107 NA
ATOM     11  C   UNL     1      10.744   5.677   6.612  0.00  0.00    +0.222 A 
ATOM     14  C   UNL     1      12.423   6.852   7.075  0.00  0.00    +0.252 A 
BRANCH  14  17
ATOM     17  C   UNL     1      13.488   7.772   6.797  0.00  0.00    +0.080 A 
ATOM     18  C   UNL     1      13.282   9.150   6.874  0.00  0.00    +0.132 A 
ATOM     21  C   UNL     1      14.742   7.273   6.445  0.00  0.00    +0.017 A 
ATOM     23  C   UNL     1      14.330  10.028   6.598  0.00  0.00    +0.046 A 
ATOM     24  C   UNL     1      15.791   8.151   6.170  0.00  0.00    +0.001 A 
ATOM     25  C   UNL     1      15.584   9.529   6.246  0.00  0.00    +0.004 A 
BRANCH  18   3
ATOM      3  O   UNL     1      12.066   9.666   7.214  0.00  0.00    -0.494 OA
ATOM     26  C   UNL     1      11.343  10.344   6.191  0.00  0.00    +0.277 C 
ENDBRANCH  18   3
ENDBRANCH  14  17
ENDBRANCH   7  11
TORSDOF 4
ENDMDL
MODEL 6
REMARK VINA RESULT:      -6.4     26.082     28.014
REMARK  Name = 51137799
REMARK  5 active torsions:
REMARK  status: ('A' for Active; 'I' for Inactive)
REMARK    1  A    between atoms: O_3  and  C_18
REMARK    2  A    between atoms: O_3  and  C_26
REMARK    3  A    between atoms: C_7  and  C_11
REMARK    4  A    between atoms: C_12  and  C_13
REMARK    5  A    between atoms: C_14  and  C_17
REMARK                            x       y       z     vdW  Elec       q    Type
REMARK                         _______ _______ _______ _____ _____    ______ ____
ROOT
ATOM      2  O   UNL     1      19.883  -4.860  24.133  0.00  0.00    -0.270 OA
ATOM      4  N   UNL     1      20.431  -2.794  25.041  0.00  0.00    -0.297 N 
ATOM      7  C   UNL     1      21.165  -1.051  26.486  0.00  0.00    +0.095 C 
ATOM      8  C   UNL     1      22.366  -1.911  26.064  0.00  0.00    +0.033 C 
ATOM      9  C   UNL     1      20.123  -1.414  25.418  0.00  0.00    +0.121 C 
ATOM     10  C   UNL     1      21.732  -3.198  25.551  0.00  0.00    +0.109 C 
ATOM     12  C   UNL     1      19.611  -3.683  24.365  0.00  0.00    +0.247 C 
ENDROOT
BRANCH  12  13
ATOM     13  C   UNL     1      18.306  -3.187  23.900  0.00  0.00    +0.037 A 
ATOM     15  C   UNL     1      17.149  -3.492  24.617  0.00  0.00    +0.013 A 
ATOM     16  C   UNL     1      18.227  -2.412  22.744  0.00  0.00    +0.013 A 
ATOM     19  C   UNL     1      15.912  -3.020  24.178  0.00  0.00    +0.001 A 
ATOM     20  C   UNL     1      16.990  -1.940  22.305  0.00  0.00    +0.001 A 
ATOM     22  C   UNL     1      15.833  -2.244  23.022  0.00  0.00    +0.000 A 
ENDBRANCH  12  13
BRANCH   7  11
ATOM      1  O   UNL     1      19.480  -1.667  28.163  0.00  0.00    -0.420 OA
ATOM      5  N   UNL     1      21.500  -1.234  29.020  0.00  0.00    -0.112 NA
ATOM      6  N   UNL     1      20.655  -1.564  30.063  0.00  0.00    -0.107 NA
ATOM     11  C   UNL     1      20.772  -1.306  27.931  0.00  0.00    +0.222 A 
ATOM     14  C   UNL     1      19.488  -1.809  29.516  0.00  0.00    +0.252 A 
BRANCH  14  17
ATOM     17  C   UNL     1      18.242  -2.195  30.113  0.00  0.00    +0.080 A 
ATOM     18  C   UNL     1      17.561  -1.331  30.971  0.00  0.00    +0.132 A 
ATOM     21  C   UNL     1      17.714  -3.453  29.827  0.00  0.00    +0.017 A 
ATOM     23  C   UNL     1      16.352  -1.726  31.543  0.00  0.00    +0.046 A 
ATOM     24  C   UNL     1      16.504  -3.849  30.398  0.00  0.00    +0.001 A 
ATOM     25  C   UNL     1      15.823  -2.985  31.257  0.00  0.00    +0.004 A 
BRANCH  18   3
ATOM      3  O   UNL     1      18.055  -0.095  31.269  0.00  0.00    -0.494 OA
ATOM     26  C   UNL     1      17.392   0.634  32.299  0.00  0.00    +0.277 C 
ENDBRANCH  18   3
ENDBRANCH  14  17
ENDBRANCH   7  11
TORSDOF 4
ENDMDL
MODEL 7
REMARK VINA RESULT:      -6.4     23.021     26.171
REMARK  Name = 51137799
REMARK  5 active torsions:
REMARK  status: ('A' for Active; 'I' for Inactive)
REMARK    1  A    between atoms: O_3  and  C_18
REMARK    2  A    between atoms: O_3  and  C_26
REMARK    3  A    between atoms: C_7  and  C_11
REMARK    4  A    between atoms: C_12  and  C_13
REMARK    5  A    between atoms: C_14  and  C_17
REMARK                            x       y       z     vdW  Elec       q    Type
REMARK                         _______ _______ _______ _____ _____    ______ ____
ROOT
ATOM      2  O   UNL     1       7.932   7.402   5.236  0.00  0.00    -0.270 OA
ATOM      4  N   UNL     1      10.156   7.101   4.640  0.00  0.00    -0.297 N 
ATOM      7  C   UNL     1      12.163   6.633   3.449  0.00  0.00    +0.095 C 
ATOM      8  C   UNL     1      11.504   7.896   2.873  0.00  0.00    +0.033 C 
ATOM      9  C   UNL     1      11.487   6.521   4.823  0.00  0.00    +0.121 C 
ATOM     10  C   UNL     1      10.069   7.824   3.380  0.00  0.00    +0.109 C 
ATOM     12  C   UNL     1       9.054   6.956   5.467  0.00  0.00    +0.247 C 
ENDROOT
BRANCH  12  13
ATOM     13  C   UNL     1       9.236   6.195   6.714  0.00  0.00    +0.037 A 
ATOM     15  C   UNL     1       9.645   4.863   6.664  0.00  0.00    +0.013 A 
ATOM     16  C   UNL     1       8.999   6.807   7.944  0.00  0.00    +0.013 A 
ATOM     19  C   UNL     1       9.819   4.143   7.846  0.00  0.00    +0.001 A 
ATOM     20  C   UNL     1       9.172   6.087   9.126  0.00  0.00    +0.001 A 
ATOM     22  C   UNL     1       9.583   4.754   9.076  0.00  0.00    +0.000 A 
ENDBRANCH  12  13
BRANCH   7  11
ATOM      1  O   UNL     1      12.268   5.658   1.198  0.00  0.00    -0.420 OA
ATOM      5  N   UNL     1      11.654   4.210   2.788  0.00  0.00    -0.112 NA
ATOM      6  N   UNL     1      11.673   3.537   1.581  0.00  0.00    -0.107 NA
ATOM     11  C   UNL     1      12.008   5.444   2.517  0.00  0.00    +0.222 A 
ATOM     14  C   UNL     1      12.037   4.421   0.682  0.00  0.00    +0.252 A 
BRANCH  14  17
ATOM     17  C   UNL     1      12.223   4.286  -0.734  0.00  0.00    +0.080 A 
ATOM     18  C   UNL     1      11.148   4.415  -1.613  0.00  0.00    +0.132 A 
ATOM     21  C   UNL     1      13.501   4.023  -1.227  0.00  0.00    +0.017 A 
ATOM     23  C   UNL     1      11.350   4.279  -2.986  0.00  0.00    +0.046 A 
ATOM     24  C   UNL     1      13.704   3.887  -2.601  0.00  0.00    +0.001 A 
ATOM     25  C   UNL     1      12.628   4.015  -3.481  0.00  0.00    +0.004 A 
BRANCH  18   3
ATOM      3  O   UNL     1       9.888   4.672  -1.158  0.00  0.00    -0.494 OA
ATOM     26  C   UNL     1       9.051   5.470  -1.990  0.00  0.00    +0.277 C 
ENDBRANCH  18   3
ENDBRANCH  14  17
ENDBRANCH   7  11
TORSDOF 4
ENDMDL
MODEL 8
REMARK VINA RESULT:      -6.4     23.725     26.479
REMARK  Name = 51137799
REMARK  5 active torsions:
REMARK  status: ('A' for Active; 'I' for Inactive)
REMARK    1  A    between atoms: O_3  and  C_18
REMARK    2  A    between atoms: O_3  and  C_26
REMARK    3  A    between atoms: C_7  and  C_11
REMARK    4  A    between atoms: C_12  and  C_13
REMARK    5  A    between atoms: C_14  and  C_17
REMARK                            x       y       z     vdW  Elec       q    Type
REMARK                         _______ _______ _______ _____ _____    ______ ____
ROOT
ATOM      2  O   UNL     1       8.530   8.249   6.005  0.00  0.00    -0.270 OA
ATOM      4  N   UNL     1      10.835   8.469   6.183  0.00  0.00    -0.297 N 
ATOM      7  C   UNL     1      13.139   8.853   5.728  0.00  0.00    +0.095 C 
ATOM      8  C   UNL     1      12.367  10.179   5.639  0.00  0.00    +0.033 C 
ATOM      9  C   UNL     1      12.168   7.974   6.529  0.00  0.00    +0.121 C 
ATOM     10  C   UNL     1      10.914   9.748   5.494  0.00  0.00    +0.109 C 
ATOM     12  C   UNL     1       9.623   7.826   6.378  0.00  0.00    +0.247 C 
ENDROOT
BRANCH  12  13
ATOM     13  C   UNL     1       9.645   6.529   7.073  0.00  0.00    +0.037 A 
ATOM     15  C   UNL     1       9.469   6.476   8.455  0.00  0.00    +0.013 A 
ATOM     16  C   UNL     1       9.842   5.354   6.348  0.00  0.00    +0.013 A 
ATOM     19  C   UNL     1       9.488   5.246   9.113  0.00  0.00    +0.001 A 
ATOM     20  C   UNL     1       9.860   4.124   7.006  0.00  0.00    +0.001 A 
ATOM     22  C   UNL     1       9.684   4.071   8.389  0.00  0.00    +0.000 A 
ENDBRANCH  12  13
BRANCH   7  11
ATOM      1  O   UNL     1      13.172   7.073   4.037  0.00  0.00    -0.420 OA
ATOM      5  N   UNL     1      14.203   8.953   3.399  0.00  0.00    -0.112 NA
ATOM      6  N   UNL     1      14.295   8.042   2.363  0.00  0.00    -0.107 NA
ATOM     11  C   UNL     1      13.540   8.345   4.355  0.00  0.00    +0.222 A 
ATOM     14  C   UNL     1      13.680   6.961   2.780  0.00  0.00    +0.252 A 
BRANCH  14  17
ATOM     17  C   UNL     1      13.464   5.702   2.127  0.00  0.00    +0.080 A 
ATOM     18  C   UNL     1      12.211   5.367   1.614  0.00  0.00    +0.132 A 
ATOM     21  C   UNL     1      14.528   4.808   2.008  0.00  0.00    +0.017 A 
ATOM     23  C   UNL     1      12.021   4.137   0.984  0.00  0.00    +0.046 A 
ATOM     24  C   UNL     1      14.339   3.578   1.377  0.00  0.00    +0.001 A 
ATOM     25  C   UNL     1      13.085   3.242   0.866  0.00  0.00    +0.004 A 
BRANCH  18   3
ATOM      3  O   UNL     1      11.152   6.221   1.716  0.00  0.00    -0.494 OA
ATOM     26  C   UNL     1      10.096   5.838   2.593  0.00  0.00    +0.277 C 
ENDBRANCH  18   3
ENDBRANCH  14  17
ENDBRANCH   7  11
TORSDOF 4
ENDMDL
MODEL 9
REMARK VINA RESULT:      -6.3     24.244     26.309
REMARK  Name = 51137799
REMARK  5 active torsions:
REMARK  status: ('A' for Active; 'I' for Inactive)
REMARK    1  A    between atoms: O_3  and  C_18
REMARK    2  A    between atoms: O_3  and  C_26
REMARK    3  A    between atoms: C_7  and  C_11
REMARK    4  A    between atoms: C_12  and  C_13
REMARK    5  A    between atoms: C_14  and  C_17
REMARK                            x       y       z     vdW  Elec       q    Type
REMARK                         _______ _______ _______ _____ _____    ______ ____
ROOT
ATOM      2  O   UNL     1      20.346  -3.795  24.745  0.00  0.00    -0.270 OA
ATOM      4  N   UNL     1      19.345  -2.846  26.612  0.00  0.00    -0.297 N 
ATOM      7  C   UNL     1      18.508  -2.441  28.803  0.00  0.00    +0.095 C 
ATOM      8  C   UNL     1      20.044  -2.466  28.835  0.00  0.00    +0.033 C 
ATOM      9  C   UNL     1      18.225  -2.216  27.311  0.00  0.00    +0.121 C 
ATOM     10  C   UNL     1      20.425  -3.163  27.535  0.00  0.00    +0.109 C 
ATOM     12  C   UNL     1      19.410  -3.200  25.275  0.00  0.00    +0.247 C 
ENDROOT
BRANCH  12  13
ATOM     13  C   UNL     1      18.262  -2.850  24.423  0.00  0.00    +0.037 A 
ATOM     15  C   UNL     1      17.248  -3.783  24.202  0.00  0.00    +0.013 A 
ATOM     16  C   UNL     1      18.189  -1.587  23.836  0.00  0.00    +0.013 A 
ATOM     19  C   UNL     1      16.160  -3.450  23.395  0.00  0.00    +0.001 A 
ATOM     20  C   UNL     1      17.100  -1.255  23.030  0.00  0.00    +0.001 A 
ATOM     22  C   UNL     1      16.085  -2.187  22.810  0.00  0.00    +0.000 A 
ENDBRANCH  12  13
BRANCH   7  11
ATOM      1  O   UNL     1      16.577  -3.676  29.683  0.00  0.00    -0.420 OA
ATOM      5  N   UNL     1      18.499  -4.817  29.763  0.00  0.00    -0.112 NA
ATOM      6  N   UNL     1      17.503  -5.621  30.284  0.00  0.00    -0.107 NA
ATOM     11  C   UNL     1      17.913  -3.692  29.425  0.00  0.00    +0.222 A 
ATOM     14  C   UNL     1      16.399  -4.915  30.217  0.00  0.00    +0.252 A 
BRANCH  14  17
ATOM     17  C   UNL     1      15.059  -5.241  30.614  0.00  0.00    +0.080 A 
ATOM     18  C   UNL     1      14.321  -6.199  29.921  0.00  0.00    +0.132 A 
ATOM     21  C   UNL     1      14.498  -4.584  31.708  0.00  0.00    +0.017 A 
ATOM     23  C   UNL     1      13.019  -6.501  30.321  0.00  0.00    +0.046 A 
ATOM     24  C   UNL     1      13.196  -4.885  32.110  0.00  0.00    +0.001 A 
ATOM     25  C   UNL     1      12.456  -5.844  31.416  0.00  0.00    +0.004 A 
BRANCH  18   3
ATOM      3  O   UNL     1      14.845  -6.856  28.846  0.00  0.00    -0.494 OA
ATOM     26  C   UNL     1      15.181  -8.229  29.029  0.00  0.00    +0.277 C 
ENDBRANCH  18   3
ENDBRANCH  14  17
ENDBRANCH   7  11
TORSDOF 4
ENDMDL
MODEL 10
REMARK VINA RESULT:      -6.2     24.552     26.545
REMARK  Name = 51137799
REMARK  5 active torsions:
REMARK  status: ('A' for Active; 'I' for Inactive)
REMARK    1  A    between atoms: O_3  and  C_18
REMARK    2  A    between atoms: O_3  and  C_26
REMARK    3  A    between atoms: C_7  and  C_11
REMARK    4  A    between atoms: C_12  and  C_13
REMARK    5  A    between atoms: C_14  and  C_17
REMARK                            x       y       z     vdW  Elec       q    Type
REMARK                         _______ _______ _______ _____ _____    ______ ____
ROOT
ATOM      2  O   UNL     1      20.352  -3.964  24.729  0.00  0.00    -0.270 OA
ATOM      4  N   UNL     1      19.394  -3.012  26.618  0.00  0.00    -0.297 N 
ATOM      7  C   UNL     1      18.578  -2.618  28.819  0.00  0.00    +0.095 C 
ATOM      8  C   UNL     1      20.112  -2.705  28.845  0.00  0.00    +0.033 C 
ATOM      9  C   UNL     1      18.301  -2.352  27.332  0.00  0.00    +0.121 C 
ATOM     10  C   UNL     1      20.462  -3.391  27.531  0.00  0.00    +0.109 C 
ATOM     12  C   UNL     1      19.441  -3.342  25.273  0.00  0.00    +0.247 C 
ENDROOT
BRANCH  12  13
ATOM     13  C   UNL     1      18.307  -2.930  24.432  0.00  0.00    +0.037 A 
ATOM     15  C   UNL     1      18.323  -1.686  23.801  0.00  0.00    +0.013 A 
ATOM     16  C   UNL     1      17.217  -3.784  24.264  0.00  0.00    +0.013 A 
ATOM     19  C   UNL     1      17.249  -1.296  23.002  0.00  0.00    +0.001 A 
ATOM     20  C   UNL     1      16.143  -3.394  23.465  0.00  0.00    +0.001 A 
ATOM     22  C   UNL     1      16.159  -2.149  22.834  0.00  0.00    +0.000 A 
ENDBRANCH  12  13
BRANCH   7  11
ATOM      1  O   UNL     1      16.602  -3.790  29.684  0.00  0.00    -0.420 OA
ATOM      5  N   UNL     1      18.475  -5.011  29.728  0.00  0.00    -0.112 NA
ATOM      6  N   UNL     1      17.449  -5.784  30.238  0.00  0.00    -0.107 NA
ATOM     11  C   UNL     1      17.935  -3.856  29.418  0.00  0.00    +0.222 A 
ATOM     14  C   UNL     1      16.375  -5.031  30.193  0.00  0.00    +0.252 A 
BRANCH  14  17
ATOM     17  C   UNL     1      15.025  -5.309  30.591  0.00  0.00    +0.080 A 
ATOM     18  C   UNL     1      14.445  -4.641  31.669  0.00  0.00    +0.132 A 
ATOM     21  C   UNL     1      14.292  -6.262  29.884  0.00  0.00    +0.017 A 
ATOM     23  C   UNL     1      13.132  -4.927  32.041  0.00  0.00    +0.046 A 
ATOM     24  C   UNL     1      12.978  -6.548  30.255  0.00  0.00    +0.001 A 
ATOM     25  C   UNL     1      12.398  -5.880  31.335  0.00  0.00    +0.004 A 
BRANCH  18   3
ATOM      3  O   UNL     1      15.139  -3.705  32.379  0.00  0.00    -0.494 OA
ATOM     26  C   UNL     1      15.569  -4.074  33.687  0.00  0.00    +0.277 C 
ENDBRANCH  18   3
ENDBRANCH  14  17
ENDBRANCH   7  11
TORSDOF 4
ENDMDL
