MODEL 1
REMARK VINA RESULT:      -7.4      0.000      0.000
REMARK  Name = 75536732
REMARK  10 active torsions:
REMARK  status: ('A' for Active; 'I' for Inactive)
REMARK    1  A    between atoms: O_2  and  C_9
REMARK    2  A    between atoms: O_4  and  C_16
REMARK    3  A    between atoms: N_5  and  C_8
REMARK    4  A    between atoms: N_5  and  C_13
REMARK    5  A    between atoms: N_6  and  C_12
REMARK    6  A    between atoms: N_7  and  C_18
REMARK    7  A    between atoms: C_10  and  C_12
REMARK    8  A    between atoms: C_13  and  C_14
REMARK    9  A    between atoms: C_18  and  C_21
REMARK   10  A    between atoms: C_18  and  C_22
REMARK                            x       y       z     vdW  Elec       q    Type
REMARK                         _______ _______ _______ _____ _____    ______ ____
ROOT
ATOM      1  O   UNL     1      10.556   8.450  19.977  0.00  0.00    -0.371 OA
ATOM      8  C   UNL     1      12.711   7.685  19.335  0.00  0.00    +0.111 C 
ATOM      9  C   UNL     1      12.542   7.492  20.831  0.00  0.00    +0.164 C 
ATOM     10  C   UNL     1      11.025   7.512  20.960  0.00  0.00    +0.165 C 
ATOM     11  C   UNL     1      11.617   8.698  19.038  0.00  0.00    +0.181 C 
ENDROOT
BRANCH   9   2
ATOM      2  O   UNL     1      13.094   6.272  21.290  0.00  0.00    -0.388 OA
ATOM     25  H   UNL     1      12.903   5.584  20.631  0.00  0.00    +0.210 HD
ENDBRANCH   9   2
BRANCH   8   5
ATOM      5  N   UNL     1      14.034   8.152  18.953  0.00  0.00    -0.305 NA
ATOM     24  H   UNL     1      14.455   8.643  19.743  0.00  0.00    +0.123 HD
BRANCH   5  13
ATOM     13  C   UNL     1      14.896   7.038  18.576  0.00  0.00    +0.120 C 
BRANCH  13  14
ATOM     14  C   UNL     1      16.133   6.971  19.431  0.00  0.00    +0.008 A 
ATOM     16  C   UNL     1      17.135   6.038  19.163  0.00  0.00    +0.121 A 
ATOM     17  C   UNL     1      16.271   7.855  20.502  0.00  0.00    +0.008 A 
ATOM     19  C   UNL     1      18.275   5.989  19.966  0.00  0.00    +0.046 A 
ATOM     20  C   UNL     1      17.411   7.805  21.304  0.00  0.00    +0.001 A 
ATOM     23  C   UNL     1      18.413   6.873  21.036  0.00  0.00    +0.004 A 
BRANCH  16   4
ATOM      4  O   UNL     1      17.017   5.167  18.123  0.00  0.00    -0.506 OA
ATOM     28  H   UNL     1      16.140   5.275  17.717  0.00  0.00    +0.292 HD
ENDBRANCH  16   4
ENDBRANCH  13  14
ENDBRANCH   5  13
ENDBRANCH   8   5
BRANCH  10  12
ATOM     12  C   UNL     1      10.546   7.931  22.339  0.00  0.00    +0.140 C 
BRANCH  12   6
ATOM      3  O   UNL     1      12.260  10.153  23.006  0.00  0.00    -0.253 OA
ATOM      6  N   UNL     1      10.189   9.320  22.367  0.00  0.00    -0.297 N 
ATOM      7  N   UNL     1      10.475  11.592  22.649  0.00  0.00    -0.297 N 
ATOM     15  C   UNL     1      11.083  10.341  22.702  0.00  0.00    +0.300 C 
ATOM     26  H   UNL     1       9.231   9.573  22.144  0.00  0.00    +0.150 HD
ATOM     27  H   UNL     1       9.518  11.651  22.314  0.00  0.00    +0.150 HD
BRANCH   7  18
ATOM     18  C   UNL     1      11.179  12.817  22.951  0.00  0.00    +0.068 C 
ATOM     21  C   UNL     1      11.464  13.598  21.674  0.00  0.00    +0.027 C 
ATOM     22  C   UNL     1      10.383  13.653  23.944  0.00  0.00    +0.027 C 
ENDBRANCH   7  18
ENDBRANCH  12   6
ENDBRANCH  10  12
TORSDOF 8
ENDMDL
MODEL 2
REMARK VINA RESULT:      -6.8      2.979      7.209
REMARK  Name = 75536732
REMARK  10 active torsions:
REMARK  status: ('A' for Active; 'I' for Inactive)
REMARK    1  A    between atoms: O_2  and  C_9
REMARK    2  A    between atoms: O_4  and  C_16
REMARK    3  A    between atoms: N_5  and  C_8
REMARK    4  A    between atoms: N_5  and  C_13
REMARK    5  A    between atoms: N_6  and  C_12
REMARK    6  A    between atoms: N_7  and  C_18
REMARK    7  A    between atoms: C_10  and  C_12
REMARK    8  A    between atoms: C_13  and  C_14
REMARK    9  A    between atoms: C_18  and  C_21
REMARK   10  A    between atoms: C_18  and  C_22
REMARK                            x       y       z     vdW  Elec       q    Type
REMARK                         _______ _______ _______ _____ _____    ______ ____
ROOT
ATOM      1  O   UNL     1      13.154   7.859  21.742  0.00  0.00    -0.371 OA
ATOM      8  C   UNL     1      11.204   8.829  22.689  0.00  0.00    +0.111 C 
ATOM      9  C   UNL     1      10.793   7.845  21.608  0.00  0.00    +0.164 C 
ATOM     10  C   UNL     1      12.042   6.979  21.510  0.00  0.00    +0.165 C 
ATOM     11  C   UNL     1      12.661   9.074  22.333  0.00  0.00    +0.181 C 
ENDROOT
BRANCH   9   2
ATOM      2  O   UNL     1       9.653   7.088  21.965  0.00  0.00    -0.388 OA
ATOM     25  H   UNL     1       8.868   7.653  21.865  0.00  0.00    +0.210 HD
ENDBRANCH   9   2
BRANCH   8   5
ATOM      5  N   UNL     1      10.411  10.048  22.700  0.00  0.00    -0.305 NA
ATOM     24  H   UNL     1       9.955  10.140  23.608  0.00  0.00    +0.123 HD
BRANCH   5  13
ATOM     13  C   UNL     1      11.247  11.221  22.469  0.00  0.00    +0.120 C 
BRANCH  13  14
ATOM     14  C   UNL     1      10.931  12.333  23.433  0.00  0.00    +0.008 A 
ATOM     16  C   UNL     1      11.033  12.132  24.810  0.00  0.00    +0.121 A 
ATOM     17  C   UNL     1      10.531  13.573  22.936  0.00  0.00    +0.008 A 
ATOM     19  C   UNL     1      10.736  13.173  25.690  0.00  0.00    +0.046 A 
ATOM     20  C   UNL     1      10.234  14.614  23.817  0.00  0.00    +0.001 A 
ATOM     23  C   UNL     1      10.337  14.414  25.193  0.00  0.00    +0.004 A 
BRANCH  16   4
ATOM      4  O   UNL     1      11.421  10.927  25.312  0.00  0.00    -0.506 OA
ATOM     28  H   UNL     1      11.104  10.848  26.228  0.00  0.00    +0.292 HD
ENDBRANCH  16   4
ENDBRANCH  13  14
ENDBRANCH   5  13
ENDBRANCH   8   5
BRANCH  10  12
ATOM     12  C   UNL     1      12.196   6.300  20.161  0.00  0.00    +0.140 C 
BRANCH  12   6
ATOM      3  O   UNL     1      14.109   7.628  18.458  0.00  0.00    -0.253 OA
ATOM      6  N   UNL     1      11.913   7.205  19.086  0.00  0.00    -0.297 N 
ATOM      7  N   UNL     1      12.350   8.641  17.332  0.00  0.00    -0.297 N 
ATOM     15  C   UNL     1      12.902   7.810  18.304  0.00  0.00    +0.300 C 
ATOM     26  H   UNL     1      10.942   7.429  18.891  0.00  0.00    +0.150 HD
ATOM     27  H   UNL     1      11.340   8.666  17.235  0.00  0.00    +0.150 HD
BRANCH   7  18
ATOM     18  C   UNL     1      13.154   9.386  16.392  0.00  0.00    +0.068 C 
ATOM     21  C   UNL     1      12.324   9.789  15.180  0.00  0.00    +0.027 C 
ATOM     22  C   UNL     1      13.770  10.602  17.070  0.00  0.00    +0.027 C 
ENDBRANCH   7  18
ENDBRANCH  12   6
ENDBRANCH  10  12
TORSDOF 8
ENDMDL
MODEL 3
REMARK VINA RESULT:      -6.7      3.514      5.112
REMARK  Name = 75536732
REMARK  10 active torsions:
REMARK  status: ('A' for Active; 'I' for Inactive)
REMARK    1  A    between atoms: O_2  and  C_9
REMARK    2  A    between atoms: O_4  and  C_16
REMARK    3  A    between atoms: N_5  and  C_8
REMARK    4  A    between atoms: N_5  and  C_13
REMARK    5  A    between atoms: N_6  and  C_12
REMARK    6  A    between atoms: N_7  and  C_18
REMARK    7  A    between atoms: C_10  and  C_12
REMARK    8  A    between atoms: C_13  and  C_14
REMARK    9  A    between atoms: C_18  and  C_21
REMARK   10  A    between atoms: C_18  and  C_22
REMARK                            x       y       z     vdW  Elec       q    Type
REMARK                         _______ _______ _______ _____ _____    ______ ____
ROOT
ATOM      1  O   UNL     1      11.357   7.360  19.653  0.00  0.00    -0.371 OA
ATOM      8  C   UNL     1      13.518   7.295  20.634  0.00  0.00    +0.111 C 
ATOM      9  C   UNL     1      13.587   8.081  19.338  0.00  0.00    +0.164 C 
ATOM     10  C   UNL     1      12.126   8.466  19.151  0.00  0.00    +0.165 C 
ATOM     11  C   UNL     1      12.217   6.531  20.454  0.00  0.00    +0.181 C 
ENDROOT
BRANCH   9   2
ATOM      2  O   UNL     1      14.423   9.218  19.432  0.00  0.00    -0.388 OA
ATOM     25  H   UNL     1      15.227   9.049  18.912  0.00  0.00    +0.210 HD
ENDBRANCH   9   2
BRANCH   8   5
ATOM      5  N   UNL     1      14.662   6.423  20.849  0.00  0.00    -0.305 NA
ATOM     24  H   UNL     1      14.339   5.455  20.892  0.00  0.00    +0.123 HD
BRANCH   5  13
ATOM     13  C   UNL     1      15.630   6.550  19.766  0.00  0.00    +0.120 C 
BRANCH  13  14
ATOM     14  C   UNL     1      17.032   6.724  20.285  0.00  0.00    +0.008 A 
ATOM     16  C   UNL     1      17.343   7.763  21.164  0.00  0.00    +0.121 A 
ATOM     17  C   UNL     1      18.026   5.835  19.878  0.00  0.00    +0.008 A 
ATOM     19  C   UNL     1      18.647   7.910  21.636  0.00  0.00    +0.046 A 
ATOM     20  C   UNL     1      19.331   5.983  20.349  0.00  0.00    +0.001 A 
ATOM     23  C   UNL     1      19.641   7.020  21.228  0.00  0.00    +0.004 A 
BRANCH  16   4
ATOM      4  O   UNL     1      16.384   8.641  21.572  0.00  0.00    -0.506 OA
ATOM     28  H   UNL     1      16.114   8.418  22.479  0.00  0.00    +0.292 HD
ENDBRANCH  16   4
ENDBRANCH  13  14
ENDBRANCH   5  13
ENDBRANCH   8   5
BRANCH  10  12
ATOM     12  C   UNL     1      11.756   8.733  17.702  0.00  0.00    +0.140 C 
BRANCH  12   6
ATOM      3  O   UNL     1      13.269   8.856  15.249  0.00  0.00    -0.253 OA
ATOM      6  N   UNL     1      12.468   9.863  17.182  0.00  0.00    -0.297 N 
ATOM      7  N   UNL     1      13.775  11.073  15.714  0.00  0.00    -0.297 N 
ATOM     15  C   UNL     1      13.180   9.841  15.979  0.00  0.00    +0.300 C 
ATOM     26  H   UNL     1      12.465  10.723  17.724  0.00  0.00    +0.150 HD
ATOM     27  H   UNL     1      13.581  11.848  16.340  0.00  0.00    +0.150 HD
BRANCH   7  18
ATOM     18  C   UNL     1      14.569  11.319  14.533  0.00  0.00    +0.068 C 
ATOM     21  C   UNL     1      14.015  12.504  13.753  0.00  0.00    +0.027 C 
ATOM     22  C   UNL     1      16.027  11.540  14.913  0.00  0.00    +0.027 C 
ENDBRANCH   7  18
ENDBRANCH  12   6
ENDBRANCH  10  12
TORSDOF 8
ENDMDL
MODEL 4
REMARK VINA RESULT:      -6.6     26.481     29.379
REMARK  Name = 75536732
REMARK  10 active torsions:
REMARK  status: ('A' for Active; 'I' for Inactive)
REMARK    1  A    between atoms: O_2  and  C_9
REMARK    2  A    between atoms: O_4  and  C_16
REMARK    3  A    between atoms: N_5  and  C_8
REMARK    4  A    between atoms: N_5  and  C_13
REMARK    5  A    between atoms: N_6  and  C_12
REMARK    6  A    between atoms: N_7  and  C_18
REMARK    7  A    between atoms: C_10  and  C_12
REMARK    8  A    between atoms: C_13  and  C_14
REMARK    9  A    between atoms: C_18  and  C_21
REMARK   10  A    between atoms: C_18  and  C_22
REMARK                            x       y       z     vdW  Elec       q    Type
REMARK                         _______ _______ _______ _____ _____    ______ ____
ROOT
ATOM      1  O   UNL     1     -18.259   3.960  24.623  0.00  0.00    -0.371 OA
ATOM      8  C   UNL     1     -16.515   4.016  23.012  0.00  0.00    +0.111 C 
ATOM      9  C   UNL     1     -15.924   4.250  24.390  0.00  0.00    +0.164 C 
ATOM     10  C   UNL     1     -17.014   3.669  25.280  0.00  0.00    +0.165 C 
ATOM     11  C   UNL     1     -17.983   4.323  23.259  0.00  0.00    +0.181 C 
ENDROOT
BRANCH   9   2
ATOM      2  O   UNL     1     -14.686   3.589  24.573  0.00  0.00    -0.388 OA
ATOM     25  H   UNL     1     -14.692   3.167  25.449  0.00  0.00    +0.210 HD
ENDBRANCH   9   2
BRANCH   8   5
ATOM      5  N   UNL     1     -15.929   4.850  21.976  0.00  0.00    -0.305 NA
ATOM     24  H   UNL     1     -16.622   5.010  21.244  0.00  0.00    +0.123 HD
BRANCH   5  13
ATOM     13  C   UNL     1     -15.505   6.137  22.515  0.00  0.00    +0.120 C 
BRANCH  13  14
ATOM     14  C   UNL     1     -14.246   6.633  21.856  0.00  0.00    +0.008 A 
ATOM     16  C   UNL     1     -13.130   5.804  21.734  0.00  0.00    +0.121 A 
ATOM     17  C   UNL     1     -14.201   7.939  21.366  0.00  0.00    +0.008 A 
ATOM     19  C   UNL     1     -11.971   6.279  21.122  0.00  0.00    +0.046 A 
ATOM     20  C   UNL     1     -13.041   8.414  20.753  0.00  0.00    +0.001 A 
ATOM     23  C   UNL     1     -11.927   7.584  20.631  0.00  0.00    +0.004 A 
BRANCH  16   4
ATOM      4  O   UNL     1     -13.156   4.527  22.208  0.00  0.00    -0.506 OA
ATOM     28  H   UNL     1     -13.037   3.910  21.466  0.00  0.00    +0.292 HD
ENDBRANCH  16   4
ENDBRANCH  13  14
ENDBRANCH   5  13
ENDBRANCH   8   5
BRANCH  10  12
ATOM     12  C   UNL     1     -17.023   4.256  26.680  0.00  0.00    +0.140 C 
BRANCH  12   6
ATOM      3  O   UNL     1     -16.848   2.858  29.197  0.00  0.00    -0.253 OA
ATOM      6  N   UNL     1     -15.829   3.913  27.397  0.00  0.00    -0.297 N 
ATOM      7  N   UNL     1     -14.536   3.028  29.091  0.00  0.00    -0.297 N 
ATOM     15  C   UNL     1     -15.830   3.231  28.617  0.00  0.00    +0.300 C 
ATOM     26  H   UNL     1     -14.936   4.193  27.002  0.00  0.00    +0.150 HD
ATOM     27  H   UNL     1     -13.756   3.306  28.502  0.00  0.00    +0.150 HD
BRANCH   7  18
ATOM     18  C   UNL     1     -14.256   2.346  30.333  0.00  0.00    +0.068 C 
ATOM     21  C   UNL     1     -13.688   0.958  30.066  0.00  0.00    +0.027 C 
ATOM     22  C   UNL     1     -13.308   3.176  31.189  0.00  0.00    +0.027 C 
ENDBRANCH   7  18
ENDBRANCH  12   6
ENDBRANCH  10  12
TORSDOF 8
ENDMDL
MODEL 5
REMARK VINA RESULT:      -6.6     27.194     30.348
REMARK  Name = 75536732
REMARK  10 active torsions:
REMARK  status: ('A' for Active; 'I' for Inactive)
REMARK    1  A    between atoms: O_2  and  C_9
REMARK    2  A    between atoms: O_4  and  C_16
REMARK    3  A    between atoms: N_5  and  C_8
REMARK    4  A    between atoms: N_5  and  C_13
REMARK    5  A    between atoms: N_6  and  C_12
REMARK    6  A    between atoms: N_7  and  C_18
REMARK    7  A    between atoms: C_10  and  C_12
REMARK    8  A    between atoms: C_13  and  C_14
REMARK    9  A    between atoms: C_18  and  C_21
REMARK   10  A    between atoms: C_18  and  C_22
REMARK                            x       y       z     vdW  Elec       q    Type
REMARK                         _______ _______ _______ _____ _____    ______ ____
ROOT
ATOM      1  O   UNL     1     -18.689   3.331  25.319  0.00  0.00    -0.371 OA
ATOM      8  C   UNL     1     -16.908   2.667  23.895  0.00  0.00    +0.111 C 
ATOM      9  C   UNL     1     -16.720   2.022  25.256  0.00  0.00    +0.164 C 
ATOM     10  C   UNL     1     -18.134   2.101  25.816  0.00  0.00    +0.165 C 
ATOM     11  C   UNL     1     -17.875   3.792  24.227  0.00  0.00    +0.181 C 
ENDROOT
BRANCH   9   2
ATOM      2  O   UNL     1     -16.262   0.686  25.169  0.00  0.00    -0.388 OA
ATOM     25  H   UNL     1     -16.705   0.261  24.415  0.00  0.00    +0.210 HD
ENDBRANCH   9   2
BRANCH   8   5
ATOM      5  N   UNL     1     -15.670   3.142  23.300  0.00  0.00    -0.305 NA
ATOM     24  H   UNL     1     -15.794   3.222  22.290  0.00  0.00    +0.123 HD
BRANCH   5  13
ATOM     13  C   UNL     1     -15.296   4.447  23.834  0.00  0.00    +0.120 C 
BRANCH  13  14
ATOM     14  C   UNL     1     -14.647   5.315  22.790  0.00  0.00    +0.008 A 
ATOM     16  C   UNL     1     -13.293   5.170  22.484  0.00  0.00    +0.121 A 
ATOM     17  C   UNL     1     -15.413   6.273  22.126  0.00  0.00    +0.008 A 
ATOM     19  C   UNL     1     -12.707   5.983  21.514  0.00  0.00    +0.046 A 
ATOM     20  C   UNL     1     -14.826   7.086  21.156  0.00  0.00    +0.001 A 
ATOM     23  C   UNL     1     -13.473   6.941  20.850  0.00  0.00    +0.004 A 
BRANCH  16   4
ATOM      4  O   UNL     1     -12.529   4.241  23.123  0.00  0.00    -0.506 OA
ATOM     28  H   UNL     1     -13.099   3.511  23.418  0.00  0.00    +0.292 HD
ENDBRANCH  16   4
ENDBRANCH  13  14
ENDBRANCH   5  13
ENDBRANCH   8   5
BRANCH  10  12
ATOM     12  C   UNL     1     -18.181   2.093  27.333  0.00  0.00    +0.140 C 
BRANCH  12   6
ATOM      3  O   UNL     1     -15.930   2.434  29.106  0.00  0.00    -0.253 OA
ATOM      6  N   UNL     1     -17.344   1.062  27.875  0.00  0.00    -0.297 N 
ATOM      7  N   UNL     1     -15.628   0.133  29.106  0.00  0.00    -0.297 N 
ATOM     15  C   UNL     1     -16.268   1.312  28.732  0.00  0.00    +0.300 C 
ATOM     26  H   UNL     1     -17.536   0.101  27.611  0.00  0.00    +0.150 HD
ATOM     27  H   UNL     1     -16.028  -0.751  28.806  0.00  0.00    +0.150 HD
BRANCH   7  18
ATOM     18  C   UNL     1     -14.484   0.110  29.988  0.00  0.00    +0.068 C 
ATOM     21  C   UNL     1     -14.913  -0.211  31.414  0.00  0.00    +0.027 C 
ATOM     22  C   UNL     1     -13.449  -0.887  29.485  0.00  0.00    +0.027 C 
ENDBRANCH   7  18
ENDBRANCH  12   6
ENDBRANCH  10  12
TORSDOF 8
ENDMDL
MODEL 6
REMARK VINA RESULT:      -6.5      4.197      9.329
REMARK  Name = 75536732
REMARK  10 active torsions:
REMARK  status: ('A' for Active; 'I' for Inactive)
REMARK    1  A    between atoms: O_2  and  C_9
REMARK    2  A    between atoms: O_4  and  C_16
REMARK    3  A    between atoms: N_5  and  C_8
REMARK    4  A    between atoms: N_5  and  C_13
REMARK    5  A    between atoms: N_6  and  C_12
REMARK    6  A    between atoms: N_7  and  C_18
REMARK    7  A    between atoms: C_10  and  C_12
REMARK    8  A    between atoms: C_13  and  C_14
REMARK    9  A    between atoms: C_18  and  C_21
REMARK   10  A    between atoms: C_18  and  C_22
REMARK                            x       y       z     vdW  Elec       q    Type
REMARK                         _______ _______ _______ _____ _____    ______ ____
ROOT
ATOM      1  O   UNL     1      17.526   6.968  21.587  0.00  0.00    -0.371 OA
ATOM      8  C   UNL     1      16.224   6.203  19.753  0.00  0.00    +0.111 C 
ATOM      9  C   UNL     1      17.688   6.205  19.354  0.00  0.00    +0.164 C 
ATOM     10  C   UNL     1      18.364   6.187  20.718  0.00  0.00    +0.165 C 
ATOM     11  C   UNL     1      16.241   7.127  20.961  0.00  0.00    +0.181 C 
ENDROOT
BRANCH   9   2
ATOM      2  O   UNL     1      18.043   5.078  18.575  0.00  0.00    -0.388 OA
ATOM     25  H   UNL     1      17.512   5.091  17.761  0.00  0.00    +0.210 HD
ENDBRANCH   9   2
BRANCH   8   5
ATOM      5  N   UNL     1      15.332   6.663  18.702  0.00  0.00    -0.305 NA
ATOM     24  H   UNL     1      14.556   6.006  18.611  0.00  0.00    +0.123 HD
BRANCH   5  13
ATOM     13  C   UNL     1      14.798   7.986  19.006  0.00  0.00    +0.120 C 
BRANCH  13  14
ATOM     14  C   UNL     1      13.742   8.405  18.019  0.00  0.00    +0.008 A 
ATOM     16  C   UNL     1      12.471   7.828  18.047  0.00  0.00    +0.121 A 
ATOM     17  C   UNL     1      14.044   9.381  17.069  0.00  0.00    +0.008 A 
ATOM     19  C   UNL     1      11.504   8.227  17.125  0.00  0.00    +0.046 A 
ATOM     20  C   UNL     1      13.076   9.780  16.147  0.00  0.00    +0.001 A 
ATOM     23  C   UNL     1      11.806   9.203  16.175  0.00  0.00    +0.004 A 
BRANCH  16   4
ATOM      4  O   UNL     1      12.160   6.873  18.967  0.00  0.00    -0.506 OA
ATOM     28  H   UNL     1      12.270   5.995  18.564  0.00  0.00    +0.292 HD
ENDBRANCH  16   4
ENDBRANCH  13  14
ENDBRANCH   5  13
ENDBRANCH   8   5
BRANCH  10  12
ATOM     12  C   UNL     1      19.767   6.768  20.700  0.00  0.00    +0.140 C 
BRANCH  12   6
ATOM      3  O   UNL     1      21.990   5.545  22.074  0.00  0.00    -0.253 OA
ATOM      6  N   UNL     1      20.711   5.835  20.157  0.00  0.00    -0.297 N 
ATOM      7  N   UNL     1      22.526   4.410  20.122  0.00  0.00    -0.297 N 
ATOM     15  C   UNL     1      21.765   5.285  20.893  0.00  0.00    +0.300 C 
ATOM     26  H   UNL     1      20.615   5.569  19.182  0.00  0.00    +0.150 HD
ATOM     27  H   UNL     1      22.216   4.202  19.178  0.00  0.00    +0.150 HD
BRANCH   7  18
ATOM     18  C   UNL     1      23.676   3.707  20.643  0.00  0.00    +0.068 C 
ATOM     21  C   UNL     1      23.352   2.234  20.854  0.00  0.00    +0.027 C 
ATOM     22  C   UNL     1      24.868   3.883  19.713  0.00  0.00    +0.027 C 
ENDBRANCH   7  18
ENDBRANCH  12   6
ENDBRANCH  10  12
TORSDOF 8
ENDMDL
MODEL 7
REMARK VINA RESULT:      -6.5      3.554      8.859
REMARK  Name = 75536732
REMARK  10 active torsions:
REMARK  status: ('A' for Active; 'I' for Inactive)
REMARK    1  A    between atoms: O_2  and  C_9
REMARK    2  A    between atoms: O_4  and  C_16
REMARK    3  A    between atoms: N_5  and  C_8
REMARK    4  A    between atoms: N_5  and  C_13
REMARK    5  A    between atoms: N_6  and  C_12
REMARK    6  A    between atoms: N_7  and  C_18
REMARK    7  A    between atoms: C_10  and  C_12
REMARK    8  A    between atoms: C_13  and  C_14
REMARK    9  A    between atoms: C_18  and  C_21
REMARK   10  A    between atoms: C_18  and  C_22
REMARK                            x       y       z     vdW  Elec       q    Type
REMARK                         _______ _______ _______ _____ _____    ______ ____
ROOT
ATOM      1  O   UNL     1      16.882   7.297  21.633  0.00  0.00    -0.371 OA
ATOM      8  C   UNL     1      15.292   6.670  19.984  0.00  0.00    +0.111 C 
ATOM      9  C   UNL     1      16.688   6.533  19.403  0.00  0.00    +0.164 C 
ATOM     10  C   UNL     1      17.526   6.444  20.671  0.00  0.00    +0.165 C 
ATOM     11  C   UNL     1      15.550   7.581  21.173  0.00  0.00    +0.181 C 
ENDROOT
BRANCH   9   2
ATOM      2  O   UNL     1      16.832   5.382  18.594  0.00  0.00    -0.388 OA
ATOM     25  H   UNL     1      16.193   5.441  17.864  0.00  0.00    +0.210 HD
ENDBRANCH   9   2
BRANCH   8   5
ATOM      5  N   UNL     1      14.323   7.218  19.050  0.00  0.00    -0.305 NA
ATOM     24  H   UNL     1      14.615   6.997  18.098  0.00  0.00    +0.123 HD
BRANCH   5  13
ATOM     13  C   UNL     1      12.996   6.657  19.279  0.00  0.00    +0.120 C 
BRANCH  13  14
ATOM     14  C   UNL     1      12.197   7.484  20.250  0.00  0.00    +0.008 A 
ATOM     16  C   UNL     1      11.548   6.886  21.331  0.00  0.00    +0.121 A 
ATOM     17  C   UNL     1      12.109   8.863  20.060  0.00  0.00    +0.008 A 
ATOM     19  C   UNL     1      10.812   7.667  22.221  0.00  0.00    +0.046 A 
ATOM     20  C   UNL     1      11.371   9.644  20.951  0.00  0.00    +0.001 A 
ATOM     23  C   UNL     1      10.723   9.046  22.031  0.00  0.00    +0.004 A 
BRANCH  16   4
ATOM      4  O   UNL     1      11.623   5.540  21.531  0.00  0.00    -0.506 OA
ATOM     28  H   UNL     1      11.644   5.092  20.668  0.00  0.00    +0.292 HD
ENDBRANCH  16   4
ENDBRANCH  13  14
ENDBRANCH   5  13
ENDBRANCH   8   5
BRANCH  10  12
ATOM     12  C   UNL     1      18.964   6.888  20.473  0.00  0.00    +0.140 C 
BRANCH  12   6
ATOM      3  O   UNL     1      21.521   6.359  21.701  0.00  0.00    -0.253 OA
ATOM      6  N   UNL     1      19.826   5.769  20.226  0.00  0.00    -0.297 N 
ATOM      7  N   UNL     1      21.684   4.417  20.441  0.00  0.00    -0.297 N 
ATOM     15  C   UNL     1      21.055   5.584  20.866  0.00  0.00    +0.300 C 
ATOM     26  H   UNL     1      19.533   5.080  19.540  0.00  0.00    +0.150 HD
ATOM     27  H   UNL     1      21.185   3.803  19.804  0.00  0.00    +0.150 HD
BRANCH   7  18
ATOM     18  C   UNL     1      22.969   3.992  20.947  0.00  0.00    +0.068 C 
ATOM     21  C   UNL     1      23.026   2.473  21.053  0.00  0.00    +0.027 C 
ATOM     22  C   UNL     1      24.088   4.526  20.063  0.00  0.00    +0.027 C 
ENDBRANCH   7  18
ENDBRANCH  12   6
ENDBRANCH  10  12
TORSDOF 8
ENDMDL
MODEL 8
REMARK VINA RESULT:      -6.5      2.712      3.673
REMARK  Name = 75536732
REMARK  10 active torsions:
REMARK  status: ('A' for Active; 'I' for Inactive)
REMARK    1  A    between atoms: O_2  and  C_9
REMARK    2  A    between atoms: O_4  and  C_16
REMARK    3  A    between atoms: N_5  and  C_8
REMARK    4  A    between atoms: N_5  and  C_13
REMARK    5  A    between atoms: N_6  and  C_12
REMARK    6  A    between atoms: N_7  and  C_18
REMARK    7  A    between atoms: C_10  and  C_12
REMARK    8  A    between atoms: C_13  and  C_14
REMARK    9  A    between atoms: C_18  and  C_21
REMARK   10  A    between atoms: C_18  and  C_22
REMARK                            x       y       z     vdW  Elec       q    Type
REMARK                         _______ _______ _______ _____ _____    ______ ____
ROOT
ATOM      1  O   UNL     1      11.580   6.560  20.347  0.00  0.00    -0.371 OA
ATOM      8  C   UNL     1      13.859   7.221  20.234  0.00  0.00    +0.111 C 
ATOM      9  C   UNL     1      13.136   8.106  21.233  0.00  0.00    +0.164 C 
ATOM     10  C   UNL     1      11.924   7.246  21.563  0.00  0.00    +0.165 C 
ATOM     11  C   UNL     1      12.695   6.648  19.442  0.00  0.00    +0.181 C 
ENDROOT
BRANCH   9   2
ATOM      2  O   UNL     1      13.914   8.383  22.381  0.00  0.00    -0.388 OA
ATOM     25  H   UNL     1      13.813   9.325  22.599  0.00  0.00    +0.210 HD
ENDBRANCH   9   2
BRANCH   8   5
ATOM      5  N   UNL     1      14.812   7.937  19.402  0.00  0.00    -0.305 NA
ATOM     24  H   UNL     1      15.724   7.485  19.475  0.00  0.00    +0.123 HD
BRANCH   5  13
ATOM     13  C   UNL     1      14.394   7.936  18.005  0.00  0.00    +0.120 C 
BRANCH  13  14
ATOM     14  C   UNL     1      14.366   9.326  17.428  0.00  0.00    +0.008 A 
ATOM     16  C   UNL     1      14.050   9.533  16.084  0.00  0.00    +0.121 A 
ATOM     17  C   UNL     1      14.660  10.413  18.251  0.00  0.00    +0.008 A 
ATOM     19  C   UNL     1      14.028  10.827  15.565  0.00  0.00    +0.046 A 
ATOM     20  C   UNL     1      14.639  11.708  17.730  0.00  0.00    +0.001 A 
ATOM     23  C   UNL     1      14.322  11.914  16.388  0.00  0.00    +0.004 A 
BRANCH  16   4
ATOM      4  O   UNL     1      13.761   8.483  15.266  0.00  0.00    -0.506 OA
ATOM     28  H   UNL     1      13.320   7.789  15.784  0.00  0.00    +0.292 HD
ENDBRANCH  16   4
ENDBRANCH  13  14
ENDBRANCH   5  13
ENDBRANCH   8   5
BRANCH  10  12
ATOM     12  C   UNL     1      10.732   8.051  22.052  0.00  0.00    +0.140 C 
BRANCH  12   6
ATOM      3  O   UNL     1      10.976  10.925  22.076  0.00  0.00    -0.253 OA
ATOM      6  N   UNL     1      11.085   8.879  23.168  0.00  0.00    -0.297 N 
ATOM      7  N   UNL     1      11.540  10.823  24.325  0.00  0.00    -0.297 N 
ATOM     15  C   UNL     1      11.182  10.272  23.097  0.00  0.00    +0.300 C 
ATOM     26  H   UNL     1      11.289   8.427  24.055  0.00  0.00    +0.150 HD
ATOM     27  H   UNL     1      11.615  10.207  25.129  0.00  0.00    +0.150 HD
BRANCH   7  18
ATOM     18  C   UNL     1      11.708  12.244  24.524  0.00  0.00    +0.068 C 
ATOM     21  C   UNL     1      10.733  12.755  25.577  0.00  0.00    +0.027 C 
ATOM     22  C   UNL     1      13.148  12.558  24.907  0.00  0.00    +0.027 C 
ENDBRANCH   7  18
ENDBRANCH  12   6
ENDBRANCH  10  12
TORSDOF 8
ENDMDL
MODEL 9
REMARK VINA RESULT:      -6.4      1.920      7.542
REMARK  Name = 75536732
REMARK  10 active torsions:
REMARK  status: ('A' for Active; 'I' for Inactive)
REMARK    1  A    between atoms: O_2  and  C_9
REMARK    2  A    between atoms: O_4  and  C_16
REMARK    3  A    between atoms: N_5  and  C_8
REMARK    4  A    between atoms: N_5  and  C_13
REMARK    5  A    between atoms: N_6  and  C_12
REMARK    6  A    between atoms: N_7  and  C_18
REMARK    7  A    between atoms: C_10  and  C_12
REMARK    8  A    between atoms: C_13  and  C_14
REMARK    9  A    between atoms: C_18  and  C_21
REMARK   10  A    between atoms: C_18  and  C_22
REMARK                            x       y       z     vdW  Elec       q    Type
REMARK                         _______ _______ _______ _____ _____    ______ ____
ROOT
ATOM      1  O   UNL     1      10.736   7.290  21.361  0.00  0.00    -0.371 OA
ATOM      8  C   UNL     1      11.412   9.479  21.990  0.00  0.00    +0.111 C 
ATOM      9  C   UNL     1      12.449   8.892  21.049  0.00  0.00    +0.164 C 
ATOM     10  C   UNL     1      11.638   7.800  20.364  0.00  0.00    +0.165 C 
ATOM     11  C   UNL     1      10.682   8.227  22.451  0.00  0.00    +0.181 C 
ENDROOT
BRANCH   9   2
ATOM      2  O   UNL     1      12.945   9.840  20.123  0.00  0.00    -0.388 OA
ATOM     25  H   UNL     1      12.366   9.835  19.343  0.00  0.00    +0.210 HD
ENDBRANCH   9   2
BRANCH   8   5
ATOM      5  N   UNL     1      11.986  10.236  23.090  0.00  0.00    -0.305 NA
ATOM     24  H   UNL     1      12.431  11.077  22.719  0.00  0.00    +0.123 HD
BRANCH   5  13
ATOM     13  C   UNL     1      10.960  10.629  24.050  0.00  0.00    +0.120 C 
BRANCH  13  14
ATOM     14  C   UNL     1      11.223  11.995  24.624  0.00  0.00    +0.008 A 
ATOM     16  C   UNL     1      12.379  12.247  25.365  0.00  0.00    +0.121 A 
ATOM     17  C   UNL     1      10.296  13.015  24.410  0.00  0.00    +0.008 A 
ATOM     19  C   UNL     1      12.607  13.518  25.890  0.00  0.00    +0.046 A 
ATOM     20  C   UNL     1      10.525  14.287  24.936  0.00  0.00    +0.001 A 
ATOM     23  C   UNL     1      11.680  14.538  25.676  0.00  0.00    +0.004 A 
BRANCH  16   4
ATOM      4  O   UNL     1      13.294  11.262  25.584  0.00  0.00    -0.506 OA
ATOM     28  H   UNL     1      13.130  10.532  24.963  0.00  0.00    +0.292 HD
ENDBRANCH  16   4
ENDBRANCH  13  14
ENDBRANCH   5  13
ENDBRANCH   8   5
BRANCH  10  12
ATOM     12  C   UNL     1      12.493   6.670  19.819  0.00  0.00    +0.140 C 
BRANCH  12   6
ATOM      3  O   UNL     1      15.053   7.214  18.606  0.00  0.00    -0.253 OA
ATOM      6  N   UNL     1      13.776   6.632  20.457  0.00  0.00    -0.297 N 
ATOM      7  N   UNL     1      16.070   6.802  20.652  0.00  0.00    -0.297 N 
ATOM     15  C   UNL     1      14.976   6.911  19.796  0.00  0.00    +0.300 C 
ATOM     26  H   UNL     1      13.816   6.377  21.439  0.00  0.00    +0.150 HD
ATOM     27  H   UNL     1      15.897   6.620  21.636  0.00  0.00    +0.150 HD
BRANCH   7  18
ATOM     18  C   UNL     1      17.428   7.039  20.219  0.00  0.00    +0.068 C 
ATOM     21  C   UNL     1      18.273   7.560  21.374  0.00  0.00    +0.027 C 
ATOM     22  C   UNL     1      18.023   5.768  19.628  0.00  0.00    +0.027 C 
ENDBRANCH   7  18
ENDBRANCH  12   6
ENDBRANCH  10  12
TORSDOF 8
ENDMDL
MODEL 10
REMARK VINA RESULT:      -6.4     26.632     29.868
REMARK  Name = 75536732
REMARK  10 active torsions:
REMARK  status: ('A' for Active; 'I' for Inactive)
REMARK    1  A    between atoms: O_2  and  C_9
REMARK    2  A    between atoms: O_4  and  C_16
REMARK    3  A    between atoms: N_5  and  C_8
REMARK    4  A    between atoms: N_5  and  C_13
REMARK    5  A    between atoms: N_6  and  C_12
REMARK    6  A    between atoms: N_7  and  C_18
REMARK    7  A    between atoms: C_10  and  C_12
REMARK    8  A    between atoms: C_13  and  C_14
REMARK    9  A    between atoms: C_18  and  C_21
REMARK   10  A    between atoms: C_18  and  C_22
REMARK                            x       y       z     vdW  Elec       q    Type
REMARK                         _______ _______ _______ _____ _____    ______ ____
ROOT
ATOM      1  O   UNL     1     -16.771   1.668  24.923  0.00  0.00    -0.371 OA
ATOM      8  C   UNL     1     -16.405   3.160  26.734  0.00  0.00    +0.111 C 
ATOM      9  C   UNL     1     -16.157   3.895  25.430  0.00  0.00    +0.164 C 
ATOM     10  C   UNL     1     -16.922   3.017  24.449  0.00  0.00    +0.165 C 
ATOM     11  C   UNL     1     -16.311   1.711  26.285  0.00  0.00    +0.181 C 
ENDROOT
BRANCH   9   2
ATOM      2  O   UNL     1     -16.653   5.220  25.448  0.00  0.00    -0.388 OA
ATOM     25  H   UNL     1     -15.972   5.795  25.836  0.00  0.00    +0.210 HD
ENDBRANCH   9   2
BRANCH   8   5
ATOM      5  N   UNL     1     -15.451   3.491  27.780  0.00  0.00    -0.305 NA
ATOM     24  H   UNL     1     -15.702   4.392  28.188  0.00  0.00    +0.123 HD
BRANCH   5  13
ATOM     13  C   UNL     1     -15.452   2.480  28.832  0.00  0.00    +0.120 C 
BRANCH  13  14
ATOM     14  C   UNL     1     -14.827   2.992  30.102  0.00  0.00    +0.008 A 
ATOM     16  C   UNL     1     -13.744   2.330  30.681  0.00  0.00    +0.121 A 
ATOM     17  C   UNL     1     -15.344   4.141  30.702  0.00  0.00    +0.008 A 
ATOM     19  C   UNL     1     -13.177   2.817  31.859  0.00  0.00    +0.046 A 
ATOM     20  C   UNL     1     -14.777   4.628  31.880  0.00  0.00    +0.001 A 
ATOM     23  C   UNL     1     -13.694   3.966  32.458  0.00  0.00    +0.004 A 
BRANCH  16   4
ATOM      4  O   UNL     1     -13.228   1.206  30.110  0.00  0.00    -0.506 OA
ATOM     28  H   UNL     1     -12.768   1.450  29.289  0.00  0.00    +0.292 HD
ENDBRANCH  16   4
ENDBRANCH  13  14
ENDBRANCH   5  13
ENDBRANCH   8   5
BRANCH  10  12
ATOM     12  C   UNL     1     -16.408   3.121  23.024  0.00  0.00    +0.140 C 
BRANCH  12   6
ATOM      3  O   UNL     1     -15.854   5.131  21.030  0.00  0.00    -0.253 OA
ATOM      6  N   UNL     1     -15.252   3.966  22.947  0.00  0.00    -0.297 N 
ATOM      7  N   UNL     1     -13.853   5.600  22.110  0.00  0.00    -0.297 N 
ATOM     15  C   UNL     1     -15.058   4.920  21.944  0.00  0.00    +0.300 C 
ATOM     26  H   UNL     1     -14.529   3.855  23.652  0.00  0.00    +0.150 HD
ATOM     27  H   UNL     1     -13.299   5.406  22.938  0.00  0.00    +0.150 HD
BRANCH   7  18
ATOM     18  C   UNL     1     -13.412   6.639  21.208  0.00  0.00    +0.068 C 
ATOM     21  C   UNL     1     -13.763   8.013  21.763  0.00  0.00    +0.027 C 
ATOM     22  C   UNL     1     -11.916   6.513  20.950  0.00  0.00    +0.027 C 
ENDBRANCH   7  18
ENDBRANCH  12   6
ENDBRANCH  10  12
TORSDOF 8
ENDMDL
