MODEL 1
REMARK VINA RESULT:      -7.5      0.000      0.000
REMARK  Name = 40779523
REMARK  12 active torsions:
REMARK  status: ('A' for Active; 'I' for Inactive)
REMARK    1  A    between atoms: O_2  and  C_28
REMARK    2  A    between atoms: O_2  and  C_34
REMARK    3  A    between atoms: O_3  and  C_30
REMARK    4  A    between atoms: O_3  and  C_35
REMARK    5  A    between atoms: O_4  and  C_33
REMARK    6  A    between atoms: O_4  and  C_36
REMARK    7  A    between atoms: N_6  and  C_20
REMARK    8  A    between atoms: N_7  and  C_17
REMARK    9  A    between atoms: C_10  and  C_16
REMARK   10  A    between atoms: C_11  and  C_17
REMARK   11  A    between atoms: C_19  and  C_22
REMARK   12  A    between atoms: C_21  and  C_23
REMARK                            x       y       z     vdW  Elec       q    Type
REMARK                         _______ _______ _______ _____ _____    ______ ____
ROOT
ATOM      5  N   UNL     1      10.920   7.623  20.921  0.00  0.00    -0.297 NA
ATOM      9  C   UNL     1      12.260   9.499  22.131  0.00  0.00    +0.002 C 
ATOM     10  C   UNL     1      11.691  10.020  20.783  0.00  0.00    +0.055 C 
ATOM     11  C   UNL     1      12.251   7.108  21.337  0.00  0.00    +0.074 C 
ATOM     12  C   UNL     1      13.137   8.256  21.868  0.00  0.00    +0.024 C 
ATOM     13  C   UNL     1      11.053   9.032  22.974  0.00  0.00    +0.019 C 
ATOM     14  C   UNL     1      11.084   8.800  20.033  0.00  0.00    +0.094 C 
ATOM     15  C   UNL     1      10.200   8.060  22.142  0.00  0.00    +0.085 C 
ENDROOT
BRANCH  10  16
ATOM      6  N   UNL     1      12.703  12.208  19.990  0.00  0.00    -0.270 N 
ATOM      8  N   UNL     1      13.562  12.754  19.112  0.00  0.00    -0.171 NA
ATOM     16  C   UNL     1      12.603  10.851  19.892  0.00  0.00    +0.044 A 
ATOM     18  C   UNL     1      13.455  10.484  18.880  0.00  0.00    +0.053 A 
ATOM     19  C   UNL     1      14.019  11.696  18.437  0.00  0.00    +0.093 A 
ATOM     20  C   UNL     1      11.995  13.067  20.911  0.00  0.00    +0.172 C 
BRANCH  19  22
ATOM     22  C   UNL     1      14.982  11.862  17.380  0.00  0.00    +0.006 A 
ATOM     24  C   UNL     1      14.704  11.383  16.100  0.00  0.00    +0.059 A 
ATOM     25  C   UNL     1      16.195  12.501  17.637  0.00  0.00    +0.014 A 
ATOM     28  C   UNL     1      15.638  11.543  15.077  0.00  0.00    +0.162 A 
ATOM     29  C   UNL     1      17.129  12.661  16.613  0.00  0.00    +0.050 A 
ATOM     30  C   UNL     1      16.851  12.182  15.333  0.00  0.00    +0.162 A 
BRANCH  28   2
ATOM      2  O   UNL     1      15.355  11.071  13.830  0.00  0.00    -0.491 OA
ATOM     34  C   UNL     1      14.768  11.988  12.908  0.00  0.00    +0.277 C 
ENDBRANCH  28   2
BRANCH  30   3
ATOM      3  O   UNL     1      17.771  12.345  14.341  0.00  0.00    -0.491 OA
ATOM     35  C   UNL     1      19.001  11.637  14.478  0.00  0.00    +0.277 C 
ENDBRANCH  30   3
ENDBRANCH  19  22
ENDBRANCH  10  16
BRANCH  11  17
ATOM     17  C   UNL     1      12.945   6.320  20.224  0.00  0.00    +0.123 C 
BRANCH  17   7
ATOM      1  O   UNL     1      15.036   7.285  18.508  0.00  0.00    -0.270 OA
ATOM      7  N   UNL     1      14.353   6.234  20.461  0.00  0.00    -0.310 N 
ATOM     21  C   UNL     1      15.303   6.731  19.571  0.00  0.00    +0.244 C 
ATOM     37  H   UNL     1      14.645   5.710  21.279  0.00  0.00    +0.149 HD
BRANCH  21  23
ATOM     23  C   UNL     1      16.727   6.539  19.951  0.00  0.00    +0.037 A 
ATOM     26  C   UNL     1      17.270   7.266  21.010  0.00  0.00    +0.016 A 
ATOM     27  C   UNL     1      17.520   5.634  19.247  0.00  0.00    +0.016 A 
ATOM     31  C   UNL     1      18.606   7.087  21.366  0.00  0.00    +0.046 A 
ATOM     32  C   UNL     1      18.857   5.454  19.602  0.00  0.00    +0.046 A 
ATOM     33  C   UNL     1      19.400   6.181  20.663  0.00  0.00    +0.120 A 
BRANCH  33   4
ATOM      4  O   UNL     1      20.705   6.006  21.009  0.00  0.00    -0.495 OA
ATOM     36  C   UNL     1      21.290   4.739  20.708  0.00  0.00    +0.277 C 
ENDBRANCH  33   4
ENDBRANCH  21  23
ENDBRANCH  17   7
ENDBRANCH  11  17
TORSDOF 8
ENDMDL
MODEL 2
REMARK VINA RESULT:      -7.1     27.021     30.064
REMARK  Name = 40779523
REMARK  12 active torsions:
REMARK  status: ('A' for Active; 'I' for Inactive)
REMARK    1  A    between atoms: O_2  and  C_28
REMARK    2  A    between atoms: O_2  and  C_34
REMARK    3  A    between atoms: O_3  and  C_30
REMARK    4  A    between atoms: O_3  and  C_35
REMARK    5  A    between atoms: O_4  and  C_33
REMARK    6  A    between atoms: O_4  and  C_36
REMARK    7  A    between atoms: N_6  and  C_20
REMARK    8  A    between atoms: N_7  and  C_17
REMARK    9  A    between atoms: C_10  and  C_16
REMARK   10  A    between atoms: C_11  and  C_17
REMARK   11  A    between atoms: C_19  and  C_22
REMARK   12  A    between atoms: C_21  and  C_23
REMARK                            x       y       z     vdW  Elec       q    Type
REMARK                         _______ _______ _______ _____ _____    ______ ____
ROOT
ATOM      5  N   UNL     1      -6.643 -10.870  18.269  0.00  0.00    -0.297 NA
ATOM      9  C   UNL     1      -4.454 -12.137  17.649  0.00  0.00    +0.002 C 
ATOM     10  C   UNL     1      -4.486 -10.741  16.968  0.00  0.00    +0.055 C 
ATOM     11  C   UNL     1      -6.967 -12.243  17.800  0.00  0.00    +0.074 C 
ATOM     12  C   UNL     1      -5.707 -12.936  17.234  0.00  0.00    +0.024 C 
ATOM     13  C   UNL     1      -4.555 -11.892  19.171  0.00  0.00    +0.019 C 
ATOM     14  C   UNL     1      -5.897 -10.135  17.217  0.00  0.00    +0.094 C 
ATOM     15  C   UNL     1      -5.768 -10.991  19.460  0.00  0.00    +0.085 C 
ENDROOT
BRANCH  10  16
ATOM      6  N   UNL     1      -2.761 -10.648  15.109  0.00  0.00    -0.270 N 
ATOM      8  N   UNL     1      -2.601 -10.553  13.778  0.00  0.00    -0.171 NA
ATOM     16  C   UNL     1      -4.066 -10.644  15.509  0.00  0.00    +0.044 A 
ATOM     18  C   UNL     1      -4.809 -10.538  14.360  0.00  0.00    +0.053 A 
ATOM     19  C   UNL     1      -3.855 -10.486  13.326  0.00  0.00    +0.093 A 
ATOM     20  C   UNL     1      -1.594 -10.739  15.956  0.00  0.00    +0.172 C 
BRANCH  19  22
ATOM     22  C   UNL     1      -4.120 -10.372  11.915  0.00  0.00    +0.006 A 
ATOM     24  C   UNL     1      -5.014  -9.409  11.448  0.00  0.00    +0.059 A 
ATOM     25  C   UNL     1      -3.481 -11.226  11.015  0.00  0.00    +0.014 A 
ATOM     28  C   UNL     1      -5.271  -9.300  10.082  0.00  0.00    +0.162 A 
ATOM     29  C   UNL     1      -3.738 -11.115   9.648  0.00  0.00    +0.050 A 
ATOM     30  C   UNL     1      -4.633 -10.152   9.181  0.00  0.00    +0.162 A 
BRANCH  28   2
ATOM      2  O   UNL     1      -6.148  -8.355   9.638  0.00  0.00    -0.491 OA
ATOM     34  C   UNL     1      -7.537  -8.669   9.724  0.00  0.00    +0.277 C 
ENDBRANCH  28   2
BRANCH  30   3
ATOM      3  O   UNL     1      -4.875 -10.055   7.844  0.00  0.00    -0.491 OA
ATOM     35  C   UNL     1      -4.927 -11.273   7.105  0.00  0.00    +0.277 C 
ENDBRANCH  30   3
ENDBRANCH  19  22
ENDBRANCH  10  16
BRANCH  11  17
ATOM     17  C   UNL     1      -8.125 -12.260  16.800  0.00  0.00    +0.123 C 
BRANCH  17   7
ATOM      1  O   UNL     1      -8.950 -11.039  14.335  0.00  0.00    -0.270 OA
ATOM      7  N   UNL     1      -7.660 -12.587  15.487  0.00  0.00    -0.310 N 
ATOM     21  C   UNL     1      -8.116 -11.941  14.340  0.00  0.00    +0.244 C 
ATOM     37  H   UNL     1      -7.036 -13.383  15.411  0.00  0.00    +0.149 HD
BRANCH  21  23
ATOM     23  C   UNL     1      -7.555 -12.416  13.048  0.00  0.00    +0.037 A 
ATOM     26  C   UNL     1      -7.992 -11.854  11.849  0.00  0.00    +0.016 A 
ATOM     27  C   UNL     1      -6.593 -13.425  13.035  0.00  0.00    +0.016 A 
ATOM     31  C   UNL     1      -7.465 -12.300  10.637  0.00  0.00    +0.046 A 
ATOM     32  C   UNL     1      -6.066 -13.873  11.824  0.00  0.00    +0.046 A 
ATOM     33  C   UNL     1      -6.503 -13.309  10.624  0.00  0.00    +0.120 A 
BRANCH  33   4
ATOM      4  O   UNL     1      -5.989 -13.746   9.441  0.00  0.00    -0.495 OA
ATOM     36  C   UNL     1      -4.937 -14.708   9.508  0.00  0.00    +0.277 C 
ENDBRANCH  33   4
ENDBRANCH  21  23
ENDBRANCH  17   7
ENDBRANCH  11  17
TORSDOF 8
ENDMDL
MODEL 3
REMARK VINA RESULT:      -7.1     27.256     30.368
REMARK  Name = 40779523
REMARK  12 active torsions:
REMARK  status: ('A' for Active; 'I' for Inactive)
REMARK    1  A    between atoms: O_2  and  C_28
REMARK    2  A    between atoms: O_2  and  C_34
REMARK    3  A    between atoms: O_3  and  C_30
REMARK    4  A    between atoms: O_3  and  C_35
REMARK    5  A    between atoms: O_4  and  C_33
REMARK    6  A    between atoms: O_4  and  C_36
REMARK    7  A    between atoms: N_6  and  C_20
REMARK    8  A    between atoms: N_7  and  C_17
REMARK    9  A    between atoms: C_10  and  C_16
REMARK   10  A    between atoms: C_11  and  C_17
REMARK   11  A    between atoms: C_19  and  C_22
REMARK   12  A    between atoms: C_21  and  C_23
REMARK                            x       y       z     vdW  Elec       q    Type
REMARK                         _______ _______ _______ _____ _____    ______ ____
ROOT
ATOM      5  N   UNL     1      -3.292 -10.457  11.333  0.00  0.00    -0.297 NA
ATOM      9  C   UNL     1      -5.100 -12.277  11.779  0.00  0.00    +0.002 C 
ATOM     10  C   UNL     1      -5.768 -10.899  11.521  0.00  0.00    +0.055 C 
ATOM     11  C   UNL     1      -2.956 -11.215  12.567  0.00  0.00    +0.074 C 
ATOM     12  C   UNL     1      -4.117 -12.155  12.962  0.00  0.00    +0.024 C 
ATOM     13  C   UNL     1      -4.262 -12.608  10.525  0.00  0.00    +0.019 C 
ATOM     14  C   UNL     1      -4.633  -9.836  11.465  0.00  0.00    +0.094 C 
ATOM     15  C   UNL     1      -3.336 -11.421  10.206  0.00  0.00    +0.085 C 
ENDROOT
BRANCH  10  16
ATOM      6  N   UNL     1      -8.029  -9.838  11.971  0.00  0.00    -0.270 N 
ATOM      8  N   UNL     1      -8.922  -9.548  12.933  0.00  0.00    -0.171 NA
ATOM     16  C   UNL     1      -6.912 -10.474  12.430  0.00  0.00    +0.044 A 
ATOM     18  C   UNL     1      -7.086 -10.607  13.785  0.00  0.00    +0.053 A 
ATOM     19  C   UNL     1      -8.341 -10.020  14.039  0.00  0.00    +0.093 A 
ATOM     20  C   UNL     1      -8.318  -9.467  10.605  0.00  0.00    +0.172 C 
BRANCH  19  22
ATOM     22  C   UNL     1      -8.993  -9.899  15.317  0.00  0.00    +0.006 A 
ATOM     24  C   UNL     1      -9.400  -8.648  15.777  0.00  0.00    +0.059 A 
ATOM     25  C   UNL     1      -9.214 -11.035  16.096  0.00  0.00    +0.014 A 
ATOM     28  C   UNL     1     -10.030  -8.531  17.016  0.00  0.00    +0.162 A 
ATOM     29  C   UNL     1      -9.845 -10.918  17.335  0.00  0.00    +0.050 A 
ATOM     30  C   UNL     1     -10.253  -9.667  17.795  0.00  0.00    +0.162 A 
BRANCH  28   2
ATOM      2  O   UNL     1     -10.424  -7.303  17.456  0.00  0.00    -0.491 OA
ATOM     34  C   UNL     1     -11.203  -6.514  16.559  0.00  0.00    +0.277 C 
ENDBRANCH  28   2
BRANCH  30   3
ATOM      3  O   UNL     1     -10.867  -9.566  19.007  0.00  0.00    -0.491 OA
ATOM     35  C   UNL     1     -12.287  -9.703  19.026  0.00  0.00    +0.277 C 
ENDBRANCH  30   3
ENDBRANCH  19  22
ENDBRANCH  10  16
BRANCH  11  17
ATOM     17  C   UNL     1      -2.547 -10.297  13.721  0.00  0.00    +0.123 C 
BRANCH  17   7
ATOM      1  O   UNL     1      -1.860 -10.912  16.441  0.00  0.00    -0.270 OA
ATOM      7  N   UNL     1      -3.451 -10.429  14.822  0.00  0.00    -0.310 N 
ATOM     21  C   UNL     1      -3.031 -10.731  16.116  0.00  0.00    +0.244 C 
ATOM     37  H   UNL     1      -4.440 -10.378  14.606  0.00  0.00    +0.149 HD
BRANCH  21  23
ATOM     23  C   UNL     1      -4.096 -10.859  17.143  0.00  0.00    +0.037 A 
ATOM     26  C   UNL     1      -3.900 -11.680  18.253  0.00  0.00    +0.016 A 
ATOM     27  C   UNL     1      -5.294 -10.160  16.996  0.00  0.00    +0.016 A 
ATOM     31  C   UNL     1      -4.900 -11.801  19.217  0.00  0.00    +0.046 A 
ATOM     32  C   UNL     1      -6.296 -10.281  17.959  0.00  0.00    +0.046 A 
ATOM     33  C   UNL     1      -6.098 -11.102  19.070  0.00  0.00    +0.120 A 
BRANCH  33   4
ATOM      4  O   UNL     1      -7.076 -11.219  20.010  0.00  0.00    -0.495 OA
ATOM     36  C   UNL     1      -7.768 -12.466  20.073  0.00  0.00    +0.277 C 
ENDBRANCH  33   4
ENDBRANCH  21  23
ENDBRANCH  17   7
ENDBRANCH  11  17
TORSDOF 8
ENDMDL
MODEL 4
REMARK VINA RESULT:      -7.0     26.807     30.048
REMARK  Name = 40779523
REMARK  12 active torsions:
REMARK  status: ('A' for Active; 'I' for Inactive)
REMARK    1  A    between atoms: O_2  and  C_28
REMARK    2  A    between atoms: O_2  and  C_34
REMARK    3  A    between atoms: O_3  and  C_30
REMARK    4  A    between atoms: O_3  and  C_35
REMARK    5  A    between atoms: O_4  and  C_33
REMARK    6  A    between atoms: O_4  and  C_36
REMARK    7  A    between atoms: N_6  and  C_20
REMARK    8  A    between atoms: N_7  and  C_17
REMARK    9  A    between atoms: C_10  and  C_16
REMARK   10  A    between atoms: C_11  and  C_17
REMARK   11  A    between atoms: C_19  and  C_22
REMARK   12  A    between atoms: C_21  and  C_23
REMARK                            x       y       z     vdW  Elec       q    Type
REMARK                         _______ _______ _______ _____ _____    ______ ____
ROOT
ATOM      5  N   UNL     1      -6.010 -10.518  18.129  0.00  0.00    -0.297 NA
ATOM      9  C   UNL     1      -4.576 -12.400  17.041  0.00  0.00    +0.002 C 
ATOM     10  C   UNL     1      -4.056 -11.001  16.609  0.00  0.00    +0.055 C 
ATOM     11  C   UNL     1      -6.896 -11.523  17.484  0.00  0.00    +0.074 C 
ATOM     12  C   UNL     1      -6.065 -12.531  16.659  0.00  0.00    +0.024 C 
ATOM     13  C   UNL     1      -4.497 -12.447  18.582  0.00  0.00    +0.019 C 
ATOM     14  C   UNL     1      -5.075  -9.946  17.128  0.00  0.00    +0.094 C 
ATOM     15  C   UNL     1      -5.211 -11.216  19.165  0.00  0.00    +0.085 C 
ENDROOT
BRANCH  10  16
ATOM      6  N   UNL     1      -2.426 -10.563  14.714  0.00  0.00    -0.270 N 
ATOM      8  N   UNL     1      -2.323 -10.399  13.384  0.00  0.00    -0.171 NA
ATOM     16  C   UNL     1      -3.701 -10.788  15.145  0.00  0.00    +0.044 A 
ATOM     18  C   UNL     1      -4.486 -10.768  14.018  0.00  0.00    +0.053 A 
ATOM     19  C   UNL     1      -3.584 -10.525  12.964  0.00  0.00    +0.093 A 
ATOM     20  C   UNL     1      -1.235 -10.488  15.529  0.00  0.00    +0.172 C 
BRANCH  19  22
ATOM     22  C   UNL     1      -3.905 -10.409  11.565  0.00  0.00    +0.006 A 
ATOM     24  C   UNL     1      -3.840 -11.531  10.739  0.00  0.00    +0.059 A 
ATOM     25  C   UNL     1      -4.281  -9.174  11.037  0.00  0.00    +0.014 A 
ATOM     28  C   UNL     1      -4.150 -11.418   9.384  0.00  0.00    +0.162 A 
ATOM     29  C   UNL     1      -4.591  -9.062   9.682  0.00  0.00    +0.050 A 
ATOM     30  C   UNL     1      -4.526 -10.183   8.855  0.00  0.00    +0.162 A 
BRANCH  28   2
ATOM      2  O   UNL     1      -4.083 -12.520   8.586  0.00  0.00    -0.491 OA
ATOM     34  C   UNL     1      -4.311 -13.784   9.207  0.00  0.00    +0.277 C 
ENDBRANCH  28   2
BRANCH  30   3
ATOM      3  O   UNL     1      -4.832 -10.060   7.533  0.00  0.00    -0.491 OA
ATOM     35  C   UNL     1      -6.124  -9.548   7.213  0.00  0.00    +0.277 C 
ENDBRANCH  30   3
ENDBRANCH  19  22
ENDBRANCH  10  16
BRANCH  11  17
ATOM     17  C   UNL     1      -8.001 -10.875  16.647  0.00  0.00    +0.123 C 
BRANCH  17   7
ATOM      1  O   UNL     1      -8.591  -9.174  14.410  0.00  0.00    -0.270 OA
ATOM      7  N   UNL     1      -7.851 -11.201  15.263  0.00  0.00    -0.310 N 
ATOM     21  C   UNL     1      -8.162 -10.312  14.236  0.00  0.00    +0.244 C 
ATOM     37  H   UNL     1      -7.584 -12.156  15.048  0.00  0.00    +0.149 HD
BRANCH  21  23
ATOM     23  C   UNL     1      -7.976 -10.814  12.850  0.00  0.00    +0.037 A 
ATOM     26  C   UNL     1      -7.609 -12.142  12.632  0.00  0.00    +0.016 A 
ATOM     27  C   UNL     1      -8.166  -9.956  11.767  0.00  0.00    +0.016 A 
ATOM     31  C   UNL     1      -7.434 -12.612  11.330  0.00  0.00    +0.046 A 
ATOM     32  C   UNL     1      -7.990 -10.425  10.465  0.00  0.00    +0.046 A 
ATOM     33  C   UNL     1      -7.624 -11.754  10.248  0.00  0.00    +0.120 A 
BRANCH  33   4
ATOM      4  O   UNL     1      -7.453 -12.212   8.977  0.00  0.00    -0.495 OA
ATOM     36  C   UNL     1      -8.621 -12.322   8.165  0.00  0.00    +0.277 C 
ENDBRANCH  33   4
ENDBRANCH  21  23
ENDBRANCH  17   7
ENDBRANCH  11  17
TORSDOF 8
ENDMDL
MODEL 5
REMARK VINA RESULT:      -6.9     13.282     17.966
REMARK  Name = 40779523
REMARK  12 active torsions:
REMARK  status: ('A' for Active; 'I' for Inactive)
REMARK    1  A    between atoms: O_2  and  C_28
REMARK    2  A    between atoms: O_2  and  C_34
REMARK    3  A    between atoms: O_3  and  C_30
REMARK    4  A    between atoms: O_3  and  C_35
REMARK    5  A    between atoms: O_4  and  C_33
REMARK    6  A    between atoms: O_4  and  C_36
REMARK    7  A    between atoms: N_6  and  C_20
REMARK    8  A    between atoms: N_7  and  C_17
REMARK    9  A    between atoms: C_10  and  C_16
REMARK   10  A    between atoms: C_11  and  C_17
REMARK   11  A    between atoms: C_19  and  C_22
REMARK   12  A    between atoms: C_21  and  C_23
REMARK                            x       y       z     vdW  Elec       q    Type
REMARK                         _______ _______ _______ _____ _____    ______ ____
ROOT
ATOM      5  N   UNL     1      14.539   3.879  -0.237  0.00  0.00    -0.297 NA
ATOM      9  C   UNL     1      14.576   6.482  -0.320  0.00  0.00    +0.002 C 
ATOM     10  C   UNL     1      15.109   5.974   1.047  0.00  0.00    +0.055 C 
ATOM     11  C   UNL     1      13.220   4.391  -0.692  0.00  0.00    +0.074 C 
ATOM     12  C   UNL     1      13.154   5.928  -0.550  0.00  0.00    +0.024 C 
ATOM     13  C   UNL     1      15.483   5.868  -1.409  0.00  0.00    +0.019 C 
ATOM     14  C   UNL     1      14.869   4.438   1.098  0.00  0.00    +0.094 C 
ATOM     15  C   UNL     1      15.565   4.347  -1.202  0.00  0.00    +0.085 C 
ENDROOT
BRANCH  10  16
ATOM      6  N   UNL     1      15.376   7.608   2.971  0.00  0.00    -0.270 N 
ATOM      8  N   UNL     1      14.776   8.107   4.064  0.00  0.00    -0.171 NA
ATOM     16  C   UNL     1      14.631   6.675   2.310  0.00  0.00    +0.044 A 
ATOM     18  C   UNL     1      13.463   6.556   3.022  0.00  0.00    +0.053 A 
ATOM     19  C   UNL     1      13.607   7.462   4.090  0.00  0.00    +0.093 A 
ATOM     20  C   UNL     1      16.694   8.079   2.612  0.00  0.00    +0.172 C 
BRANCH  19  22
ATOM     22  C   UNL     1      12.651   7.719   5.136  0.00  0.00    +0.006 A 
ATOM     24  C   UNL     1      12.419   6.759   6.121  0.00  0.00    +0.059 A 
ATOM     25  C   UNL     1      11.957   8.928   5.163  0.00  0.00    +0.014 A 
ATOM     28  C   UNL     1      11.492   7.008   7.132  0.00  0.00    +0.162 A 
ATOM     29  C   UNL     1      11.030   9.177   6.176  0.00  0.00    +0.050 A 
ATOM     30  C   UNL     1      10.797   8.218   7.160  0.00  0.00    +0.162 A 
BRANCH  28   2
ATOM      2  O   UNL     1      11.273   6.063   8.089  0.00  0.00    -0.491 OA
ATOM     34  C   UNL     1      10.180   5.170   7.878  0.00  0.00    +0.277 C 
ENDBRANCH  28   2
BRANCH  30   3
ATOM      3  O   UNL     1       9.890   8.473   8.144  0.00  0.00    -0.491 OA
ATOM     35  C   UNL     1       9.418   9.813   8.257  0.00  0.00    +0.277 C 
ENDBRANCH  30   3
ENDBRANCH  19  22
ENDBRANCH  10  16
BRANCH  11  17
ATOM     17  C   UNL     1      12.051   3.703   0.016  0.00  0.00    +0.123 C 
BRANCH  17   7
ATOM      1  O   UNL     1      11.296   3.435   2.773  0.00  0.00    -0.270 OA
ATOM      7  N   UNL     1      11.300   4.641   0.791  0.00  0.00    -0.310 N 
ATOM     21  C   UNL     1      10.975   4.431   2.129  0.00  0.00    +0.244 C 
ATOM     37  H   UNL     1      10.929   5.445   0.296  0.00  0.00    +0.149 HD
BRANCH  21  23
ATOM     23  C   UNL     1      10.166   5.489   2.786  0.00  0.00    +0.037 A 
ATOM     26  C   UNL     1       9.843   6.654   2.090  0.00  0.00    +0.016 A 
ATOM     27  C   UNL     1       9.730   5.319   4.100  0.00  0.00    +0.016 A 
ATOM     31  C   UNL     1       9.084   7.648   2.707  0.00  0.00    +0.046 A 
ATOM     32  C   UNL     1       8.971   6.313   4.718  0.00  0.00    +0.046 A 
ATOM     33  C   UNL     1       8.648   7.478   4.020  0.00  0.00    +0.120 A 
BRANCH  33   4
ATOM      4  O   UNL     1       7.907   8.448   4.624  0.00  0.00    -0.495 OA
ATOM     36  C   UNL     1       7.491   9.545   3.812  0.00  0.00    +0.277 C 
ENDBRANCH  33   4
ENDBRANCH  21  23
ENDBRANCH  17   7
ENDBRANCH  11  17
TORSDOF 8
ENDMDL
MODEL 6
REMARK VINA RESULT:      -6.9     27.205     30.168
REMARK  Name = 40779523
REMARK  12 active torsions:
REMARK  status: ('A' for Active; 'I' for Inactive)
REMARK    1  A    between atoms: O_2  and  C_28
REMARK    2  A    between atoms: O_2  and  C_34
REMARK    3  A    between atoms: O_3  and  C_30
REMARK    4  A    between atoms: O_3  and  C_35
REMARK    5  A    between atoms: O_4  and  C_33
REMARK    6  A    between atoms: O_4  and  C_36
REMARK    7  A    between atoms: N_6  and  C_20
REMARK    8  A    between atoms: N_7  and  C_17
REMARK    9  A    between atoms: C_10  and  C_16
REMARK   10  A    between atoms: C_11  and  C_17
REMARK   11  A    between atoms: C_19  and  C_22
REMARK   12  A    between atoms: C_21  and  C_23
REMARK                            x       y       z     vdW  Elec       q    Type
REMARK                         _______ _______ _______ _____ _____    ______ ____
ROOT
ATOM      5  N   UNL     1     -11.696  -9.460  17.048  0.00  0.00    -0.297 NA
ATOM      9  C   UNL     1     -10.279  -7.895  15.522  0.00  0.00    +0.002 C 
ATOM     10  C   UNL     1     -10.481  -9.278  14.844  0.00  0.00    +0.055 C 
ATOM     11  C   UNL     1     -10.583  -8.859  17.830  0.00  0.00    +0.074 C 
ATOM     12  C   UNL     1      -9.614  -8.095  16.901  0.00  0.00    +0.024 C 
ATOM     13  C   UNL     1     -11.686  -7.313  15.778  0.00  0.00    +0.019 C 
ATOM     14  C   UNL     1     -11.154 -10.213  15.889  0.00  0.00    +0.094 C 
ATOM     15  C   UNL     1     -12.536  -8.353  16.529  0.00  0.00    +0.085 C 
ENDROOT
BRANCH  10  16
ATOM      6  N   UNL     1      -9.149 -10.025  12.818  0.00  0.00    -0.270 N 
ATOM      8  N   UNL     1      -8.019 -10.637  12.425  0.00  0.00    -0.171 NA
ATOM     16  C   UNL     1      -9.282  -9.931  14.173  0.00  0.00    +0.044 A 
ATOM     18  C   UNL     1      -8.163 -10.524  14.702  0.00  0.00    +0.053 A 
ATOM     19  C   UNL     1      -7.420 -10.940  13.579  0.00  0.00    +0.093 A 
ATOM     20  C   UNL     1     -10.076  -9.546  11.819  0.00  0.00    +0.172 C 
BRANCH  19  22
ATOM     22  C   UNL     1      -6.153 -11.622  13.591  0.00  0.00    +0.006 A 
ATOM     24  C   UNL     1      -5.176 -11.297  12.650  0.00  0.00    +0.059 A 
ATOM     25  C   UNL     1      -5.903 -12.612  14.542  0.00  0.00    +0.014 A 
ATOM     28  C   UNL     1      -3.949 -11.959  12.660  0.00  0.00    +0.162 A 
ATOM     29  C   UNL     1      -4.675 -13.274  14.552  0.00  0.00    +0.050 A 
ATOM     30  C   UNL     1      -3.698 -12.948  13.612  0.00  0.00    +0.162 A 
BRANCH  28   2
ATOM      2  O   UNL     1      -3.002 -11.632  11.736  0.00  0.00    -0.491 OA
ATOM     34  C   UNL     1      -2.492 -10.300  11.776  0.00  0.00    +0.277 C 
ENDBRANCH  28   2
BRANCH  30   3
ATOM      3  O   UNL     1      -2.503 -13.602  13.632  0.00  0.00    -0.491 OA
ATOM     35  C   UNL     1      -2.459 -14.848  14.324  0.00  0.00    +0.277 C 
ENDBRANCH  30   3
ENDBRANCH  19  22
ENDBRANCH  10  16
BRANCH  11  17
ATOM     17  C   UNL     1      -9.853  -9.890  18.692  0.00  0.00    +0.123 C 
BRANCH  17   7
ATOM      1  O   UNL     1      -7.742 -11.248  20.088  0.00  0.00    -0.270 OA
ATOM      7  N   UNL     1      -8.510 -10.075  18.238  0.00  0.00    -0.310 N 
ATOM     21  C   UNL     1      -7.544 -10.750  18.982  0.00  0.00    +0.244 C 
ATOM     37  H   UNL     1      -8.255  -9.613  17.372  0.00  0.00    +0.149 HD
BRANCH  21  23
ATOM     23  C   UNL     1      -6.187 -10.833  18.383  0.00  0.00    +0.037 A 
ATOM     26  C   UNL     1      -5.245 -11.718  18.908  0.00  0.00    +0.016 A 
ATOM     27  C   UNL     1      -5.855 -10.025  17.296  0.00  0.00    +0.016 A 
ATOM     31  C   UNL     1      -3.972 -11.796  18.345  0.00  0.00    +0.046 A 
ATOM     32  C   UNL     1      -4.581 -10.102  16.733  0.00  0.00    +0.046 A 
ATOM     33  C   UNL     1      -3.639 -10.988  17.258  0.00  0.00    +0.120 A 
BRANCH  33   4
ATOM      4  O   UNL     1      -2.396 -11.062  16.708  0.00  0.00    -0.495 OA
ATOM     36  C   UNL     1      -2.163 -10.297  15.526  0.00  0.00    +0.277 C 
ENDBRANCH  33   4
ENDBRANCH  21  23
ENDBRANCH  17   7
ENDBRANCH  11  17
TORSDOF 8
ENDMDL
MODEL 7
REMARK VINA RESULT:      -6.8     27.289     30.796
REMARK  Name = 40779523
REMARK  12 active torsions:
REMARK  status: ('A' for Active; 'I' for Inactive)
REMARK    1  A    between atoms: O_2  and  C_28
REMARK    2  A    between atoms: O_2  and  C_34
REMARK    3  A    between atoms: O_3  and  C_30
REMARK    4  A    between atoms: O_3  and  C_35
REMARK    5  A    between atoms: O_4  and  C_33
REMARK    6  A    between atoms: O_4  and  C_36
REMARK    7  A    between atoms: N_6  and  C_20
REMARK    8  A    between atoms: N_7  and  C_17
REMARK    9  A    between atoms: C_10  and  C_16
REMARK   10  A    between atoms: C_11  and  C_17
REMARK   11  A    between atoms: C_19  and  C_22
REMARK   12  A    between atoms: C_21  and  C_23
REMARK                            x       y       z     vdW  Elec       q    Type
REMARK                         _______ _______ _______ _____ _____    ______ ____
ROOT
ATOM      5  N   UNL     1      -6.692 -10.598  18.336  0.00  0.00    -0.297 NA
ATOM      9  C   UNL     1      -4.896 -12.257  17.438  0.00  0.00    +0.002 C 
ATOM     10  C   UNL     1      -4.620 -10.820  16.914  0.00  0.00    +0.055 C 
ATOM     11  C   UNL     1      -7.354 -11.791  17.745  0.00  0.00    +0.074 C 
ATOM     12  C   UNL     1      -6.320 -12.685  17.024  0.00  0.00    +0.024 C 
ATOM     13  C   UNL     1      -4.876 -12.181  18.980  0.00  0.00    +0.019 C 
ATOM     14  C   UNL     1      -5.834  -9.937  17.322  0.00  0.00    +0.094 C 
ATOM     15  C   UNL     1      -5.824 -11.063  19.446  0.00  0.00    +0.085 C 
ENDROOT
BRANCH  10  16
ATOM      6  N   UNL     1      -2.959 -10.688  15.000  0.00  0.00    -0.270 N 
ATOM      8  N   UNL     1      -2.842 -10.515  13.673  0.00  0.00    -0.171 NA
ATOM     16  C   UNL     1      -4.247 -10.649  15.449  0.00  0.00    +0.044 A 
ATOM     18  C   UNL     1      -5.025 -10.434  14.338  0.00  0.00    +0.053 A 
ATOM     19  C   UNL     1      -4.106 -10.361  13.274  0.00  0.00    +0.093 A 
ATOM     20  C   UNL     1      -1.769 -10.889  15.794  0.00  0.00    +0.172 C 
BRANCH  19  22
ATOM     22  C   UNL     1      -4.415 -10.143  11.884  0.00  0.00    +0.006 A 
ATOM     24  C   UNL     1      -5.739 -10.180  11.449  0.00  0.00    +0.059 A 
ATOM     25  C   UNL     1      -3.387  -9.896  10.973  0.00  0.00    +0.014 A 
ATOM     28  C   UNL     1      -6.037  -9.970  10.103  0.00  0.00    +0.162 A 
ATOM     29  C   UNL     1      -3.686  -9.686   9.627  0.00  0.00    +0.050 A 
ATOM     30  C   UNL     1      -5.010  -9.723   9.191  0.00  0.00    +0.162 A 
BRANCH  28   2
ATOM      2  O   UNL     1      -7.335 -10.009   9.689  0.00  0.00    -0.491 OA
ATOM     34  C   UNL     1      -8.118  -8.836   9.905  0.00  0.00    +0.277 C 
ENDBRANCH  28   2
BRANCH  30   3
ATOM      3  O   UNL     1      -5.289  -9.516   7.874  0.00  0.00    -0.491 OA
ATOM     35  C   UNL     1      -5.167 -10.638   7.003  0.00  0.00    +0.277 C 
ENDBRANCH  30   3
ENDBRANCH  19  22
ENDBRANCH  10  16
BRANCH  11  17
ATOM     17  C   UNL     1      -8.520 -11.417  16.829  0.00  0.00    +0.123 C 
BRANCH  17   7
ATOM      1  O   UNL     1      -9.672  -8.878  17.520  0.00  0.00    -0.270 OA
ATOM      7  N   UNL     1      -9.714 -11.197  17.587  0.00  0.00    -0.310 N 
ATOM     21  C   UNL     1     -10.204  -9.926  17.878  0.00  0.00    +0.244 C 
ATOM     37  H   UNL     1     -10.155 -12.018  17.988  0.00  0.00    +0.149 HD
BRANCH  21  23
ATOM     23  C   UNL     1     -11.441  -9.868  18.698  0.00  0.00    +0.037 A 
ATOM     26  C   UNL     1     -11.370 -10.038  20.081  0.00  0.00    +0.016 A 
ATOM     27  C   UNL     1     -12.674  -9.644  18.086  0.00  0.00    +0.016 A 
ATOM     31  C   UNL     1     -12.531  -9.983  20.851  0.00  0.00    +0.046 A 
ATOM     32  C   UNL     1     -13.836  -9.590  18.855  0.00  0.00    +0.046 A 
ATOM     33  C   UNL     1     -13.764  -9.760  20.239  0.00  0.00    +0.120 A 
BRANCH  33   4
ATOM      4  O   UNL     1     -14.898  -9.707  20.990  0.00  0.00    -0.495 OA
ATOM     36  C   UNL     1     -15.656  -8.498  20.936  0.00  0.00    +0.277 C 
ENDBRANCH  33   4
ENDBRANCH  21  23
ENDBRANCH  17   7
ENDBRANCH  11  17
TORSDOF 8
ENDMDL
MODEL 8
REMARK VINA RESULT:      -6.7      2.385      2.966
REMARK  Name = 40779523
REMARK  12 active torsions:
REMARK  status: ('A' for Active; 'I' for Inactive)
REMARK    1  A    between atoms: O_2  and  C_28
REMARK    2  A    between atoms: O_2  and  C_34
REMARK    3  A    between atoms: O_3  and  C_30
REMARK    4  A    between atoms: O_3  and  C_35
REMARK    5  A    between atoms: O_4  and  C_33
REMARK    6  A    between atoms: O_4  and  C_36
REMARK    7  A    between atoms: N_6  and  C_20
REMARK    8  A    between atoms: N_7  and  C_17
REMARK    9  A    between atoms: C_10  and  C_16
REMARK   10  A    between atoms: C_11  and  C_17
REMARK   11  A    between atoms: C_19  and  C_22
REMARK   12  A    between atoms: C_21  and  C_23
REMARK                            x       y       z     vdW  Elec       q    Type
REMARK                         _______ _______ _______ _____ _____    ______ ____
ROOT
ATOM      5  N   UNL     1      11.089   8.089  20.369  0.00  0.00    -0.297 NA
ATOM      9  C   UNL     1      12.398   9.173  22.342  0.00  0.00    +0.002 C 
ATOM     10  C   UNL     1      12.323  10.150  21.137  0.00  0.00    +0.055 C 
ATOM     11  C   UNL     1      12.133   7.152  20.861  0.00  0.00    +0.074 C 
ATOM     12  C   UNL     1      13.052   7.851  21.887  0.00  0.00    +0.024 C 
ATOM     13  C   UNL     1      10.943   8.845  22.741  0.00  0.00    +0.019 C 
ATOM     14  C   UNL     1      11.711   9.366  19.941  0.00  0.00    +0.094 C 
ATOM     15  C   UNL     1      10.169   8.377  21.497  0.00  0.00    +0.085 C 
ENDROOT
BRANCH  10  16
ATOM      6  N   UNL     1      13.570  12.199  20.307  0.00  0.00    -0.270 N 
ATOM      8  N   UNL     1      14.787  12.685  20.012  0.00  0.00    -0.171 NA
ATOM     16  C   UNL     1      13.584  10.907  20.747  0.00  0.00    +0.044 A 
ATOM     18  C   UNL     1      14.902  10.523  20.740  0.00  0.00    +0.053 A 
ATOM     19  C   UNL     1      15.597  11.658  20.279  0.00  0.00    +0.093 A 
ATOM     20  C   UNL     1      12.411  13.045  20.135  0.00  0.00    +0.172 C 
BRANCH  19  22
ATOM     22  C   UNL     1      17.019  11.777  20.087  0.00  0.00    +0.006 A 
ATOM     24  C   UNL     1      17.520  12.564  19.050  0.00  0.00    +0.059 A 
ATOM     25  C   UNL     1      17.896  11.104  20.938  0.00  0.00    +0.014 A 
ATOM     28  C   UNL     1      18.897  12.678  18.863  0.00  0.00    +0.162 A 
ATOM     29  C   UNL     1      19.274  11.219  20.752  0.00  0.00    +0.050 A 
ATOM     30  C   UNL     1      19.775  12.005  19.714  0.00  0.00    +0.162 A 
BRANCH  28   2
ATOM      2  O   UNL     1      19.375  13.449  17.846  0.00  0.00    -0.491 OA
ATOM     34  C   UNL     1      19.556  14.838  18.118  0.00  0.00    +0.277 C 
ENDBRANCH  28   2
BRANCH  30   3
ATOM      3  O   UNL     1      21.122  12.109  19.543  0.00  0.00    -0.491 OA
ATOM     35  C   UNL     1      21.903  10.954  19.838  0.00  0.00    +0.277 C 
ENDBRANCH  30   3
ENDBRANCH  19  22
ENDBRANCH  10  16
BRANCH  11  17
ATOM     17  C   UNL     1      12.931   6.517  19.720  0.00  0.00    +0.123 C 
BRANCH  17   7
ATOM      1  O   UNL     1      15.160   7.851  18.495  0.00  0.00    -0.270 OA
ATOM      7  N   UNL     1      14.309   6.380  20.076  0.00  0.00    -0.310 N 
ATOM     21  C   UNL     1      15.332   7.068  19.426  0.00  0.00    +0.244 C 
ATOM     37  H   UNL     1      14.530   5.683  20.779  0.00  0.00    +0.149 HD
BRANCH  21  23
ATOM     23  C   UNL     1      16.714   6.795  19.898  0.00  0.00    +0.037 A 
ATOM     26  C   UNL     1      17.246   7.526  20.960  0.00  0.00    +0.016 A 
ATOM     27  C   UNL     1      17.480   5.808  19.278  0.00  0.00    +0.016 A 
ATOM     31  C   UNL     1      18.544   7.271  21.402  0.00  0.00    +0.046 A 
ATOM     32  C   UNL     1      18.778   5.552  19.719  0.00  0.00    +0.046 A 
ATOM     33  C   UNL     1      19.310   6.284  20.782  0.00  0.00    +0.120 A 
BRANCH  33   4
ATOM      4  O   UNL     1      20.577   6.034  21.212  0.00  0.00    -0.495 OA
ATOM     36  C   UNL     1      21.320   5.044  20.501  0.00  0.00    +0.277 C 
ENDBRANCH  33   4
ENDBRANCH  21  23
ENDBRANCH  17   7
ENDBRANCH  11  17
TORSDOF 8
ENDMDL
MODEL 9
REMARK VINA RESULT:      -6.6     24.593     27.085
REMARK  Name = 40779523
REMARK  12 active torsions:
REMARK  status: ('A' for Active; 'I' for Inactive)
REMARK    1  A    between atoms: O_2  and  C_28
REMARK    2  A    between atoms: O_2  and  C_34
REMARK    3  A    between atoms: O_3  and  C_30
REMARK    4  A    between atoms: O_3  and  C_35
REMARK    5  A    between atoms: O_4  and  C_33
REMARK    6  A    between atoms: O_4  and  C_36
REMARK    7  A    between atoms: N_6  and  C_20
REMARK    8  A    between atoms: N_7  and  C_17
REMARK    9  A    between atoms: C_10  and  C_16
REMARK   10  A    between atoms: C_11  and  C_17
REMARK   11  A    between atoms: C_19  and  C_22
REMARK   12  A    between atoms: C_21  and  C_23
REMARK                            x       y       z     vdW  Elec       q    Type
REMARK                         _______ _______ _______ _____ _____    ______ ____
ROOT
ATOM      5  N   UNL     1      15.439  -7.008  -5.789  0.00  0.00    -0.297 NA
ATOM      9  C   UNL     1      14.627  -5.915  -3.568  0.00  0.00    +0.002 C 
ATOM     10  C   UNL     1      15.921  -5.221  -4.075  0.00  0.00    +0.055 C 
ATOM     11  C   UNL     1      15.174  -8.060  -4.772  0.00  0.00    +0.074 C 
ATOM     12  C   UNL     1      14.893  -7.425  -3.392  0.00  0.00    +0.024 C 
ATOM     13  C   UNL     1      13.575  -5.768  -4.689  0.00  0.00    +0.019 C 
ATOM     14  C   UNL     1      16.451  -6.050  -5.279  0.00  0.00    +0.094 C 
ATOM     15  C   UNL     1      14.173  -6.267  -6.015  0.00  0.00    +0.085 C 
ENDROOT
BRANCH  10  16
ATOM      6  N   UNL     1      17.289  -3.647  -2.628  0.00  0.00    -0.270 N 
ATOM      8  N   UNL     1      18.290  -3.585  -1.734  0.00  0.00    -0.171 NA
ATOM     16  C   UNL     1      17.013  -4.911  -3.061  0.00  0.00    +0.044 A 
ATOM     18  C   UNL     1      17.896  -5.733  -2.406  0.00  0.00    +0.053 A 
ATOM     19  C   UNL     1      18.657  -4.862  -1.602  0.00  0.00    +0.093 A 
ATOM     20  C   UNL     1      16.627  -2.427  -3.032  0.00  0.00    +0.172 C 
BRANCH  19  22
ATOM     22  C   UNL     1      19.729  -5.228  -0.712  0.00  0.00    +0.006 A 
ATOM     24  C   UNL     1      20.914  -5.754  -1.227  0.00  0.00    +0.059 A 
ATOM     25  C   UNL     1      19.581  -5.057   0.664  0.00  0.00    +0.014 A 
ATOM     28  C   UNL     1      21.951  -6.109  -0.365  0.00  0.00    +0.162 A 
ATOM     29  C   UNL     1      20.620  -5.412   1.526  0.00  0.00    +0.050 A 
ATOM     30  C   UNL     1      21.805  -5.938   1.012  0.00  0.00    +0.162 A 
BRANCH  28   2
ATOM      2  O   UNL     1      23.105  -6.622  -0.879  0.00  0.00    -0.491 OA
ATOM     34  C   UNL     1      23.084  -7.994  -1.271  0.00  0.00    +0.277 C 
ENDBRANCH  28   2
BRANCH  30   3
ATOM      3  O   UNL     1      22.811  -6.280   1.863  0.00  0.00    -0.491 OA
ATOM     35  C   UNL     1      22.656  -5.908   3.231  0.00  0.00    +0.277 C 
ENDBRANCH  30   3
ENDBRANCH  19  22
ENDBRANCH  10  16
BRANCH  11  17
ATOM     17  C   UNL     1      16.295  -9.099  -4.704  0.00  0.00    +0.123 C 
BRANCH  17   7
ATOM      1  O   UNL     1      18.656 -10.521  -3.896  0.00  0.00    -0.270 OA
ATOM      7  N   UNL     1      16.823  -9.194  -3.378  0.00  0.00    -0.310 N 
ATOM     21  C   UNL     1      17.980  -9.908  -3.073  0.00  0.00    +0.244 C 
ATOM     37  H   UNL     1      16.266  -8.784  -2.637  0.00  0.00    +0.149 HD
BRANCH  21  23
ATOM     23  C   UNL     1      18.382  -9.932  -1.643  0.00  0.00    +0.037 A 
ATOM     26  C   UNL     1      19.247  -8.957  -1.145  0.00  0.00    +0.016 A 
ATOM     27  C   UNL     1      17.897 -10.930  -0.798  0.00  0.00    +0.016 A 
ATOM     31  C   UNL     1      19.625  -8.979   0.197  0.00  0.00    +0.046 A 
ATOM     32  C   UNL     1      18.275 -10.953   0.544  0.00  0.00    +0.046 A 
ATOM     33  C   UNL     1      19.140  -9.977   1.041  0.00  0.00    +0.120 A 
BRANCH  33   4
ATOM      4  O   UNL     1      19.509 -10.001   2.352  0.00  0.00    -0.495 OA
ATOM     36  C   UNL     1      20.343  -8.936   2.809  0.00  0.00    +0.277 C 
ENDBRANCH  33   4
ENDBRANCH  21  23
ENDBRANCH  17   7
ENDBRANCH  11  17
TORSDOF 8
ENDMDL
MODEL 10
REMARK VINA RESULT:      -6.6      2.121      7.181
REMARK  Name = 40779523
REMARK  12 active torsions:
REMARK  status: ('A' for Active; 'I' for Inactive)
REMARK    1  A    between atoms: O_2  and  C_28
REMARK    2  A    between atoms: O_2  and  C_34
REMARK    3  A    between atoms: O_3  and  C_30
REMARK    4  A    between atoms: O_3  and  C_35
REMARK    5  A    between atoms: O_4  and  C_33
REMARK    6  A    between atoms: O_4  and  C_36
REMARK    7  A    between atoms: N_6  and  C_20
REMARK    8  A    between atoms: N_7  and  C_17
REMARK    9  A    between atoms: C_10  and  C_16
REMARK   10  A    between atoms: C_11  and  C_17
REMARK   11  A    between atoms: C_19  and  C_22
REMARK   12  A    between atoms: C_21  and  C_23
REMARK                            x       y       z     vdW  Elec       q    Type
REMARK                         _______ _______ _______ _____ _____    ______ ____
ROOT
ATOM      5  N   UNL     1      12.080   9.123  19.693  0.00  0.00    -0.297 NA
ATOM      9  C   UNL     1      12.934   7.571  21.603  0.00  0.00    +0.002 C 
ATOM     10  C   UNL     1      13.897   8.775  21.408  0.00  0.00    +0.055 C 
ATOM     11  C   UNL     1      12.103   7.711  19.228  0.00  0.00    +0.074 C 
ATOM     12  C   UNL     1      12.799   6.806  20.269  0.00  0.00    +0.024 C 
ATOM     13  C   UNL     1      11.545   8.160  21.930  0.00  0.00    +0.019 C 
ATOM     14  C   UNL     1      13.436   9.537  20.132  0.00  0.00    +0.094 C 
ATOM     15  C   UNL     1      11.170   9.201  20.862  0.00  0.00    +0.085 C 
ENDROOT
BRANCH  10  16
ATOM      6  N   UNL     1      16.325   9.478  21.629  0.00  0.00    -0.270 N 
ATOM      8  N   UNL     1      17.593   9.035  21.589  0.00  0.00    -0.171 NA
ATOM     16  C   UNL     1      15.394   8.505  21.410  0.00  0.00    +0.044 A 
ATOM     18  C   UNL     1      16.103   7.346  21.212  0.00  0.00    +0.053 A 
ATOM     19  C   UNL     1      17.452   7.732  21.334  0.00  0.00    +0.093 A 
ATOM     20  C   UNL     1      16.074  10.878  21.886  0.00  0.00    +0.172 C 
BRANCH  19  22
ATOM     22  C   UNL     1      18.606   6.881  21.209  0.00  0.00    +0.006 A 
ATOM     24  C   UNL     1      19.682   7.030  22.084  0.00  0.00    +0.059 A 
ATOM     25  C   UNL     1      18.648   5.907  20.211  0.00  0.00    +0.014 A 
ATOM     28  C   UNL     1      20.800   6.206  21.961  0.00  0.00    +0.162 A 
ATOM     29  C   UNL     1      19.767   5.083  20.089  0.00  0.00    +0.050 A 
ATOM     30  C   UNL     1      20.843   5.231  20.964  0.00  0.00    +0.162 A 
BRANCH  28   2
ATOM      2  O   UNL     1      21.845   6.361  22.822  0.00  0.00    -0.491 OA
ATOM     34  C   UNL     1      21.661   7.268  23.907  0.00  0.00    +0.277 C 
ENDBRANCH  28   2
BRANCH  30   3
ATOM      3  O   UNL     1      21.929   4.420  20.834  0.00  0.00    -0.491 OA
ATOM     35  C   UNL     1      21.813   3.096  21.351  0.00  0.00    +0.277 C 
ENDBRANCH  30   3
ENDBRANCH  19  22
ENDBRANCH  10  16
BRANCH  11  17
ATOM     17  C   UNL     1      12.727   7.565  17.839  0.00  0.00    +0.123 C 
BRANCH  17   7
ATOM      1  O   UNL     1      13.434   8.454  15.201  0.00  0.00    -0.270 OA
ATOM      7  N   UNL     1      13.507   8.716  17.506  0.00  0.00    -0.310 N 
ATOM     21  C   UNL     1      13.805   9.077  16.194  0.00  0.00    +0.244 C 
ATOM     37  H   UNL     1      13.919   9.225  18.281  0.00  0.00    +0.149 HD
BRANCH  21  23
ATOM     23  C   UNL     1      14.650  10.286  16.017  0.00  0.00    +0.037 A 
ATOM     26  C   UNL     1      15.385  10.458  14.844  0.00  0.00    +0.016 A 
ATOM     27  C   UNL     1      14.710  11.248  17.025  0.00  0.00    +0.016 A 
ATOM     31  C   UNL     1      16.178  11.593  14.678  0.00  0.00    +0.046 A 
ATOM     32  C   UNL     1      15.503  12.383  16.860  0.00  0.00    +0.046 A 
ATOM     33  C   UNL     1      16.238  12.555  15.686  0.00  0.00    +0.120 A 
BRANCH  33   4
ATOM      4  O   UNL     1      17.013  13.663  15.526  0.00  0.00    -0.495 OA
ATOM     36  C   UNL     1      18.427  13.480  15.591  0.00  0.00    +0.277 C 
ENDBRANCH  33   4
ENDBRANCH  21  23
ENDBRANCH  17   7
ENDBRANCH  11  17
TORSDOF 8
ENDMDL
