REMARK  Name = 11886217
REMARK  5 active torsions:
REMARK  status: ('A' for Active; 'I' for Inactive)
REMARK    1  A    between atoms: O_3  and  C_19
REMARK    2  A    between atoms: O_3  and  C_21
REMARK    3  A    between atoms: N_7  and  C_15
REMARK    4  A    between atoms: N_8  and  C_16
REMARK    5  A    between atoms: N_12  and  C_22
REMARK                            x       y       z     vdW  Elec       q    Type
REMARK                         _______ _______ _______ _____ _____    ______ ____
ROOT
ATOM      1  O   UNL     1      -1.109  -2.563   0.991  0.00  0.00    -0.370 OA
ATOM      2  O   UNL     1      -0.819  -1.480  -1.948  0.00  0.00    -0.370 OA
ATOM     13  C   UNL     1      -0.581  -0.912  -0.646  0.00  0.00    +0.176 C 
ATOM     14  C   UNL     1      -1.658  -1.444   0.278  0.00  0.00    +0.172 C 
ATOM     15  C   UNL     1       0.717  -1.455  -0.078  0.00  0.00    +0.171 C 
ATOM     16  C   UNL     1      -2.757  -1.904  -0.653  0.00  0.00    +0.131 C 
ATOM     17  C   UNL     1       0.273  -2.725   0.639  0.00  0.00    +0.190 C 
ATOM     18  C   UNL     1      -1.980  -2.320  -1.889  0.00  0.00    +0.185 C 
ENDROOT
BRANCH  16   8
ATOM      4  O   UNL     1      -5.228  -1.344   0.683  0.00  0.00    -0.252 OA
ATOM      8  N   UNL     1      -3.674  -0.831  -0.950  0.00  0.00    -0.292 N 
ATOM     12  N   UNL     1      -5.547   0.485  -0.753  0.00  0.00    -0.269 N 
ATOM     20  C   UNL     1      -4.866  -0.625  -0.245  0.00  0.00    +0.304 C 
ATOM     34  H   UNL     1      -3.412  -0.154  -1.660  0.00  0.00    +0.151 HD
ATOM     35  H   UNL     1      -5.107   0.972  -1.530  0.00  0.00    +0.156 HD
BRANCH  12  22
ATOM     22  C   UNL     1      -6.782   1.020  -0.318  0.00  0.00    +0.035 A 
ATOM     25  C   UNL     1      -7.299   2.136  -0.955  0.00  0.00    +0.023 A 
ATOM     26  C   UNL     1      -7.449   0.416   0.735  0.00  0.00    +0.023 A 
ATOM     30  C   UNL     1      -8.517   2.664  -0.527  0.00  0.00    +0.002 A 
ATOM     31  C   UNL     1      -8.667   0.944   1.163  0.00  0.00    +0.002 A 
ATOM     33  C   UNL     1      -9.201   2.068   0.532  0.00  0.00    +0.000 A 
ENDBRANCH  12  22
ENDBRANCH  16   8
BRANCH  15   7
ATOM      7  N   UNL     1       1.413  -0.478   0.764  0.00  0.00    -0.187 N 
ATOM      9  N   UNL     1       0.815   0.054   1.835  0.00  0.00    -0.041 NA
ATOM     10  N   UNL     1       2.878   0.869   1.607  0.00  0.00    -0.071 NA
ATOM     11  N   UNL     1       1.719   0.880   2.349  0.00  0.00    -0.020 NA
ATOM     19  C   UNL     1       2.665   0.018   0.629  0.00  0.00    +0.342 A 
BRANCH  19   3
ATOM      3  O   UNL     1       3.510  -0.309  -0.331  0.00  0.00    -0.423 OA
BRANCH   3  21
ATOM      5  O   UNL     1       8.231  -0.292   0.654  0.00  0.00    -0.452 OA
ATOM      6  O   UNL     1       8.575   1.728  -0.614  0.00  0.00    -0.453 OA
ATOM     21  C   UNL     1       4.784   0.235  -0.422  0.00  0.00    +0.136 A 
ATOM     23  C   UNL     1       5.831  -0.404   0.221  0.00  0.00    +0.096 A 
ATOM     24  C   UNL     1       4.961   1.404  -1.159  0.00  0.00    +0.050 A 
ATOM     27  C   UNL     1       7.078   0.174   0.101  0.00  0.00    +0.170 A 
ATOM     28  C   UNL     1       7.275   1.328  -0.623  0.00  0.00    +0.166 A 
ATOM     29  C   UNL     1       6.235   1.968  -1.266  0.00  0.00    +0.053 A 
ATOM     32  C   UNL     1       9.175   0.697   0.196  0.00  0.00    +0.466 C 
ENDBRANCH   3  21
ENDBRANCH  19   3
ENDBRANCH  15   7
TORSDOF 5
