MODEL 1
REMARK VINA RESULT:      -7.9      0.000      0.000
REMARK  Name = 51136847
REMARK  7 active torsions:
REMARK  status: ('A' for Active; 'I' for Inactive)
REMARK    1  A    between atoms: O_2  and  C_31
REMARK    2  A    between atoms: O_2  and  C_32
REMARK    3  A    between atoms: N_3  and  C_13
REMARK    4  A    between atoms: N_5  and  C_24
REMARK    5  A    between atoms: C_9  and  C_14
REMARK    6  A    between atoms: C_13  and  C_15
REMARK    7  A    between atoms: C_20  and  C_25
REMARK                            x       y       z     vdW  Elec       q    Type
REMARK                         _______ _______ _______ _____ _____    ______ ____
ROOT
ATOM      1  O   UNL     1      15.510   9.638  21.419  0.00  0.00    -0.336 OA
ATOM      6  N   UNL     1      15.679   7.583  20.544  0.00  0.00    -0.190 NA
ATOM      7  N   UNL     1      16.849   9.257  21.575  0.00  0.00    -0.056 NA
ATOM     14  C   UNL     1      14.891   8.596  20.804  0.00  0.00    +0.245 A 
ATOM     20  C   UNL     1      16.869   8.036  21.034  0.00  0.00    +0.204 A 
ENDROOT
BRANCH  20  25
ATOM      4  N   UNL     1      21.531   5.009  20.849  0.00  0.00    -0.313 N 
ATOM      5  N   UNL     1      23.949   3.494  20.996  0.00  0.00    -0.302 NA
ATOM      8  N   UNL     1      20.330   6.857  21.712  0.00  0.00    -0.240 NA
ATOM     16  C   UNL     1      22.812   5.688  21.079  0.00  0.00    +0.122 C 
ATOM     17  C   UNL     1      21.488   3.592  21.223  0.00  0.00    +0.122 C 
ATOM     18  C   UNL     1      23.965   4.872  20.490  0.00  0.00    +0.103 C 
ATOM     19  C   UNL     1      22.685   2.843  20.631  0.00  0.00    +0.103 C 
ATOM     21  C   UNL     1      20.362   5.776  20.900  0.00  0.00    +0.121 A 
ATOM     24  C   UNL     1      25.085   2.740  20.470  0.00  0.00    +0.105 C 
ATOM     25  C   UNL     1      18.061   7.241  20.970  0.00  0.00    +0.041 A 
ATOM     26  C   UNL     1      19.301   5.371  20.106  0.00  0.00    +0.044 A 
ATOM     27  C   UNL     1      18.132   6.123  20.147  0.00  0.00    +0.016 A 
ATOM     30  C   UNL     1      19.176   7.563  21.726  0.00  0.00    +0.124 A 
ENDBRANCH  20  25
BRANCH  14   9
ATOM      3  N   UNL     1      12.675   7.485  20.586  0.00  0.00    -0.287 NA
ATOM      9  C   UNL     1      13.414   8.762  20.518  0.00  0.00    +0.146 C 
ATOM     10  C   UNL     1      12.710   9.676  21.538  0.00  0.00    +0.030 C 
ATOM     11  C   UNL     1      11.554   8.848  22.082  0.00  0.00    +0.017 C 
ATOM     12  C   UNL     1      11.311   7.818  20.999  0.00  0.00    +0.085 C 
BRANCH   3  13
ATOM     13  C   UNL     1      12.703   6.738  19.336  0.00  0.00    +0.120 C 
BRANCH  13  15
ATOM     15  C   UNL     1      12.758   7.650  18.139  0.00  0.00    -0.033 A 
ATOM     22  C   UNL     1      13.945   7.787  17.420  0.00  0.00    +0.008 A 
ATOM     23  C   UNL     1      11.622   8.360  17.750  0.00  0.00    +0.008 A 
ATOM     28  C   UNL     1      13.997   8.632  16.311  0.00  0.00    +0.046 A 
ATOM     29  C   UNL     1      11.673   9.204  16.640  0.00  0.00    +0.046 A 
ATOM     31  C   UNL     1      12.859   9.340  15.921  0.00  0.00    +0.120 A 
BRANCH  31   2
ATOM      2  O   UNL     1      12.909  10.164  14.839  0.00  0.00    -0.495 OA
ATOM     32  C   UNL     1      13.871  11.218  14.869  0.00  0.00    +0.277 C 
ENDBRANCH  31   2
ENDBRANCH  13  15
ENDBRANCH   3  13
ENDBRANCH  14   9
TORSDOF 5
ENDMDL
MODEL 2
REMARK VINA RESULT:      -7.7      2.017      4.348
REMARK  Name = 51136847
REMARK  7 active torsions:
REMARK  status: ('A' for Active; 'I' for Inactive)
REMARK    1  A    between atoms: O_2  and  C_31
REMARK    2  A    between atoms: O_2  and  C_32
REMARK    3  A    between atoms: N_3  and  C_13
REMARK    4  A    between atoms: N_5  and  C_24
REMARK    5  A    between atoms: C_9  and  C_14
REMARK    6  A    between atoms: C_13  and  C_15
REMARK    7  A    between atoms: C_20  and  C_25
REMARK                            x       y       z     vdW  Elec       q    Type
REMARK                         _______ _______ _______ _____ _____    ______ ____
ROOT
ATOM      1  O   UNL     1      16.463   8.262  20.493  0.00  0.00    -0.336 OA
ATOM      6  N   UNL     1      17.100   6.298  19.625  0.00  0.00    -0.190 NA
ATOM      7  N   UNL     1      17.790   8.068  20.899  0.00  0.00    -0.056 NA
ATOM     14  C   UNL     1      16.135   7.174  19.748  0.00  0.00    +0.245 A 
ATOM     20  C   UNL     1      18.094   6.890  20.348  0.00  0.00    +0.204 A 
ENDROOT
BRANCH  20  25
ATOM      4  N   UNL     1      23.048   4.428  20.919  0.00  0.00    -0.313 N 
ATOM      5  N   UNL     1      25.534   3.024  21.018  0.00  0.00    -0.302 NA
ATOM      8  N   UNL     1      20.742   4.280  20.405  0.00  0.00    -0.240 NA
ATOM     16  C   UNL     1      23.083   3.020  21.335  0.00  0.00    +0.122 C 
ATOM     17  C   UNL     1      24.176   4.874  20.096  0.00  0.00    +0.122 C 
ATOM     18  C   UNL     1      24.445   2.672  21.937  0.00  0.00    +0.103 C 
ATOM     19  C   UNL     1      25.504   4.465  20.738  0.00  0.00    +0.103 C 
ATOM     21  C   UNL     1      21.798   5.040  20.775  0.00  0.00    +0.121 A 
ATOM     24  C   UNL     1      26.827   2.637  21.579  0.00  0.00    +0.105 C 
ATOM     25  C   UNL     1      19.381   6.277  20.501  0.00  0.00    +0.041 A 
ATOM     26  C   UNL     1      21.725   6.401  21.021  0.00  0.00    +0.044 A 
ATOM     27  C   UNL     1      20.490   7.024  20.880  0.00  0.00    +0.016 A 
ATOM     30  C   UNL     1      19.557   4.921  20.278  0.00  0.00    +0.124 A 
ENDBRANCH  20  25
BRANCH  14   9
ATOM      3  N   UNL     1      13.823   8.088  19.861  0.00  0.00    -0.287 NA
ATOM      9  C   UNL     1      14.731   7.142  19.182  0.00  0.00    +0.146 C 
ATOM     10  C   UNL     1      14.679   7.547  17.697  0.00  0.00    +0.030 C 
ATOM     11  C   UNL     1      13.673   8.687  17.631  0.00  0.00    +0.017 C 
ATOM     12  C   UNL     1      12.823   8.486  18.869  0.00  0.00    +0.085 C 
BRANCH   3  13
ATOM     13  C   UNL     1      13.214   7.537  21.063  0.00  0.00    +0.120 C 
BRANCH  13  15
ATOM     15  C   UNL     1      12.476   8.588  21.850  0.00  0.00    -0.033 A 
ATOM     22  C   UNL     1      11.142   8.386  22.205  0.00  0.00    +0.008 A 
ATOM     23  C   UNL     1      13.126   9.764  22.223  0.00  0.00    +0.008 A 
ATOM     28  C   UNL     1      10.458   9.359  22.934  0.00  0.00    +0.046 A 
ATOM     29  C   UNL     1      12.443  10.737  22.953  0.00  0.00    +0.046 A 
ATOM     31  C   UNL     1      11.110  10.535  23.308  0.00  0.00    +0.120 A 
BRANCH  31   2
ATOM      2  O   UNL     1      10.444  11.485  24.020  0.00  0.00    -0.495 OA
ATOM     32  C   UNL     1      11.070  11.964  25.209  0.00  0.00    +0.277 C 
ENDBRANCH  31   2
ENDBRANCH  13  15
ENDBRANCH   3  13
ENDBRANCH  14   9
TORSDOF 5
ENDMDL
MODEL 3
REMARK VINA RESULT:      -7.5     26.543     30.810
REMARK  Name = 51136847
REMARK  7 active torsions:
REMARK  status: ('A' for Active; 'I' for Inactive)
REMARK    1  A    between atoms: O_2  and  C_31
REMARK    2  A    between atoms: O_2  and  C_32
REMARK    3  A    between atoms: N_3  and  C_13
REMARK    4  A    between atoms: N_5  and  C_24
REMARK    5  A    between atoms: C_9  and  C_14
REMARK    6  A    between atoms: C_13  and  C_15
REMARK    7  A    between atoms: C_20  and  C_25
REMARK                            x       y       z     vdW  Elec       q    Type
REMARK                         _______ _______ _______ _____ _____    ______ ____
ROOT
ATOM      1  O   UNL     1      -4.698 -10.747  17.477  0.00  0.00    -0.336 OA
ATOM      6  N   UNL     1      -5.621 -10.260  15.495  0.00  0.00    -0.190 NA
ATOM      7  N   UNL     1      -5.998 -10.302  17.751  0.00  0.00    -0.056 NA
ATOM     14  C   UNL     1      -4.558 -10.690  16.127  0.00  0.00    +0.245 A 
ATOM     20  C   UNL     1      -6.477 -10.035  16.533  0.00  0.00    +0.204 A 
ENDROOT
BRANCH  20  25
ATOM      4  N   UNL     1     -11.627  -8.147  15.614  0.00  0.00    -0.313 N 
ATOM      5  N   UNL     1     -14.306  -7.372  14.995  0.00  0.00    -0.302 NA
ATOM      8  N   UNL     1      -9.662  -9.194  14.809  0.00  0.00    -0.240 NA
ATOM     16  C   UNL     1     -11.960  -7.657  14.271  0.00  0.00    +0.122 C 
ATOM     17  C   UNL     1     -12.746  -8.697  16.384  0.00  0.00    +0.122 C 
ATOM     18  C   UNL     1     -13.172  -6.725  14.324  0.00  0.00    +0.103 C 
ATOM     19  C   UNL     1     -13.934  -7.731  16.369  0.00  0.00    +0.103 C 
ATOM     21  C   UNL     1     -10.330  -8.623  15.837  0.00  0.00    +0.121 A 
ATOM     24  C   UNL     1     -15.475  -6.494  14.992  0.00  0.00    +0.105 C 
ATOM     25  C   UNL     1      -7.806  -9.541  16.319  0.00  0.00    +0.041 A 
ATOM     26  C   UNL     1      -9.811  -8.478  17.113  0.00  0.00    +0.044 A 
ATOM     27  C   UNL     1      -8.525  -8.948  17.351  0.00  0.00    +0.016 A 
ATOM     30  C   UNL     1      -8.414  -9.640  15.078  0.00  0.00    +0.124 A 
ENDBRANCH  20  25
BRANCH  14   9
ATOM      3  N   UNL     1      -2.922 -10.510  14.260  0.00  0.00    -0.287 NA
ATOM      9  C   UNL     1      -3.220 -11.127  15.568  0.00  0.00    +0.146 C 
ATOM     10  C   UNL     1      -2.039 -10.722  16.470  0.00  0.00    +0.030 C 
ATOM     11  C   UNL     1      -1.102  -9.933  15.566  0.00  0.00    +0.017 C 
ATOM     12  C   UNL     1      -1.465 -10.407  14.174  0.00  0.00    +0.085 C 
BRANCH   3  13
ATOM     13  C   UNL     1      -3.487 -11.245  13.137  0.00  0.00    +0.120 C 
BRANCH  13  15
ATOM     15  C   UNL     1      -4.090 -10.323  12.110  0.00  0.00    -0.033 A 
ATOM     22  C   UNL     1      -5.407  -9.886  12.252  0.00  0.00    +0.008 A 
ATOM     23  C   UNL     1      -3.332  -9.908  11.015  0.00  0.00    +0.008 A 
ATOM     28  C   UNL     1      -5.966  -9.033  11.302  0.00  0.00    +0.046 A 
ATOM     29  C   UNL     1      -3.891  -9.053  10.065  0.00  0.00    +0.046 A 
ATOM     31  C   UNL     1      -5.207  -8.616  10.208  0.00  0.00    +0.120 A 
BRANCH  31   2
ATOM      2  O   UNL     1      -5.752  -7.782   9.280  0.00  0.00    -0.495 OA
ATOM     32  C   UNL     1      -7.093  -8.053   8.872  0.00  0.00    +0.277 C 
ENDBRANCH  31   2
ENDBRANCH  13  15
ENDBRANCH   3  13
ENDBRANCH  14   9
TORSDOF 5
ENDMDL
MODEL 4
REMARK VINA RESULT:      -7.4     30.132     32.077
REMARK  Name = 51136847
REMARK  7 active torsions:
REMARK  status: ('A' for Active; 'I' for Inactive)
REMARK    1  A    between atoms: O_2  and  C_31
REMARK    2  A    between atoms: O_2  and  C_32
REMARK    3  A    between atoms: N_3  and  C_13
REMARK    4  A    between atoms: N_5  and  C_24
REMARK    5  A    between atoms: C_9  and  C_14
REMARK    6  A    between atoms: C_13  and  C_15
REMARK    7  A    between atoms: C_20  and  C_25
REMARK                            x       y       z     vdW  Elec       q    Type
REMARK                         _______ _______ _______ _____ _____    ______ ____
ROOT
ATOM      1  O   UNL     1     -14.282  -5.097  13.949  0.00  0.00    -0.336 OA
ATOM      6  N   UNL     1     -12.079  -5.198  13.561  0.00  0.00    -0.190 NA
ATOM      7  N   UNL     1     -13.789  -6.124  14.765  0.00  0.00    -0.056 NA
ATOM     14  C   UNL     1     -13.210  -4.606  13.273  0.00  0.00    +0.245 A 
ATOM     20  C   UNL     1     -12.484  -6.121  14.480  0.00  0.00    +0.204 A 
ENDROOT
BRANCH  20  25
ATOM      4  N   UNL     1      -8.902  -9.696  16.787  0.00  0.00    -0.313 N 
ATOM      5  N   UNL     1      -6.969 -11.567  17.747  0.00  0.00    -0.302 NA
ATOM      8  N   UNL     1     -10.303  -9.091  14.976  0.00  0.00    -0.240 NA
ATOM     16  C   UNL     1      -9.030 -11.120  16.457  0.00  0.00    +0.122 C 
ATOM     17  C   UNL     1      -7.552  -9.243  17.133  0.00  0.00    +0.122 C 
ATOM     18  C   UNL     1      -8.360 -11.982  17.530  0.00  0.00    +0.103 C 
ATOM     19  C   UNL     1      -6.929 -10.166  18.184  0.00  0.00    +0.103 C 
ATOM     21  C   UNL     1      -9.805  -8.802  16.201  0.00  0.00    +0.121 A 
ATOM     24  C   UNL     1      -6.323 -12.431  18.733  0.00  0.00    +0.105 C 
ATOM     25  C   UNL     1     -11.559  -7.028  15.094  0.00  0.00    +0.041 A 
ATOM     26  C   UNL     1     -10.132  -7.665  16.922  0.00  0.00    +0.044 A 
ATOM     27  C   UNL     1     -11.027  -6.766  16.352  0.00  0.00    +0.016 A 
ATOM     30  C   UNL     1     -11.169  -8.193  14.454  0.00  0.00    +0.124 A 
ENDBRANCH  20  25
BRANCH  14   9
ATOM      3  N   UNL     1     -13.196  -3.831  10.909  0.00  0.00    -0.287 NA
ATOM      9  C   UNL     1     -13.482  -3.469  12.311  0.00  0.00    +0.146 C 
ATOM     10  C   UNL     1     -14.960  -3.033  12.308  0.00  0.00    +0.030 C 
ATOM     11  C   UNL     1     -15.398  -3.126  10.854  0.00  0.00    +0.017 C 
ATOM     12  C   UNL     1     -14.099  -3.030  10.082  0.00  0.00    +0.085 C 
BRANCH   3  13
ATOM     13  C   UNL     1     -11.799  -3.639  10.540  0.00  0.00    +0.120 C 
BRANCH  13  15
ATOM     15  C   UNL     1     -11.242  -4.834   9.812  0.00  0.00    -0.033 A 
ATOM     22  C   UNL     1     -11.775  -6.102  10.041  0.00  0.00    +0.008 A 
ATOM     23  C   UNL     1     -10.193  -4.671   8.908  0.00  0.00    +0.008 A 
ATOM     28  C   UNL     1     -11.260  -7.209   9.366  0.00  0.00    +0.046 A 
ATOM     29  C   UNL     1      -9.677  -5.778   8.232  0.00  0.00    +0.046 A 
ATOM     31  C   UNL     1     -10.210  -7.046   8.461  0.00  0.00    +0.120 A 
BRANCH  31   2
ATOM      2  O   UNL     1      -9.707  -8.125   7.802  0.00  0.00    -0.495 OA
ATOM     32  C   UNL     1      -8.674  -8.861   8.456  0.00  0.00    +0.277 C 
ENDBRANCH  31   2
ENDBRANCH  13  15
ENDBRANCH   3  13
ENDBRANCH  14   9
TORSDOF 5
ENDMDL
MODEL 5
REMARK VINA RESULT:      -7.3      4.236      8.895
REMARK  Name = 51136847
REMARK  7 active torsions:
REMARK  status: ('A' for Active; 'I' for Inactive)
REMARK    1  A    between atoms: O_2  and  C_31
REMARK    2  A    between atoms: O_2  and  C_32
REMARK    3  A    between atoms: N_3  and  C_13
REMARK    4  A    between atoms: N_5  and  C_24
REMARK    5  A    between atoms: C_9  and  C_14
REMARK    6  A    between atoms: C_13  and  C_15
REMARK    7  A    between atoms: C_20  and  C_25
REMARK                            x       y       z     vdW  Elec       q    Type
REMARK                         _______ _______ _______ _____ _____    ______ ____
ROOT
ATOM      1  O   UNL     1      12.885  10.466  19.201  0.00  0.00    -0.336 OA
ATOM      6  N   UNL     1      13.476   9.367  17.342  0.00  0.00    -0.190 NA
ATOM      7  N   UNL     1      13.529  11.404  18.383  0.00  0.00    -0.056 NA
ATOM     14  C   UNL     1      12.897   9.294  18.514  0.00  0.00    +0.245 A 
ATOM     20  C   UNL     1      13.846  10.680  17.306  0.00  0.00    +0.204 A 
ENDROOT
BRANCH  20  25
ATOM      4  N   UNL     1      16.447  12.816  12.879  0.00  0.00    -0.313 N 
ATOM      5  N   UNL     1      17.563  13.989  10.524  0.00  0.00    -0.302 NA
ATOM      8  N   UNL     1      14.575  11.703  13.806  0.00  0.00    -0.240 NA
ATOM     16  C   UNL     1      16.208  12.203  11.567  0.00  0.00    +0.122 C 
ATOM     17  C   UNL     1      16.789  14.242  12.860  0.00  0.00    +0.122 C 
ATOM     18  C   UNL     1      17.347  12.539  10.601  0.00  0.00    +0.103 C 
ATOM     19  C   UNL     1      17.909  14.512  11.852  0.00  0.00    +0.103 C 
ATOM     21  C   UNL     1      15.787  12.275  13.988  0.00  0.00    +0.121 A 
ATOM     24  C   UNL     1      18.615  14.301   9.559  0.00  0.00    +0.105 C 
ATOM     25  C   UNL     1      14.535  11.237  16.179  0.00  0.00    +0.041 A 
ATOM     26  C   UNL     1      16.427  12.365  15.213  0.00  0.00    +0.044 A 
ATOM     27  C   UNL     1      15.783  11.833  16.325  0.00  0.00    +0.016 A 
ATOM     30  C   UNL     1      13.979  11.198  14.911  0.00  0.00    +0.124 A 
ENDBRANCH  20  25
BRANCH  14   9
ATOM      3  N   UNL     1      13.087   7.546  20.274  0.00  0.00    -0.287 NA
ATOM      9  C   UNL     1      12.251   8.106  19.194  0.00  0.00    +0.146 C 
ATOM     10  C   UNL     1      10.918   8.465  19.877  0.00  0.00    +0.030 C 
ATOM     11  C   UNL     1      11.079   8.014  21.322  0.00  0.00    +0.017 C 
ATOM     12  C   UNL     1      12.166   6.962  21.250  0.00  0.00    +0.085 C 
BRANCH   3  13
ATOM     13  C   UNL     1      14.067   6.578  19.798  0.00  0.00    +0.120 C 
BRANCH  13  15
ATOM     15  C   UNL     1      15.472   6.971  20.175  0.00  0.00    -0.033 A 
ATOM     22  C   UNL     1      15.693   8.101  20.962  0.00  0.00    +0.008 A 
ATOM     23  C   UNL     1      16.551   6.204  19.736  0.00  0.00    +0.008 A 
ATOM     28  C   UNL     1      16.993   8.465  21.311  0.00  0.00    +0.046 A 
ATOM     29  C   UNL     1      17.852   6.567  20.086  0.00  0.00    +0.046 A 
ATOM     31  C   UNL     1      18.073   7.697  20.873  0.00  0.00    +0.120 A 
BRANCH  31   2
ATOM      2  O   UNL     1      19.342   8.051  21.214  0.00  0.00    -0.495 OA
ATOM     32  C   UNL     1      19.601   8.285  22.597  0.00  0.00    +0.277 C 
ENDBRANCH  31   2
ENDBRANCH  13  15
ENDBRANCH   3  13
ENDBRANCH  14   9
TORSDOF 5
ENDMDL
MODEL 6
REMARK VINA RESULT:      -7.3     15.875     19.657
REMARK  Name = 51136847
REMARK  7 active torsions:
REMARK  status: ('A' for Active; 'I' for Inactive)
REMARK    1  A    between atoms: O_2  and  C_31
REMARK    2  A    between atoms: O_2  and  C_32
REMARK    3  A    between atoms: N_3  and  C_13
REMARK    4  A    between atoms: N_5  and  C_24
REMARK    5  A    between atoms: C_9  and  C_14
REMARK    6  A    between atoms: C_13  and  C_15
REMARK    7  A    between atoms: C_20  and  C_25
REMARK                            x       y       z     vdW  Elec       q    Type
REMARK                         _______ _______ _______ _____ _____    ______ ____
ROOT
ATOM      1  O   UNL     1      10.169   4.660   5.596  0.00  0.00    -0.336 OA
ATOM      6  N   UNL     1      10.907   6.131   4.077  0.00  0.00    -0.190 NA
ATOM      7  N   UNL     1      10.319   3.944   4.402  0.00  0.00    -0.056 NA
ATOM     14  C   UNL     1      10.535   5.939   5.317  0.00  0.00    +0.245 A 
ATOM     20  C   UNL     1      10.758   4.879   3.555  0.00  0.00    +0.204 A 
ENDROOT
BRANCH  20  25
ATOM      4  N   UNL     1      11.993   3.746  -1.748  0.00  0.00    -0.313 N 
ATOM      5  N   UNL     1      12.734   2.957  -4.392  0.00  0.00    -0.302 NA
ATOM      8  N   UNL     1      12.595   3.708   0.541  0.00  0.00    -0.240 NA
ATOM     16  C   UNL     1      13.403   3.771  -2.156  0.00  0.00    +0.122 C 
ATOM     17  C   UNL     1      11.127   2.846  -2.515  0.00  0.00    +0.122 C 
ATOM     18  C   UNL     1      13.521   3.964  -3.669  0.00  0.00    +0.103 C 
ATOM     19  C   UNL     1      11.318   3.067  -4.018  0.00  0.00    +0.103 C 
ATOM     21  C   UNL     1      11.690   4.029  -0.412  0.00  0.00    +0.121 A 
ATOM     24  C   UNL     1      12.897   3.116  -5.836  0.00  0.00    +0.105 C 
ATOM     25  C   UNL     1      11.055   4.596   2.181  0.00  0.00    +0.041 A 
ATOM     26  C   UNL     1      10.467   4.625  -0.150  0.00  0.00    +0.044 A 
ATOM     27  C   UNL     1      10.151   4.911   1.173  0.00  0.00    +0.016 A 
ATOM     30  C   UNL     1      12.252   4.001   1.817  0.00  0.00    +0.124 A 
ENDBRANCH  20  25
BRANCH  14   9
ATOM      3  N   UNL     1       9.311   7.847   6.344  0.00  0.00    -0.287 NA
ATOM      9  C   UNL     1      10.460   6.927   6.462  0.00  0.00    +0.146 C 
ATOM     10  C   UNL     1      10.273   6.241   7.828  0.00  0.00    +0.030 C 
ATOM     11  C   UNL     1       9.030   6.883   8.428  0.00  0.00    +0.017 C 
ATOM     12  C   UNL     1       8.932   8.213   7.709  0.00  0.00    +0.085 C 
BRANCH   3  13
ATOM     13  C   UNL     1       9.594   9.016   5.521  0.00  0.00    +0.120 C 
BRANCH  13  15
ATOM     15  C   UNL     1       8.551   9.215   4.453  0.00  0.00    -0.033 A 
ATOM     22  C   UNL     1       7.333   9.815   4.769  0.00  0.00    +0.008 A 
ATOM     23  C   UNL     1       8.805   8.797   3.146  0.00  0.00    +0.008 A 
ATOM     28  C   UNL     1       6.367   9.999   3.780  0.00  0.00    +0.046 A 
ATOM     29  C   UNL     1       7.840   8.983   2.156  0.00  0.00    +0.046 A 
ATOM     31  C   UNL     1       6.622   9.583   2.472  0.00  0.00    +0.120 A 
BRANCH  31   2
ATOM      2  O   UNL     1       5.680   9.763   1.506  0.00  0.00    -0.495 OA
ATOM     32  C   UNL     1       4.343  10.006   1.941  0.00  0.00    +0.277 C 
ENDBRANCH  31   2
ENDBRANCH  13  15
ENDBRANCH   3  13
ENDBRANCH  14   9
TORSDOF 5
ENDMDL
MODEL 7
REMARK VINA RESULT:      -7.2     26.775     30.792
REMARK  Name = 51136847
REMARK  7 active torsions:
REMARK  status: ('A' for Active; 'I' for Inactive)
REMARK    1  A    between atoms: O_2  and  C_31
REMARK    2  A    between atoms: O_2  and  C_32
REMARK    3  A    between atoms: N_3  and  C_13
REMARK    4  A    between atoms: N_5  and  C_24
REMARK    5  A    between atoms: C_9  and  C_14
REMARK    6  A    between atoms: C_13  and  C_15
REMARK    7  A    between atoms: C_20  and  C_25
REMARK                            x       y       z     vdW  Elec       q    Type
REMARK                         _______ _______ _______ _____ _____    ______ ____
ROOT
ATOM      1  O   UNL     1      -4.147 -13.329  15.405  0.00  0.00    -0.336 OA
ATOM      6  N   UNL     1      -4.763 -11.236  15.914  0.00  0.00    -0.190 NA
ATOM      7  N   UNL     1      -5.433 -13.424  15.953  0.00  0.00    -0.056 NA
ATOM     14  C   UNL     1      -3.828 -12.008  15.420  0.00  0.00    +0.245 A 
ATOM     20  C   UNL     1      -5.727 -12.150  16.227  0.00  0.00    +0.204 A 
ENDROOT
BRANCH  20  25
ATOM      4  N   UNL     1     -10.519 -10.600  18.586  0.00  0.00    -0.313 N 
ATOM      5  N   UNL     1     -12.856  -9.620  19.905  0.00  0.00    -0.302 NA
ATOM      8  N   UNL     1      -8.173 -10.881  18.724  0.00  0.00    -0.240 NA
ATOM     16  C   UNL     1     -10.659 -10.744  20.040  0.00  0.00    +0.122 C 
ATOM     17  C   UNL     1     -11.311  -9.527  17.976  0.00  0.00    +0.122 C 
ATOM     18  C   UNL     1     -12.137 -10.784  20.436  0.00  0.00    +0.103 C 
ATOM     19  C   UNL     1     -12.768  -9.606  18.440  0.00  0.00    +0.103 C 
ATOM     21  C   UNL     1      -9.310 -10.989  17.999  0.00  0.00    +0.121 A 
ATOM     24  C   UNL     1     -14.254  -9.640  20.335  0.00  0.00    +0.105 C 
ATOM     25  C   UNL     1      -6.975 -11.756  16.815  0.00  0.00    +0.041 A 
ATOM     26  C   UNL     1      -9.358 -11.464  16.699  0.00  0.00    +0.044 A 
ATOM     27  C   UNL     1      -8.164 -11.853  16.102  0.00  0.00    +0.016 A 
ATOM     30  C   UNL     1      -7.032 -11.269  18.110  0.00  0.00    +0.124 A 
ENDBRANCH  20  25
BRANCH  14   9
ATOM      3  N   UNL     1      -2.542 -10.608  13.813  0.00  0.00    -0.287 NA
ATOM      9  C   UNL     1      -2.467 -11.636  14.871  0.00  0.00    +0.146 C 
ATOM     10  C   UNL     1      -1.540 -11.029  15.941  0.00  0.00    +0.030 C 
ATOM     11  C   UNL     1      -1.098  -9.689  15.369  0.00  0.00    +0.017 C 
ATOM     12  C   UNL     1      -1.288  -9.857  13.876  0.00  0.00    +0.085 C 
BRANCH   3  13
ATOM     13  C   UNL     1      -2.783 -11.165  12.489  0.00  0.00    +0.120 C 
BRANCH  13  15
ATOM     15  C   UNL     1      -3.641 -10.257  11.647  0.00  0.00    -0.033 A 
ATOM     22  C   UNL     1      -4.910  -9.887  12.090  0.00  0.00    +0.008 A 
ATOM     23  C   UNL     1      -3.165  -9.787  10.422  0.00  0.00    +0.008 A 
ATOM     28  C   UNL     1      -5.705  -9.046  11.311  0.00  0.00    +0.046 A 
ATOM     29  C   UNL     1      -3.959  -8.945   9.643  0.00  0.00    +0.046 A 
ATOM     31  C   UNL     1      -5.229  -8.575  10.087  0.00  0.00    +0.120 A 
BRANCH  31   2
ATOM      2  O   UNL     1      -6.003  -7.755   9.326  0.00  0.00    -0.495 OA
ATOM     32  C   UNL     1      -7.231  -8.292   8.835  0.00  0.00    +0.277 C 
ENDBRANCH  31   2
ENDBRANCH  13  15
ENDBRANCH   3  13
ENDBRANCH  14   9
TORSDOF 5
ENDMDL
MODEL 8
REMARK VINA RESULT:      -6.9     28.763     30.658
REMARK  Name = 51136847
REMARK  7 active torsions:
REMARK  status: ('A' for Active; 'I' for Inactive)
REMARK    1  A    between atoms: O_2  and  C_31
REMARK    2  A    between atoms: O_2  and  C_32
REMARK    3  A    between atoms: N_3  and  C_13
REMARK    4  A    between atoms: N_5  and  C_24
REMARK    5  A    between atoms: C_9  and  C_14
REMARK    6  A    between atoms: C_13  and  C_15
REMARK    7  A    between atoms: C_20  and  C_25
REMARK                            x       y       z     vdW  Elec       q    Type
REMARK                         _______ _______ _______ _____ _____    ______ ____
ROOT
ATOM      1  O   UNL     1      -5.392  -9.270   7.814  0.00  0.00    -0.336 OA
ATOM      6  N   UNL     1      -7.064  -9.855   9.185  0.00  0.00    -0.190 NA
ATOM      7  N   UNL     1      -4.826  -9.388   9.090  0.00  0.00    -0.056 NA
ATOM     14  C   UNL     1      -6.711  -9.561   7.959  0.00  0.00    +0.245 A 
ATOM     20  C   UNL     1      -5.874  -9.736   9.842  0.00  0.00    +0.204 A 
ENDROOT
BRANCH  20  25
ATOM      4  N   UNL     1      -5.365 -10.650  15.304  0.00  0.00    -0.313 N 
ATOM      5  N   UNL     1      -4.898 -10.984  18.103  0.00  0.00    -0.302 NA
ATOM      8  N   UNL     1      -4.364 -10.402  13.174  0.00  0.00    -0.240 NA
ATOM     16  C   UNL     1      -4.253 -11.487  15.770  0.00  0.00    +0.122 C 
ATOM     17  C   UNL     1      -5.838  -9.637  16.253  0.00  0.00    +0.122 C 
ATOM     18  C   UNL     1      -4.554 -12.055  17.159  0.00  0.00    +0.103 C 
ATOM     19  C   UNL     1      -6.086 -10.264  17.628  0.00  0.00    +0.103 C 
ATOM     21  C   UNL     1      -5.486 -10.422  13.929  0.00  0.00    +0.121 A 
ATOM     24  C   UNL     1      -5.129 -11.531  19.439  0.00  0.00    +0.105 C 
ATOM     25  C   UNL     1      -5.767  -9.970  11.253  0.00  0.00    +0.041 A 
ATOM     26  C   UNL     1      -6.762 -10.228  13.427  0.00  0.00    +0.044 A 
ATOM     27  C   UNL     1      -6.897  -9.999  12.062  0.00  0.00    +0.016 A 
ATOM     30  C   UNL     1      -4.535 -10.176  11.851  0.00  0.00    +0.124 A 
ENDBRANCH  20  25
BRANCH  14   9
ATOM      3  N   UNL     1      -8.355  -8.265   6.612  0.00  0.00    -0.287 NA
ATOM      9  C   UNL     1      -7.556  -9.504   6.704  0.00  0.00    +0.146 C 
ATOM     10  C   UNL     1      -6.711  -9.520   5.416  0.00  0.00    +0.030 C 
ATOM     11  C   UNL     1      -7.147  -8.286   4.640  0.00  0.00    +0.017 C 
ATOM     12  C   UNL     1      -8.528  -7.989   5.186  0.00  0.00    +0.085 C 
BRANCH   3  13
ATOM     13  C   UNL     1      -9.629  -8.351   7.313  0.00  0.00    +0.120 C 
BRANCH  13  15
ATOM     15  C   UNL     1     -10.013  -7.036   7.940  0.00  0.00    -0.033 A 
ATOM     22  C   UNL     1      -9.054  -6.038   8.113  0.00  0.00    +0.008 A 
ATOM     23  C   UNL     1     -11.329  -6.818   8.349  0.00  0.00    +0.008 A 
ATOM     28  C   UNL     1      -9.410  -4.821   8.693  0.00  0.00    +0.046 A 
ATOM     29  C   UNL     1     -11.685  -5.600   8.929  0.00  0.00    +0.046 A 
ATOM     31  C   UNL     1     -10.726  -4.602   9.101  0.00  0.00    +0.120 A 
BRANCH  31   2
ATOM      2  O   UNL     1     -11.074  -3.414   9.667  0.00  0.00    -0.495 OA
ATOM     32  C   UNL     1     -11.997  -3.459  10.754  0.00  0.00    +0.277 C 
ENDBRANCH  31   2
ENDBRANCH  13  15
ENDBRANCH   3  13
ENDBRANCH  14   9
TORSDOF 5
ENDMDL
MODEL 9
REMARK VINA RESULT:      -6.9     31.556     33.633
REMARK  Name = 51136847
REMARK  7 active torsions:
REMARK  status: ('A' for Active; 'I' for Inactive)
REMARK    1  A    between atoms: O_2  and  C_31
REMARK    2  A    between atoms: O_2  and  C_32
REMARK    3  A    between atoms: N_3  and  C_13
REMARK    4  A    between atoms: N_5  and  C_24
REMARK    5  A    between atoms: C_9  and  C_14
REMARK    6  A    between atoms: C_13  and  C_15
REMARK    7  A    between atoms: C_20  and  C_25
REMARK                            x       y       z     vdW  Elec       q    Type
REMARK                         _______ _______ _______ _____ _____    ______ ____
ROOT
ATOM      1  O   UNL     1     -14.631   7.924  31.723  0.00  0.00    -0.336 OA
ATOM      6  N   UNL     1     -14.676   7.071  33.793  0.00  0.00    -0.190 NA
ATOM      7  N   UNL     1     -13.519   8.457  32.388  0.00  0.00    -0.056 NA
ATOM     14  C   UNL     1     -15.258   7.120  32.621  0.00  0.00    +0.245 A 
ATOM     20  C   UNL     1     -13.614   7.906  33.601  0.00  0.00    +0.204 A 
ENDROOT
BRANCH  20  25
ATOM      4  N   UNL     1      -9.979   8.864  37.700  0.00  0.00    -0.313 N 
ATOM      5  N   UNL     1      -8.106   9.112  39.842  0.00  0.00    -0.302 NA
ATOM      8  N   UNL     1     -11.814   7.637  36.843  0.00  0.00    -0.240 NA
ATOM     16  C   UNL     1     -10.401   8.600  39.081  0.00  0.00    +0.122 C 
ATOM     17  C   UNL     1      -8.543   8.728  37.438  0.00  0.00    +0.122 C 
ATOM     18  C   UNL     1      -9.531   9.383  40.067  0.00  0.00    +0.103 C 
ATOM     19  C   UNL     1      -7.732   9.507  38.478  0.00  0.00    +0.103 C 
ATOM     21  C   UNL     1     -10.898   8.618  36.673  0.00  0.00    +0.121 A 
ATOM     24  C   UNL     1      -7.287   9.822  40.823  0.00  0.00    +0.105 C 
ATOM     25  C   UNL     1     -12.667   8.171  34.645  0.00  0.00    +0.041 A 
ATOM     26  C   UNL     1     -10.806   9.404  35.537  0.00  0.00    +0.044 A 
ATOM     27  C   UNL     1     -11.712   9.171  34.508  0.00  0.00    +0.016 A 
ATOM     30  C   UNL     1     -12.677   7.439  35.821  0.00  0.00    +0.124 A 
ENDBRANCH  20  25
BRANCH  14   9
ATOM      3  N   UNL     1     -16.268   4.998  31.806  0.00  0.00    -0.287 NA
ATOM      9  C   UNL     1     -16.508   6.416  32.138  0.00  0.00    +0.146 C 
ATOM     10  C   UNL     1     -17.621   6.385  33.203  0.00  0.00    +0.030 C 
ATOM     11  C   UNL     1     -17.982   4.914  33.357  0.00  0.00    +0.017 C 
ATOM     12  C   UNL     1     -17.529   4.296  32.051  0.00  0.00    +0.085 C 
BRANCH   3  13
ATOM     13  C   UNL     1     -15.787   4.801  30.445  0.00  0.00    +0.120 C 
BRANCH  13  15
ATOM     15  C   UNL     1     -15.469   3.355  30.166  0.00  0.00    -0.033 A 
ATOM     22  C   UNL     1     -14.326   2.774  30.714  0.00  0.00    +0.008 A 
ATOM     23  C   UNL     1     -16.318   2.599  29.358  0.00  0.00    +0.008 A 
ATOM     28  C   UNL     1     -14.031   1.435  30.455  0.00  0.00    +0.046 A 
ATOM     29  C   UNL     1     -16.025   1.259  29.101  0.00  0.00    +0.046 A 
ATOM     31  C   UNL     1     -14.882   0.678  29.649  0.00  0.00    +0.120 A 
BRANCH  31   2
ATOM      2  O   UNL     1     -14.595  -0.628  29.397  0.00  0.00    -0.495 OA
ATOM     32  C   UNL     1     -13.217  -0.999  29.380  0.00  0.00    +0.277 C 
ENDBRANCH  31   2
ENDBRANCH  13  15
ENDBRANCH   3  13
ENDBRANCH  14   9
TORSDOF 5
ENDMDL
MODEL 10
REMARK VINA RESULT:      -6.8     26.728     31.759
REMARK  Name = 51136847
REMARK  7 active torsions:
REMARK  status: ('A' for Active; 'I' for Inactive)
REMARK    1  A    between atoms: O_2  and  C_31
REMARK    2  A    between atoms: O_2  and  C_32
REMARK    3  A    between atoms: N_3  and  C_13
REMARK    4  A    between atoms: N_5  and  C_24
REMARK    5  A    between atoms: C_9  and  C_14
REMARK    6  A    between atoms: C_13  and  C_15
REMARK    7  A    between atoms: C_20  and  C_25
REMARK                            x       y       z     vdW  Elec       q    Type
REMARK                         _______ _______ _______ _____ _____    ______ ____
ROOT
ATOM      1  O   UNL     1     -13.273   7.762  34.654  0.00  0.00    -0.336 OA
ATOM      6  N   UNL     1     -12.313   8.209  32.680  0.00  0.00    -0.190 NA
ATOM      7  N   UNL     1     -12.262   8.696  34.915  0.00  0.00    -0.056 NA
ATOM     14  C   UNL     1     -13.234   7.530  33.316  0.00  0.00    +0.245 A 
ATOM     20  C   UNL     1     -11.743   8.910  33.702  0.00  0.00    +0.204 A 
ENDROOT
BRANCH  20  25
ATOM      4  N   UNL     1      -7.563  12.455  32.759  0.00  0.00    -0.313 N 
ATOM      5  N   UNL     1      -5.585  14.439  32.201  0.00  0.00    -0.302 NA
ATOM      8  N   UNL     1      -9.664  11.562  32.132  0.00  0.00    -0.240 NA
ATOM     16  C   UNL     1      -7.266  12.829  31.371  0.00  0.00    +0.122 C 
ATOM     17  C   UNL     1      -7.224  13.458  33.772  0.00  0.00    +0.122 C 
ATOM     18  C   UNL     1      -5.832  13.349  31.249  0.00  0.00    +0.103 C 
ATOM     19  C   UNL     1      -5.791  13.960  33.573  0.00  0.00    +0.103 C 
ATOM     21  C   UNL     1      -8.618  11.565  32.989  0.00  0.00    +0.121 A 
ATOM     24  C   UNL     1      -4.230  14.965  32.039  0.00  0.00    +0.105 C 
ATOM     25  C   UNL     1     -10.654   9.815  33.479  0.00  0.00    +0.041 A 
ATOM     26  C   UNL     1      -8.520  10.736  34.095  0.00  0.00    +0.044 A 
ATOM     27  C   UNL     1      -9.561   9.847  34.337  0.00  0.00    +0.016 A 
ATOM     30  C   UNL     1     -10.657  10.685  32.400  0.00  0.00    +0.124 A 
ENDBRANCH  20  25
BRANCH  14   9
ATOM      3  N   UNL     1     -14.926   5.782  33.840  0.00  0.00    -0.287 NA
ATOM      9  C   UNL     1     -14.245   6.541  32.773  0.00  0.00    +0.146 C 
ATOM     10  C   UNL     1     -15.383   7.224  31.991  0.00  0.00    +0.030 C 
ATOM     11  C   UNL     1     -16.665   6.741  32.653  0.00  0.00    +0.017 C 
ATOM     12  C   UNL     1     -16.255   5.447  33.326  0.00  0.00    +0.085 C 
BRANCH   3  13
ATOM     13  C   UNL     1     -14.188   4.600  34.264  0.00  0.00    +0.120 C 
BRANCH  13  15
ATOM     15  C   UNL     1     -14.160   3.542  33.192  0.00  0.00    -0.033 A 
ATOM     22  C   UNL     1     -13.441   3.758  32.017  0.00  0.00    +0.008 A 
ATOM     23  C   UNL     1     -14.854   2.346  33.376  0.00  0.00    +0.008 A 
ATOM     28  C   UNL     1     -13.415   2.779  31.024  0.00  0.00    +0.046 A 
ATOM     29  C   UNL     1     -14.827   1.365  32.384  0.00  0.00    +0.046 A 
ATOM     31  C   UNL     1     -14.108   1.581  31.208  0.00  0.00    +0.120 A 
BRANCH  31   2
ATOM      2  O   UNL     1     -14.082   0.625  30.241  0.00  0.00    -0.495 OA
ATOM     32  C   UNL     1     -15.164   0.613  29.310  0.00  0.00    +0.277 C 
ENDBRANCH  31   2
ENDBRANCH  13  15
ENDBRANCH   3  13
ENDBRANCH  14   9
TORSDOF 5
ENDMDL
