REMARK  Name = 51137588
REMARK  8 active torsions:
REMARK  status: ('A' for Active; 'I' for Inactive)
REMARK    1  A    between atoms: O_3  and  C_20
REMARK    2  A    between atoms: O_3  and  C_22
REMARK    3  A    between atoms: O_4  and  C_21
REMARK    4  A    between atoms: O_4  and  C_23
REMARK    5  A    between atoms: N_5  and  C_12
REMARK    6  A    between atoms: C_8  and  C_13
REMARK    7  A    between atoms: C_12  and  C_14
REMARK    8  A    between atoms: C_17  and  C_20
REMARK                            x       y       z     vdW  Elec       q    Type
REMARK                         _______ _______ _______ _____ _____    ______ ____
ROOT
ATOM      5  N   UNL     1      -2.916  -0.328   0.316  0.00  0.00    -0.297 NA
ATOM      8  C   UNL     1      -0.603  -0.058   0.045  0.00  0.00    +0.092 C 
ATOM      9  C   UNL     1      -1.321   0.321  -1.261  0.00  0.00    +0.029 C 
ATOM     10  C   UNL     1      -1.652  -0.832   0.855  0.00  0.00    +0.097 C 
ATOM     11  C   UNL     1      -2.716  -0.278  -1.133  0.00  0.00    +0.085 C 
ENDROOT
BRANCH   8  13
ATOM      2  O   UNL     1       1.817  -0.261   0.362  0.00  0.00    -0.421 OA
ATOM      6  N   UNL     1       0.891  -1.987  -0.719  0.00  0.00    -0.112 NA
ATOM      7  N   UNL     1       2.248  -2.229  -0.609  0.00  0.00    -0.109 NA
ATOM     13  C   UNL     1       0.685  -0.828  -0.139  0.00  0.00    +0.222 A 
ATOM     17  C   UNL     1       2.747  -1.196   0.028  0.00  0.00    +0.254 A 
BRANCH  17  20
ATOM     20  C   UNL     1       4.135  -0.921   0.421  0.00  0.00    +0.326 C 
BRANCH  20   3
ATOM      3  O   UNL     1       4.706   0.071  -0.436  0.00  0.00    -0.483 OA
BRANCH   3  22
ATOM      1  F   UNL     1       9.992   1.303   0.425  0.00  0.00    -0.205 F 
ATOM     22  C   UNL     1       6.021   0.377  -0.222  0.00  0.00    +0.121 A 
ATOM     24  C   UNL     1       6.731  -0.267   0.791  0.00  0.00    +0.048 A 
ATOM     25  C   UNL     1       6.652   1.334  -1.016  0.00  0.00    +0.048 A 
ATOM     26  C   UNL     1       8.072   0.046   1.009  0.00  0.00    +0.042 A 
ATOM     27  C   UNL     1       7.994   1.647  -0.798  0.00  0.00    +0.042 A 
ATOM     28  C   UNL     1       8.704   1.003   0.215  0.00  0.00    +0.124 A 
ENDBRANCH   3  22
ENDBRANCH  20   3
ENDBRANCH  17  20
ENDBRANCH   8  13
BRANCH   5  12
ATOM     12  C   UNL     1      -4.050  -1.160   0.689  0.00  0.00    +0.119 C 
BRANCH  12  14
ATOM     14  C   UNL     1      -5.358  -0.433   0.522  0.00  0.00    -0.033 A 
ATOM     15  C   UNL     1      -5.748   0.526   1.457  0.00  0.00    +0.008 A 
ATOM     16  C   UNL     1      -6.180  -0.719  -0.568  0.00  0.00    +0.008 A 
ATOM     18  C   UNL     1      -6.960   1.200   1.301  0.00  0.00    +0.046 A 
ATOM     19  C   UNL     1      -7.392  -0.046  -0.724  0.00  0.00    +0.046 A 
ATOM     21  C   UNL     1      -7.782   0.913   0.211  0.00  0.00    +0.120 A 
BRANCH  21   4
ATOM      4  O   UNL     1      -8.963   1.571   0.059  0.00  0.00    -0.495 OA
ATOM     23  C   UNL     1      -9.755   1.229  -1.078  0.00  0.00    +0.277 C 
ENDBRANCH  21   4
ENDBRANCH  12  14
ENDBRANCH   5  12
TORSDOF 7
