MODEL 1
REMARK VINA RESULT:      -6.4      0.000      0.000
REMARK  Name = 51137082
REMARK  5 active torsions:
REMARK  status: ('A' for Active; 'I' for Inactive)
REMARK    1  A    between atoms: O_2  and  C_18
REMARK    2  A    between atoms: O_2  and  C_23
REMARK    3  A    between atoms: N_3  and  C_9
REMARK    4  A    between atoms: C_5  and  C_10
REMARK    5  A    between atoms: C_9  and  C_11
REMARK                            x       y       z     vdW  Elec       q    Type
REMARK                         _______ _______ _______ _____ _____    ______ ____
ROOT
ATOM      3  N   UNL     1      16.690   7.689  20.380  0.00  0.00    -0.297 NA
ATOM      5  C   UNL     1      18.820   6.745  20.120  0.00  0.00    +0.060 C 
ATOM      6  C   UNL     1      17.782   5.887  19.375  0.00  0.00    +0.027 C 
ATOM      7  C   UNL     1      17.990   7.636  21.053  0.00  0.00    +0.095 C 
ATOM      8  C   UNL     1      16.436   6.317  19.943  0.00  0.00    +0.085 C 
ENDROOT
BRANCH   5  10
ATOM      1  S   UNL     1      20.452   6.531  22.361  0.00  0.00    -0.072 S 
ATOM      4  N   UNL     1      20.425   4.849  20.405  0.00  0.00    -0.244 NA
ATOM     10  C   UNL     1      19.886   5.960  20.851  0.00  0.00    +0.084 A 
ATOM     12  C   UNL     1      21.523   5.183  22.457  0.00  0.00    +0.039 A 
ATOM     13  C   UNL     1      21.365   4.391  21.316  0.00  0.00    +0.078 A 
ATOM     16  C   UNL     1      22.437   4.851  23.470  0.00  0.00    +0.017 A 
ATOM     17  C   UNL     1      22.152   3.226  21.186  0.00  0.00    +0.029 A 
ATOM     21  C   UNL     1      23.203   3.692  23.316  0.00  0.00    +0.001 A 
ATOM     22  C   UNL     1      23.064   2.889  22.190  0.00  0.00    +0.002 A 
ENDBRANCH   5  10
BRANCH   3   9
ATOM      9  C   UNL     1      15.637   8.199  21.247  0.00  0.00    +0.119 C 
BRANCH   9  11
ATOM     11  C   UNL     1      14.347   8.406  20.499  0.00  0.00    -0.030 A 
ATOM     14  C   UNL     1      13.182   7.771  20.931  0.00  0.00    +0.050 A 
ATOM     15  C   UNL     1      14.316   9.231  19.376  0.00  0.00    +0.005 A 
ATOM     18  C   UNL     1      11.986   7.963  20.238  0.00  0.00    +0.120 A 
ATOM     19  C   UNL     1      13.121   9.422  18.682  0.00  0.00    +0.004 A 
ATOM     20  C   UNL     1      11.956   8.788  19.113  0.00  0.00    +0.045 A 
BRANCH  18   2
ATOM      2  O   UNL     1      10.850   7.343  20.658  0.00  0.00    -0.495 OA
ATOM     23  C   UNL     1      10.491   7.507  22.030  0.00  0.00    +0.277 C 
ENDBRANCH  18   2
ENDBRANCH   9  11
ENDBRANCH   3   9
TORSDOF 4
ENDMDL
MODEL 2
REMARK VINA RESULT:      -6.4     27.289     30.057
REMARK  Name = 51137082
REMARK  5 active torsions:
REMARK  status: ('A' for Active; 'I' for Inactive)
REMARK    1  A    between atoms: O_2  and  C_18
REMARK    2  A    between atoms: O_2  and  C_23
REMARK    3  A    between atoms: N_3  and  C_9
REMARK    4  A    between atoms: C_5  and  C_10
REMARK    5  A    between atoms: C_9  and  C_11
REMARK                            x       y       z     vdW  Elec       q    Type
REMARK                         _______ _______ _______ _____ _____    ______ ____
ROOT
ATOM      3  N   UNL     1      -4.070 -10.771  14.806  0.00  0.00    -0.297 NA
ATOM      5  C   UNL     1      -5.339  -9.868  16.559  0.00  0.00    +0.060 C 
ATOM      6  C   UNL     1      -4.268 -10.813  17.133  0.00  0.00    +0.027 C 
ATOM      7  C   UNL     1      -5.397 -10.208  15.065  0.00  0.00    +0.095 C 
ATOM      8  C   UNL     1      -3.805 -11.648  15.946  0.00  0.00    +0.085 C 
ENDROOT
BRANCH   5  10
ATOM      1  S   UNL     1      -6.903 -11.048  18.532  0.00  0.00    -0.072 S 
ATOM      4  N   UNL     1      -7.733  -9.234  16.897  0.00  0.00    -0.244 NA
ATOM     10  C   UNL     1      -6.688  -9.952  17.236  0.00  0.00    +0.084 A 
ATOM     12  C   UNL     1      -8.543 -10.537  18.679  0.00  0.00    +0.039 A 
ATOM     13  C   UNL     1      -8.804  -9.558  17.716  0.00  0.00    +0.078 A 
ATOM     16  C   UNL     1      -9.526 -10.973  19.582  0.00  0.00    +0.017 A 
ATOM     17  C   UNL     1     -10.098  -8.996  17.657  0.00  0.00    +0.029 A 
ATOM     21  C   UNL     1     -10.798 -10.400  19.501  0.00  0.00    +0.001 A 
ATOM     22  C   UNL     1     -11.082  -9.424  18.552  0.00  0.00    +0.002 A 
ENDBRANCH   5  10
BRANCH   3   9
ATOM      9  C   UNL     1      -4.005 -11.478  13.535  0.00  0.00    +0.119 C 
BRANCH   9  11
ATOM     11  C   UNL     1      -3.359 -10.643  12.462  0.00  0.00    -0.030 A 
ATOM     14  C   UNL     1      -4.140 -10.086  11.449  0.00  0.00    +0.050 A 
ATOM     15  C   UNL     1      -1.982 -10.425  12.481  0.00  0.00    +0.005 A 
ATOM     18  C   UNL     1      -3.542  -9.312  10.454  0.00  0.00    +0.120 A 
ATOM     19  C   UNL     1      -1.384  -9.652  11.486  0.00  0.00    +0.004 A 
ATOM     20  C   UNL     1      -2.164  -9.095  10.472  0.00  0.00    +0.045 A 
BRANCH  18   2
ATOM      2  O   UNL     1      -4.303  -8.770   9.464  0.00  0.00    -0.495 OA
ATOM     23  C   UNL     1      -4.795  -9.661   8.463  0.00  0.00    +0.277 C 
ENDBRANCH  18   2
ENDBRANCH   9  11
ENDBRANCH   3   9
TORSDOF 4
ENDMDL
MODEL 3
REMARK VINA RESULT:      -6.3     27.727     29.321
REMARK  Name = 51137082
REMARK  5 active torsions:
REMARK  status: ('A' for Active; 'I' for Inactive)
REMARK    1  A    between atoms: O_2  and  C_18
REMARK    2  A    between atoms: O_2  and  C_23
REMARK    3  A    between atoms: N_3  and  C_9
REMARK    4  A    between atoms: C_5  and  C_10
REMARK    5  A    between atoms: C_9  and  C_11
REMARK                            x       y       z     vdW  Elec       q    Type
REMARK                         _______ _______ _______ _____ _____    ______ ____
ROOT
ATOM      3  N   UNL     1      -2.455 -11.456  12.652  0.00  0.00    -0.297 NA
ATOM      5  C   UNL     1      -2.842 -10.635  14.814  0.00  0.00    +0.060 C 
ATOM      6  C   UNL     1      -1.719 -11.687  14.856  0.00  0.00    +0.027 C 
ATOM      7  C   UNL     1      -3.517 -10.841  13.452  0.00  0.00    +0.095 C 
ATOM      8  C   UNL     1      -1.839 -12.442  13.539  0.00  0.00    +0.085 C 
ENDROOT
BRANCH   5  10
ATOM      1  S   UNL     1      -5.372 -10.014  15.785  0.00  0.00    -0.072 S 
ATOM      4  N   UNL     1      -3.551 -11.249  17.131  0.00  0.00    -0.244 NA
ATOM     10  C   UNL     1      -3.815 -10.698  15.969  0.00  0.00    +0.084 A 
ATOM     12  C   UNL     1      -5.758 -10.484  17.398  0.00  0.00    +0.039 A 
ATOM     13  C   UNL     1      -4.656 -11.134  17.961  0.00  0.00    +0.078 A 
ATOM     16  C   UNL     1      -6.951 -10.291  18.114  0.00  0.00    +0.017 A 
ATOM     17  C   UNL     1      -4.754 -11.607  19.288  0.00  0.00    +0.029 A 
ATOM     21  C   UNL     1      -7.021 -10.768  19.425  0.00  0.00    +0.001 A 
ATOM     22  C   UNL     1      -5.938 -11.418  20.006  0.00  0.00    +0.002 A 
ENDBRANCH   5  10
BRANCH   3   9
ATOM      9  C   UNL     1      -2.960 -12.053  11.424  0.00  0.00    +0.119 C 
BRANCH   9  11
ATOM     11  C   UNL     1      -3.677 -11.046  10.565  0.00  0.00    -0.030 A 
ATOM     14  C   UNL     1      -4.921 -11.358  10.016  0.00  0.00    +0.050 A 
ATOM     15  C   UNL     1      -3.097  -9.802  10.317  0.00  0.00    +0.005 A 
ATOM     18  C   UNL     1      -5.585 -10.425   9.219  0.00  0.00    +0.120 A 
ATOM     19  C   UNL     1      -3.761  -8.870   9.519  0.00  0.00    +0.004 A 
ATOM     20  C   UNL     1      -5.005  -9.181   8.970  0.00  0.00    +0.045 A 
BRANCH  18   2
ATOM      2  O   UNL     1      -6.799 -10.730   8.683  0.00  0.00    -0.495 OA
ATOM     23  C   UNL     1      -7.787  -9.701   8.689  0.00  0.00    +0.277 C 
ENDBRANCH  18   2
ENDBRANCH   9  11
ENDBRANCH   3   9
TORSDOF 4
ENDMDL
MODEL 4
REMARK VINA RESULT:      -6.2     17.800     20.389
REMARK  Name = 51137082
REMARK  5 active torsions:
REMARK  status: ('A' for Active; 'I' for Inactive)
REMARK    1  A    between atoms: O_2  and  C_18
REMARK    2  A    between atoms: O_2  and  C_23
REMARK    3  A    between atoms: N_3  and  C_9
REMARK    4  A    between atoms: C_5  and  C_10
REMARK    5  A    between atoms: C_9  and  C_11
REMARK                            x       y       z     vdW  Elec       q    Type
REMARK                         _______ _______ _______ _____ _____    ______ ____
ROOT
ATOM      3  N   UNL     1      10.600   5.804   3.693  0.00  0.00    -0.297 NA
ATOM      5  C   UNL     1      11.704   4.504   2.083  0.00  0.00    +0.060 C 
ATOM      6  C   UNL     1      12.579   5.714   2.456  0.00  0.00    +0.027 C 
ATOM      7  C   UNL     1      10.308   4.855   2.616  0.00  0.00    +0.095 C 
ATOM      8  C   UNL     1      11.632   6.686   3.148  0.00  0.00    +0.085 C 
ENDROOT
BRANCH   5  10
ATOM      1  S   UNL     1      13.084   3.407  -0.067  0.00  0.00    -0.072 S 
ATOM      4  N   UNL     1      10.698   4.378  -0.201  0.00  0.00    -0.244 NA
ATOM     10  C   UNL     1      11.701   4.151   0.613  0.00  0.00    +0.084 A 
ATOM     12  C   UNL     1      12.296   3.370  -1.600  0.00  0.00    +0.039 A 
ATOM     13  C   UNL     1      11.024   3.935  -1.475  0.00  0.00    +0.078 A 
ATOM     16  C   UNL     1      12.772   2.876  -2.826  0.00  0.00    +0.017 A 
ATOM     17  C   UNL     1      10.199   4.006  -2.618  0.00  0.00    +0.029 A 
ATOM     21  C   UNL     1      11.935   2.960  -3.942  0.00  0.00    +0.001 A 
ATOM     22  C   UNL     1      10.666   3.517  -3.841  0.00  0.00    +0.002 A 
ENDBRANCH   5  10
BRANCH   3   9
ATOM      9  C   UNL     1       9.417   6.535   4.124  0.00  0.00    +0.119 C 
BRANCH   9  11
ATOM     11  C   UNL     1       9.298   6.572   5.624  0.00  0.00    -0.030 A 
ATOM     14  C   UNL     1       9.575   5.428   6.373  0.00  0.00    +0.050 A 
ATOM     15  C   UNL     1       8.910   7.748   6.265  0.00  0.00    +0.005 A 
ATOM     18  C   UNL     1       9.464   5.462   7.764  0.00  0.00    +0.120 A 
ATOM     19  C   UNL     1       8.798   7.782   7.655  0.00  0.00    +0.004 A 
ATOM     20  C   UNL     1       9.075   6.638   8.405  0.00  0.00    +0.045 A 
BRANCH  18   2
ATOM      2  O   UNL     1       9.733   4.345   8.494  0.00  0.00    -0.495 OA
ATOM     23  C   UNL     1       9.352   4.362   9.869  0.00  0.00    +0.277 C 
ENDBRANCH  18   2
ENDBRANCH   9  11
ENDBRANCH   3   9
TORSDOF 4
ENDMDL
MODEL 5
REMARK VINA RESULT:      -6.2     28.866     32.526
REMARK  Name = 51137082
REMARK  5 active torsions:
REMARK  status: ('A' for Active; 'I' for Inactive)
REMARK    1  A    between atoms: O_2  and  C_18
REMARK    2  A    between atoms: O_2  and  C_23
REMARK    3  A    between atoms: N_3  and  C_9
REMARK    4  A    between atoms: C_5  and  C_10
REMARK    5  A    between atoms: C_9  and  C_11
REMARK                            x       y       z     vdW  Elec       q    Type
REMARK                         _______ _______ _______ _____ _____    ______ ____
ROOT
ATOM      3  N   UNL     1      -9.580  -8.935  16.490  0.00  0.00    -0.297 NA
ATOM      5  C   UNL     1     -11.190  -7.234  16.378  0.00  0.00    +0.060 C 
ATOM      6  C   UNL     1     -11.842  -8.526  16.902  0.00  0.00    +0.027 C 
ATOM      7  C   UNL     1      -9.858  -7.690  15.770  0.00  0.00    +0.095 C 
ATOM      8  C   UNL     1     -10.863  -9.635  16.539  0.00  0.00    +0.085 C 
ENDROOT
BRANCH   5  10
ATOM      1  S   UNL     1     -13.727  -6.721  15.362  0.00  0.00    -0.072 S 
ATOM      4  N   UNL     1     -11.571  -5.539  14.581  0.00  0.00    -0.244 NA
ATOM     10  C   UNL     1     -12.040  -6.443  15.409  0.00  0.00    +0.084 A 
ATOM     12  C   UNL     1     -13.878  -5.531  14.123  0.00  0.00    +0.039 A 
ATOM     13  C   UNL     1     -12.614  -5.007  13.837  0.00  0.00    +0.078 A 
ATOM     16  C   UNL     1     -15.032  -5.094  13.453  0.00  0.00    +0.017 A 
ATOM     17  C   UNL     1     -12.505  -4.008  12.845  0.00  0.00    +0.029 A 
ATOM     21  C   UNL     1     -14.895  -4.105  12.475  0.00  0.00    +0.001 A 
ATOM     22  C   UNL     1     -13.649  -3.569  12.174  0.00  0.00    +0.002 A 
ENDBRANCH   5  10
BRANCH   3   9
ATOM      9  C   UNL     1      -8.540  -9.726  15.849  0.00  0.00    +0.119 C 
BRANCH   9  11
ATOM     11  C   UNL     1      -7.402 -10.022  16.788  0.00  0.00    -0.030 A 
ATOM     14  C   UNL     1      -6.093 -10.063  16.305  0.00  0.00    +0.050 A 
ATOM     15  C   UNL     1      -7.654 -10.254  18.140  0.00  0.00    +0.005 A 
ATOM     18  C   UNL     1      -5.037 -10.337  17.176  0.00  0.00    +0.120 A 
ATOM     19  C   UNL     1      -6.599 -10.530  19.009  0.00  0.00    +0.004 A 
ATOM     20  C   UNL     1      -5.290 -10.571  18.528  0.00  0.00    +0.045 A 
BRANCH  18   2
ATOM      2  O   UNL     1      -3.761 -10.379  16.705  0.00  0.00    -0.495 OA
ATOM     23  C   UNL     1      -3.560 -10.991  15.431  0.00  0.00    +0.277 C 
ENDBRANCH  18   2
ENDBRANCH   9  11
ENDBRANCH   3   9
TORSDOF 4
ENDMDL
MODEL 6
REMARK VINA RESULT:      -6.1     26.607     30.612
REMARK  Name = 51137082
REMARK  5 active torsions:
REMARK  status: ('A' for Active; 'I' for Inactive)
REMARK    1  A    between atoms: O_2  and  C_18
REMARK    2  A    between atoms: O_2  and  C_23
REMARK    3  A    between atoms: N_3  and  C_9
REMARK    4  A    between atoms: C_5  and  C_10
REMARK    5  A    between atoms: C_9  and  C_11
REMARK                            x       y       z     vdW  Elec       q    Type
REMARK                         _______ _______ _______ _____ _____    ______ ____
ROOT
ATOM      3  N   UNL     1      -4.637 -11.653  17.427  0.00  0.00    -0.297 NA
ATOM      5  C   UNL     1      -6.325 -10.541  18.616  0.00  0.00    +0.060 C 
ATOM      6  C   UNL     1      -5.742 -11.668  19.485  0.00  0.00    +0.027 C 
ATOM      7  C   UNL     1      -5.845 -10.858  17.194  0.00  0.00    +0.095 C 
ATOM      8  C   UNL     1      -4.994 -12.569  18.511  0.00  0.00    +0.085 C 
ENDROOT
BRANCH   5  10
ATOM      1  S   UNL     1      -8.634  -9.423  17.543  0.00  0.00    -0.072 S 
ATOM      4  N   UNL     1      -8.574 -10.927  19.637  0.00  0.00    -0.244 NA
ATOM     10  C   UNL     1      -7.826 -10.379  18.708  0.00  0.00    +0.084 A 
ATOM     12  C   UNL     1     -10.134  -9.754  18.326  0.00  0.00    +0.039 A 
ATOM     13  C   UNL     1      -9.900 -10.579  19.431  0.00  0.00    +0.078 A 
ATOM     16  C   UNL     1     -11.424  -9.315  17.987  0.00  0.00    +0.017 A 
ATOM     17  C   UNL     1     -10.999 -10.977  20.223  0.00  0.00    +0.029 A 
ATOM     21  C   UNL     1     -12.494  -9.724  18.788  0.00  0.00    +0.001 A 
ATOM     22  C   UNL     1     -12.286 -10.544  19.892  0.00  0.00    +0.002 A 
ENDBRANCH   5  10
BRANCH   3   9
ATOM      9  C   UNL     1      -4.194 -12.354  16.231  0.00  0.00    +0.119 C 
BRANCH   9  11
ATOM     11  C   UNL     1      -3.182 -11.554  15.456  0.00  0.00    -0.030 A 
ATOM     14  C   UNL     1      -3.116 -11.674  14.067  0.00  0.00    +0.050 A 
ATOM     15  C   UNL     1      -2.311 -10.694  16.124  0.00  0.00    +0.005 A 
ATOM     18  C   UNL     1      -2.178 -10.933  13.347  0.00  0.00    +0.120 A 
ATOM     19  C   UNL     1      -1.373  -9.954  15.405  0.00  0.00    +0.004 A 
ATOM     20  C   UNL     1      -1.306 -10.073  14.016  0.00  0.00    +0.045 A 
BRANCH  18   2
ATOM      2  O   UNL     1      -2.113 -11.051  11.993  0.00  0.00    -0.495 OA
ATOM     23  C   UNL     1      -2.754 -10.035  11.222  0.00  0.00    +0.277 C 
ENDBRANCH  18   2
ENDBRANCH   9  11
ENDBRANCH   3   9
TORSDOF 4
ENDMDL
MODEL 7
REMARK VINA RESULT:      -6.0     13.987     15.280
REMARK  Name = 51137082
REMARK  5 active torsions:
REMARK  status: ('A' for Active; 'I' for Inactive)
REMARK    1  A    between atoms: O_2  and  C_18
REMARK    2  A    between atoms: O_2  and  C_23
REMARK    3  A    between atoms: N_3  and  C_9
REMARK    4  A    between atoms: C_5  and  C_10
REMARK    5  A    between atoms: C_9  and  C_11
REMARK                            x       y       z     vdW  Elec       q    Type
REMARK                         _______ _______ _______ _____ _____    ______ ____
ROOT
ATOM      3  N   UNL     1      13.135   8.127   5.882  0.00  0.00    -0.297 NA
ATOM      5  C   UNL     1      15.330   8.887   6.204  0.00  0.00    +0.060 C 
ATOM      6  C   UNL     1      14.599   9.824   5.225  0.00  0.00    +0.027 C 
ATOM      7  C   UNL     1      14.459   7.626   6.258  0.00  0.00    +0.095 C 
ATOM      8  C   UNL     1      13.380   9.036   4.762  0.00  0.00    +0.085 C 
ENDROOT
BRANCH   5  10
ATOM      1  S   UNL     1      17.158   8.172   4.235  0.00  0.00    -0.072 S 
ATOM      4  N   UNL     1      17.767   8.637   6.698  0.00  0.00    -0.244 NA
ATOM     10  C   UNL     1      16.769   8.594   5.847  0.00  0.00    +0.084 A 
ATOM     12  C   UNL     1      18.817   8.028   4.684  0.00  0.00    +0.039 A 
ATOM     13  C   UNL     1      18.948   8.315   6.045  0.00  0.00    +0.078 A 
ATOM     16  C   UNL     1      19.921   7.684   3.887  0.00  0.00    +0.017 A 
ATOM     17  C   UNL     1      20.233   8.256   6.628  0.00  0.00    +0.029 A 
ATOM     21  C   UNL     1      21.181   7.633   4.490  0.00  0.00    +0.001 A 
ATOM     22  C   UNL     1      21.336   7.915   5.842  0.00  0.00    +0.002 A 
ENDBRANCH   5  10
BRANCH   3   9
ATOM      9  C   UNL     1      12.213   7.055   5.535  0.00  0.00    +0.119 C 
BRANCH   9  11
ATOM     11  C   UNL     1      11.100   6.927   6.541  0.00  0.00    -0.030 A 
ATOM     14  C   UNL     1      11.177   5.962   7.546  0.00  0.00    +0.050 A 
ATOM     15  C   UNL     1       9.992   7.770   6.467  0.00  0.00    +0.005 A 
ATOM     18  C   UNL     1      10.145   5.843   8.478  0.00  0.00    +0.120 A 
ATOM     19  C   UNL     1       8.960   7.650   7.398  0.00  0.00    +0.004 A 
ATOM     20  C   UNL     1       9.037   6.686   8.404  0.00  0.00    +0.045 A 
BRANCH  18   2
ATOM      2  O   UNL     1      10.221   4.901   9.458  0.00  0.00    -0.495 OA
ATOM     23  C   UNL     1       9.030   4.643  10.201  0.00  0.00    +0.277 C 
ENDBRANCH  18   2
ENDBRANCH   9  11
ENDBRANCH   3   9
TORSDOF 4
ENDMDL
MODEL 8
REMARK VINA RESULT:      -6.0     18.338     20.908
REMARK  Name = 51137082
REMARK  5 active torsions:
REMARK  status: ('A' for Active; 'I' for Inactive)
REMARK    1  A    between atoms: O_2  and  C_18
REMARK    2  A    between atoms: O_2  and  C_23
REMARK    3  A    between atoms: N_3  and  C_9
REMARK    4  A    between atoms: C_5  and  C_10
REMARK    5  A    between atoms: C_9  and  C_11
REMARK                            x       y       z     vdW  Elec       q    Type
REMARK                         _______ _______ _______ _____ _____    ______ ____
ROOT
ATOM      3  N   UNL     1      10.832   5.280   3.244  0.00  0.00    -0.297 NA
ATOM      5  C   UNL     1      11.758   4.003   1.509  0.00  0.00    +0.060 C 
ATOM      6  C   UNL     1      12.806   5.004   2.027  0.00  0.00    +0.027 C 
ATOM      7  C   UNL     1      10.423   4.516   2.063  0.00  0.00    +0.095 C 
ATOM      8  C   UNL     1      12.009   6.035   2.814  0.00  0.00    +0.085 C 
ENDROOT
BRANCH   5  10
ATOM      1  S   UNL     1      13.211   3.497  -0.807  0.00  0.00    -0.072 S 
ATOM      4  N   UNL     1      10.663   3.895  -0.736  0.00  0.00    -0.244 NA
ATOM     10  C   UNL     1      11.742   3.820   0.008  0.00  0.00    +0.084 A 
ATOM     12  C   UNL     1      12.356   3.443  -2.304  0.00  0.00    +0.039 A 
ATOM     13  C   UNL     1      11.000   3.680  -2.064  0.00  0.00    +0.078 A 
ATOM     16  C   UNL     1      12.852   3.209  -3.597  0.00  0.00    +0.017 A 
ATOM     17  C   UNL     1      10.109   3.681  -3.160  0.00  0.00    +0.029 A 
ATOM     21  C   UNL     1      11.949   3.217  -4.663  0.00  0.00    +0.001 A 
ATOM     22  C   UNL     1      10.595   3.450  -4.449  0.00  0.00    +0.002 A 
ENDBRANCH   5  10
BRANCH   3   9
ATOM      9  C   UNL     1       9.771   6.142   3.743  0.00  0.00    +0.119 C 
BRANCH   9  11
ATOM     11  C   UNL     1       9.619   6.036   5.237  0.00  0.00    -0.030 A 
ATOM     14  C   UNL     1       9.171   7.135   5.971  0.00  0.00    +0.050 A 
ATOM     15  C   UNL     1       9.925   4.841   5.886  0.00  0.00    +0.005 A 
ATOM     18  C   UNL     1       9.030   7.037   7.356  0.00  0.00    +0.120 A 
ATOM     19  C   UNL     1       9.785   4.743   7.271  0.00  0.00    +0.004 A 
ATOM     20  C   UNL     1       9.337   5.841   8.006  0.00  0.00    +0.045 A 
BRANCH  18   2
ATOM      2  O   UNL     1       8.594   8.110   8.072  0.00  0.00    -0.495 OA
ATOM     23  C   UNL     1       9.417   9.275   8.059  0.00  0.00    +0.277 C 
ENDBRANCH  18   2
ENDBRANCH   9  11
ENDBRANCH   3   9
TORSDOF 4
ENDMDL
MODEL 9
REMARK VINA RESULT:      -5.9     22.070     25.279
REMARK  Name = 51137082
REMARK  5 active torsions:
REMARK  status: ('A' for Active; 'I' for Inactive)
REMARK    1  A    between atoms: O_2  and  C_18
REMARK    2  A    between atoms: O_2  and  C_23
REMARK    3  A    between atoms: N_3  and  C_9
REMARK    4  A    between atoms: C_5  and  C_10
REMARK    5  A    between atoms: C_9  and  C_11
REMARK                            x       y       z     vdW  Elec       q    Type
REMARK                         _______ _______ _______ _____ _____    ______ ____
ROOT
ATOM      3  N   UNL     1      -1.300   9.234  37.955  0.00  0.00    -0.297 NA
ATOM      5  C   UNL     1      -0.259  11.225  37.282  0.00  0.00    +0.060 C 
ATOM      6  C   UNL     1      -1.481  11.554  38.157  0.00  0.00    +0.027 C 
ATOM      7  C   UNL     1      -0.452   9.757  36.881  0.00  0.00    +0.095 C 
ATOM      8  C   UNL     1      -2.305  10.273  38.179  0.00  0.00    +0.085 C 
ENDROOT
BRANCH   5  10
ATOM      1  S   UNL     1      -0.477  13.793  36.239  0.00  0.00    -0.072 S 
ATOM      4  N   UNL     1       0.406  11.753  34.930  0.00  0.00    -0.244 NA
ATOM     10  C   UNL     1      -0.064  12.139  36.093  0.00  0.00    +0.084 A 
ATOM     12  C   UNL     1       0.010  14.048  34.605  0.00  0.00    +0.039 A 
ATOM     13  C   UNL     1       0.455  12.837  34.066  0.00  0.00    +0.078 A 
ATOM     16  C   UNL     1      -0.002  15.234  33.854  0.00  0.00    +0.017 A 
ATOM     17  C   UNL     1       0.904  12.815  32.728  0.00  0.00    +0.029 A 
ATOM     21  C   UNL     1       0.448  15.185  32.531  0.00  0.00    +0.001 A 
ATOM     22  C   UNL     1       0.895  13.992  31.975  0.00  0.00    +0.002 A 
ENDBRANCH   5  10
BRANCH   3   9
ATOM      9  C   UNL     1      -1.896   7.950  37.617  0.00  0.00    +0.119 C 
BRANCH   9  11
ATOM     11  C   UNL     1      -1.557   6.891  38.632  0.00  0.00    -0.030 A 
ATOM     14  C   UNL     1      -0.318   6.252  38.585  0.00  0.00    +0.050 A 
ATOM     15  C   UNL     1      -2.481   6.549  39.618  0.00  0.00    +0.005 A 
ATOM     18  C   UNL     1      -0.004   5.271  39.526  0.00  0.00    +0.120 A 
ATOM     19  C   UNL     1      -2.168   5.567  40.558  0.00  0.00    +0.004 A 
ATOM     20  C   UNL     1      -0.929   4.928  40.512  0.00  0.00    +0.045 A 
BRANCH  18   2
ATOM      2  O   UNL     1       1.205   4.646  39.479  0.00  0.00    -0.495 OA
ATOM     23  C   UNL     1       2.070   4.823  40.601  0.00  0.00    +0.277 C 
ENDBRANCH  18   2
ENDBRANCH   9  11
ENDBRANCH   3   9
TORSDOF 4
ENDMDL
MODEL 10
REMARK VINA RESULT:      -5.8     27.858     30.298
REMARK  Name = 51137082
REMARK  5 active torsions:
REMARK  status: ('A' for Active; 'I' for Inactive)
REMARK    1  A    between atoms: O_2  and  C_18
REMARK    2  A    between atoms: O_2  and  C_23
REMARK    3  A    between atoms: N_3  and  C_9
REMARK    4  A    between atoms: C_5  and  C_10
REMARK    5  A    between atoms: C_9  and  C_11
REMARK                            x       y       z     vdW  Elec       q    Type
REMARK                         _______ _______ _______ _____ _____    ______ ____
ROOT
ATOM      3  N   UNL     1      -6.311 -11.274  18.081  0.00  0.00    -0.297 NA
ATOM      5  C   UNL     1      -4.842 -11.815  16.334  0.00  0.00    +0.060 C 
ATOM      6  C   UNL     1      -4.034 -11.394  17.575  0.00  0.00    +0.027 C 
ATOM      7  C   UNL     1      -6.269 -11.330  16.618  0.00  0.00    +0.095 C 
ATOM      8  C   UNL     1      -5.034 -10.676  18.471  0.00  0.00    +0.085 C 
ENDROOT
BRANCH   5  10
ATOM      1  S   UNL     1      -2.605 -11.301  14.766  0.00  0.00    -0.072 S 
ATOM      4  N   UNL     1      -5.038 -10.855  14.035  0.00  0.00    -0.244 NA
ATOM     10  C   UNL     1      -4.297 -11.306  15.019  0.00  0.00    +0.084 A 
ATOM     12  C   UNL     1      -2.853 -10.638  13.193  0.00  0.00    +0.039 A 
ATOM     13  C   UNL     1      -4.224 -10.469  12.980  0.00  0.00    +0.078 A 
ATOM     16  C   UNL     1      -1.902 -10.293  12.220  0.00  0.00    +0.017 A 
ATOM     17  C   UNL     1      -4.656  -9.936  11.746  0.00  0.00    +0.029 A 
ATOM     21  C   UNL     1      -2.357  -9.766  11.008  0.00  0.00    +0.001 A 
ATOM     22  C   UNL     1      -3.716  -9.589  10.773  0.00  0.00    +0.002 A 
ENDBRANCH   5  10
BRANCH   3   9
ATOM      9  C   UNL     1      -7.452 -10.518  18.576  0.00  0.00    +0.119 C 
BRANCH   9  11
ATOM     11  C   UNL     1      -8.452 -11.404  19.270  0.00  0.00    -0.030 A 
ATOM     14  C   UNL     1      -9.730 -10.922  19.554  0.00  0.00    +0.050 A 
ATOM     15  C   UNL     1      -8.102 -12.705  19.628  0.00  0.00    +0.005 A 
ATOM     18  C   UNL     1     -10.657 -11.743  20.198  0.00  0.00    +0.120 A 
ATOM     19  C   UNL     1      -9.028 -13.525  20.272  0.00  0.00    +0.004 A 
ATOM     20  C   UNL     1     -10.306 -13.044  20.557  0.00  0.00    +0.045 A 
BRANCH  18   2
ATOM      2  O   UNL     1     -11.904 -11.271  20.476  0.00  0.00    -0.495 OA
ATOM     23  C   UNL     1     -12.222  -9.962  20.006  0.00  0.00    +0.277 C 
ENDBRANCH  18   2
ENDBRANCH   9  11
ENDBRANCH   3   9
TORSDOF 4
ENDMDL
