REMARK  Name = 44716626
REMARK  8 active torsions:
REMARK  status: ('A' for Active; 'I' for Inactive)
REMARK    1  A    between atoms: O_2  and  C_9
REMARK    2  A    between atoms: N_5  and  C_22
REMARK    3  A    between atoms: N_6  and  C_26
REMARK    4  A    between atoms: C_7  and  C_15
REMARK    5  A    between atoms: C_10  and  C_16
REMARK    6  A    between atoms: C_12  and  C_19
REMARK    7  A    between atoms: C_16  and  C_20
REMARK    8  A    between atoms: C_16  and  C_21
REMARK                            x       y       z     vdW  Elec       q    Type
REMARK                         _______ _______ _______ _____ _____    ______ ____
ROOT
ATOM      1  S   UNL     1       4.929   1.030   1.343  0.00  0.00    -0.057 S 
ATOM      4  N   UNL     1       4.503  -0.944  -0.272  0.00  0.00    -0.229 NA
ATOM      6  N   UNL     1       6.755  -0.652   0.387  0.00  0.00    -0.327 N 
ATOM      7  C   UNL     1       0.994   1.407   0.207  0.00  0.00    -0.022 C 
ATOM      8  C   UNL     1       0.747  -0.133  -0.040  0.00  0.00    +0.033 C 
ATOM      9  C   UNL     1      -0.563  -0.376  -0.842  0.00  0.00    +0.123 C 
ATOM     10  C   UNL     1      -1.784   0.337  -0.222  0.00  0.00    +0.029 C 
ATOM     11  C   UNL     1      -0.264   2.040   0.848  0.00  0.00    +0.008 C 
ATOM     12  C   UNL     1       2.014  -0.842  -0.672  0.00  0.00    +0.042 C 
ATOM     13  C   UNL     1      -1.528   1.823   0.028  0.00  0.00    +0.007 C 
ATOM     14  C   UNL     1       2.175   1.599   1.208  0.00  0.00    +0.051 C 
ATOM     15  C   UNL     1       1.322   2.162  -1.108  0.00  0.00    +0.012 C 
ATOM     17  C   UNL     1       3.281  -0.345  -0.018  0.00  0.00    +0.057 A 
ATOM     18  C   UNL     1       3.334   0.754   0.813  0.00  0.00    +0.015 A 
ATOM     19  C   UNL     1       1.952  -2.375  -0.596  0.00  0.00    +0.014 C 
ATOM     25  C   UNL     1       5.439  -0.311   0.401  0.00  0.00    +0.158 A 
ATOM     26  C   UNL     1       7.314  -1.764  -0.373  0.00  0.00    +0.127 C 
ATOM     29  H   UNL     1       7.417  -0.109   0.935  0.00  0.00    +0.148 HD
ENDROOT
BRANCH   9   2
ATOM      2  O   UNL     1      -0.854  -1.773  -0.863  0.00  0.00    -0.391 OA
ATOM     27  H   UNL     1      -0.968  -2.070   0.056  0.00  0.00    +0.210 HD
ENDBRANCH   9   2
BRANCH  10  16
ATOM     16  C   UNL     1      -3.041   0.171  -1.086  0.00  0.00    +0.077 C 
ATOM     21  C   UNL     1      -3.007   1.152  -2.253  0.00  0.00    +0.017 C 
BRANCH  16  20
ATOM      3  O   UNL     1      -4.859   1.466  -0.136  0.00  0.00    -0.276 OA
ATOM      5  N   UNL     1      -4.734  -0.798   0.345  0.00  0.00    -0.312 N 
ATOM     20  C   UNL     1      -4.303   0.376  -0.255  0.00  0.00    +0.216 C 
ATOM     28  H   UNL     1      -4.208  -1.658   0.214  0.00  0.00    +0.149 HD
BRANCH   5  22
ATOM     22  C   UNL     1      -5.899  -0.854   1.182  0.00  0.00    +0.073 C 
ATOM     23  C   UNL     1      -7.271  -1.016   0.595  0.00  0.00    +0.024 C 
ATOM     24  C   UNL     1      -6.653  -2.136   1.379  0.00  0.00    +0.024 C 
ENDBRANCH   5  22
ENDBRANCH  16  20
ENDBRANCH  10  16
TORSDOF 4
