MODEL 1
REMARK VINA RESULT:      -7.5      0.000      0.000
REMARK  Name = 7051565
REMARK  8 active torsions:
REMARK  status: ('A' for Active; 'I' for Inactive)
REMARK    1  A    between atoms: O_3  and  C_21
REMARK    2  A    between atoms: O_3  and  C_28
REMARK    3  A    between atoms: N_5  and  C_25
REMARK    4  A    between atoms: C_6  and  C_7
REMARK    5  A    between atoms: C_7  and  C_13
REMARK    6  A    between atoms: C_7  and  C_14
REMARK    7  A    between atoms: C_15  and  C_23
REMARK    8  A    between atoms: C_16  and  C_24
REMARK                            x       y       z     vdW  Elec       q    Type
REMARK                         _______ _______ _______ _____ _____    ______ ____
ROOT
ATOM      7  C   UNL     1      -9.828  -9.680  17.983  0.00  0.00    +0.075 C 
ATOM     14  C   UNL     1     -10.658 -10.045  19.203  0.00  0.00    +0.017 C 
ENDROOT
BRANCH   7   6
ATOM      6  C   UNL     1      -8.498 -10.430  17.969  0.00  0.00    +0.005 C 
ATOM      8  C   UNL     1      -7.773 -10.286  19.311  0.00  0.00    +0.009 C 
ATOM      9  C   UNL     1      -7.598  -9.915  16.835  0.00  0.00    +0.040 C 
ATOM     10  C   UNL     1      -6.506 -11.141  19.329  0.00  0.00    +0.036 C 
ATOM     11  C   UNL     1      -6.185 -10.440  16.906  0.00  0.00    -0.037 A 
ATOM     12  C   UNL     1      -5.658 -10.980  18.093  0.00  0.00    -0.041 A 
ATOM     15  C   UNL     1      -5.361 -10.331  15.775  0.00  0.00    -0.005 A 
ATOM     16  C   UNL     1      -4.332 -11.434  18.114  0.00  0.00    -0.044 A 
ATOM     21  C   UNL     1      -4.041 -10.776  15.812  0.00  0.00    +0.124 A 
ATOM     22  C   UNL     1      -3.526 -11.330  16.979  0.00  0.00    +0.049 A 
ATOM     23  C   UNL     1      -5.877  -9.725  14.506  0.00  0.00    +0.048 C 
ATOM     24  C   UNL     1      -3.735 -12.051  19.339  0.00  0.00    +0.044 C 
BRANCH  21   3
ATOM      3  O   UNL     1      -3.237 -10.677  14.716  0.00  0.00    -0.495 OA
ATOM     28  C   UNL     1      -1.840 -10.513  14.949  0.00  0.00    +0.277 C 
ENDBRANCH  21   3
ENDBRANCH   7   6
BRANCH   7  13
ATOM      2  O   UNL     1     -10.652 -11.179  16.337  0.00  0.00    -0.275 OA
ATOM      4  N   UNL     1     -11.243  -8.944  16.102  0.00  0.00    -0.298 N 
ATOM      5  N   UNL     1     -12.422  -6.774  14.590  0.00  0.00    -0.327 N 
ATOM     13  C   UNL     1     -10.607 -10.012  16.734  0.00  0.00    +0.219 C 
ATOM     17  C   UNL     1     -12.023  -9.185  14.890  0.00  0.00    +0.126 C 
ATOM     18  C   UNL     1     -11.181  -7.557  16.570  0.00  0.00    +0.126 C 
ATOM     19  C   UNL     1     -11.965  -8.000  13.929  0.00  0.00    +0.124 C 
ATOM     20  C   UNL     1     -12.338  -6.704  16.051  0.00  0.00    +0.124 C 
BRANCH   5  25
ATOM      1  F   UNL     1     -14.549  -2.573  11.631  0.00  0.00    -0.205 F 
ATOM     25  C   UNL     1     -12.954  -5.722  13.849  0.00  0.00    +0.030 A 
ATOM     26  C   UNL     1     -14.351  -5.511  13.768  0.00  0.00    +0.026 A 
ATOM     27  C   UNL     1     -12.121  -4.820  13.147  0.00  0.00    +0.026 A 
ATOM     29  C   UNL     1     -14.885  -4.458  13.026  0.00  0.00    +0.040 A 
ATOM     30  C   UNL     1     -12.654  -3.767  12.404  0.00  0.00    +0.040 A 
ATOM     31  C   UNL     1     -14.036  -3.585  12.344  0.00  0.00    +0.124 A 
ENDBRANCH   5  25
ENDBRANCH   7  13
TORSDOF 4
ENDMDL
MODEL 2
REMARK VINA RESULT:      -7.4      5.412      8.570
REMARK  Name = 7051565
REMARK  8 active torsions:
REMARK  status: ('A' for Active; 'I' for Inactive)
REMARK    1  A    between atoms: O_3  and  C_21
REMARK    2  A    between atoms: O_3  and  C_28
REMARK    3  A    between atoms: N_5  and  C_25
REMARK    4  A    between atoms: C_6  and  C_7
REMARK    5  A    between atoms: C_7  and  C_13
REMARK    6  A    between atoms: C_7  and  C_14
REMARK    7  A    between atoms: C_15  and  C_23
REMARK    8  A    between atoms: C_16  and  C_24
REMARK                            x       y       z     vdW  Elec       q    Type
REMARK                         _______ _______ _______ _____ _____    ______ ____
ROOT
ATOM      7  C   UNL     1      -3.016 -11.681  13.874  0.00  0.00    +0.075 C 
ATOM     14  C   UNL     1      -1.800 -12.427  14.399  0.00  0.00    +0.017 C 
ENDROOT
BRANCH   7   6
ATOM      6  C   UNL     1      -3.804 -11.032  15.009  0.00  0.00    +0.005 C 
ATOM      8  C   UNL     1      -3.695 -11.858  16.295  0.00  0.00    +0.009 C 
ATOM      9  C   UNL     1      -5.281 -10.870  14.620  0.00  0.00    +0.040 C 
ATOM     10  C   UNL     1      -4.381 -11.137  17.454  0.00  0.00    +0.036 C 
ATOM     11  C   UNL     1      -6.164 -10.457  15.773  0.00  0.00    -0.037 A 
ATOM     12  C   UNL     1      -5.755 -10.621  17.109  0.00  0.00    -0.041 A 
ATOM     15  C   UNL     1      -7.445  -9.952  15.502  0.00  0.00    -0.005 A 
ATOM     16  C   UNL     1      -6.620 -10.241  18.145  0.00  0.00    -0.044 A 
ATOM     21  C   UNL     1      -8.299  -9.589  16.542  0.00  0.00    +0.124 A 
ATOM     22  C   UNL     1      -7.887  -9.730  17.863  0.00  0.00    +0.049 A 
ATOM     23  C   UNL     1      -7.928  -9.801  14.092  0.00  0.00    +0.048 C 
ATOM     24  C   UNL     1      -6.220 -10.359  19.582  0.00  0.00    +0.044 C 
BRANCH  21   3
ATOM      3  O   UNL     1      -9.543  -9.094  16.285  0.00  0.00    -0.495 OA
ATOM     28  C   UNL     1      -9.882  -7.847  16.888  0.00  0.00    +0.277 C 
ENDBRANCH  21   3
ENDBRANCH   7   6
BRANCH   7  13
ATOM      2  O   UNL     1      -1.759  -9.762  13.264  0.00  0.00    -0.275 OA
ATOM      4  N   UNL     1      -3.113 -10.689  11.618  0.00  0.00    -0.298 N 
ATOM      5  N   UNL     1      -4.342 -10.608   8.998  0.00  0.00    -0.327 N 
ATOM     13  C   UNL     1      -2.568 -10.620  12.900  0.00  0.00    +0.219 C 
ATOM     17  C   UNL     1      -2.723  -9.701  10.615  0.00  0.00    +0.126 C 
ATOM     18  C   UNL     1      -4.080 -11.703  11.190  0.00  0.00    +0.126 C 
ATOM     19  C   UNL     1      -3.864  -9.386   9.651  0.00  0.00    +0.124 C 
ATOM     20  C   UNL     1      -4.112 -11.888   9.673  0.00  0.00    +0.124 C 
BRANCH   5  25
ATOM      1  F   UNL     1      -6.828 -10.390   4.028  0.00  0.00    -0.205 F 
ATOM     25  C   UNL     1      -4.965 -10.553   7.753  0.00  0.00    +0.030 A 
ATOM     26  C   UNL     1      -4.632 -11.464   6.723  0.00  0.00    +0.026 A 
ATOM     27  C   UNL     1      -5.957  -9.585   7.468  0.00  0.00    +0.026 A 
ATOM     29  C   UNL     1      -5.255 -11.409   5.476  0.00  0.00    +0.040 A 
ATOM     30  C   UNL     1      -6.579  -9.530   6.221  0.00  0.00    +0.040 A 
ATOM     31  C   UNL     1      -6.229 -10.442   5.226  0.00  0.00    +0.124 A 
ENDBRANCH   5  25
ENDBRANCH   7  13
TORSDOF 4
ENDMDL
MODEL 3
REMARK VINA RESULT:      -7.4     16.532     18.810
REMARK  Name = 7051565
REMARK  8 active torsions:
REMARK  status: ('A' for Active; 'I' for Inactive)
REMARK    1  A    between atoms: O_3  and  C_21
REMARK    2  A    between atoms: O_3  and  C_28
REMARK    3  A    between atoms: N_5  and  C_25
REMARK    4  A    between atoms: C_6  and  C_7
REMARK    5  A    between atoms: C_7  and  C_13
REMARK    6  A    between atoms: C_7  and  C_14
REMARK    7  A    between atoms: C_15  and  C_23
REMARK    8  A    between atoms: C_16  and  C_24
REMARK                            x       y       z     vdW  Elec       q    Type
REMARK                         _______ _______ _______ _____ _____    ______ ____
ROOT
ATOM      7  C   UNL     1     -17.039   4.060  25.387  0.00  0.00    +0.075 C 
ATOM     14  C   UNL     1     -18.508   3.675  25.298  0.00  0.00    +0.017 C 
ENDROOT
BRANCH   7   6
ATOM      6  C   UNL     1     -16.363   3.402  26.588  0.00  0.00    +0.005 C 
ATOM      8  C   UNL     1     -16.905   1.987  26.816  0.00  0.00    +0.009 C 
ATOM      9  C   UNL     1     -16.570   4.247  27.855  0.00  0.00    +0.040 C 
ATOM     10  C   UNL     1     -16.136   1.293  27.939  0.00  0.00    +0.036 C 
ATOM     11  C   UNL     1     -16.137   3.546  29.120  0.00  0.00    -0.037 A 
ATOM     12  C   UNL     1     -15.972   2.150  29.169  0.00  0.00    -0.041 A 
ATOM     15  C   UNL     1     -15.951   4.302  30.287  0.00  0.00    -0.005 A 
ATOM     16  C   UNL     1     -15.589   1.543  30.374  0.00  0.00    -0.044 A 
ATOM     21  C   UNL     1     -15.581   3.686  31.482  0.00  0.00    +0.124 A 
ATOM     22  C   UNL     1     -15.398   2.308  31.526  0.00  0.00    +0.049 A 
ATOM     23  C   UNL     1     -16.156   5.786  30.280  0.00  0.00    +0.048 C 
ATOM     24  C   UNL     1     -15.364   0.068  30.471  0.00  0.00    +0.044 C 
BRANCH  21   3
ATOM      3  O   UNL     1     -15.397   4.416  32.617  0.00  0.00    -0.495 OA
ATOM     28  C   UNL     1     -14.287   4.063  33.441  0.00  0.00    +0.277 C 
ENDBRANCH  21   3
ENDBRANCH   7   6
BRANCH   7  13
ATOM      2  O   UNL     1     -16.408   2.465  23.746  0.00  0.00    -0.275 OA
ATOM      4  N   UNL     1     -15.641   4.638  23.440  0.00  0.00    -0.298 N 
ATOM      5  N   UNL     1     -13.987   6.577  22.066  0.00  0.00    -0.327 N 
ATOM     13  C   UNL     1     -16.337   3.639  24.120  0.00  0.00    +0.219 C 
ATOM     17  C   UNL     1     -14.939   4.311  22.201  0.00  0.00    +0.126 C 
ATOM     18  C   UNL     1     -15.549   6.028  23.891  0.00  0.00    +0.126 C 
ATOM     19  C   UNL     1     -13.673   5.146  22.024  0.00  0.00    +0.124 C 
ATOM     20  C   UNL     1     -15.208   6.997  22.760  0.00  0.00    +0.124 C 
BRANCH   5  25
ATOM      1  F   UNL     1     -10.703  10.281  19.532  0.00  0.00    -0.205 F 
ATOM     25  C   UNL     1     -13.165   7.505  21.432  0.00  0.00    +0.030 A 
ATOM     26  C   UNL     1     -12.032   7.097  20.688  0.00  0.00    +0.026 A 
ATOM     27  C   UNL     1     -13.429   8.893  21.503  0.00  0.00    +0.026 A 
ATOM     29  C   UNL     1     -11.208   8.026  20.053  0.00  0.00    +0.040 A 
ATOM     30  C   UNL     1     -12.604   9.822  20.868  0.00  0.00    +0.040 A 
ATOM     31  C   UNL     1     -11.494   9.389  20.143  0.00  0.00    +0.124 A 
ENDBRANCH   5  25
ENDBRANCH   7  13
TORSDOF 4
ENDMDL
MODEL 4
REMARK VINA RESULT:      -7.4      1.835      3.233
REMARK  Name = 7051565
REMARK  8 active torsions:
REMARK  status: ('A' for Active; 'I' for Inactive)
REMARK    1  A    between atoms: O_3  and  C_21
REMARK    2  A    between atoms: O_3  and  C_28
REMARK    3  A    between atoms: N_5  and  C_25
REMARK    4  A    between atoms: C_6  and  C_7
REMARK    5  A    between atoms: C_7  and  C_13
REMARK    6  A    between atoms: C_7  and  C_14
REMARK    7  A    between atoms: C_15  and  C_23
REMARK    8  A    between atoms: C_16  and  C_24
REMARK                            x       y       z     vdW  Elec       q    Type
REMARK                         _______ _______ _______ _____ _____    ______ ____
ROOT
ATOM      7  C   UNL     1      -7.031 -10.116  18.052  0.00  0.00    +0.075 C 
ATOM     14  C   UNL     1      -6.639 -10.423  19.489  0.00  0.00    +0.017 C 
ENDROOT
BRANCH   7   6
ATOM      6  C   UNL     1      -6.010 -10.677  17.065  0.00  0.00    +0.005 C 
ATOM      8  C   UNL     1      -4.581 -10.482  17.583  0.00  0.00    +0.009 C 
ATOM      9  C   UNL     1      -6.161 -10.005  15.691  0.00  0.00    +0.040 C 
ATOM     10  C   UNL     1      -3.577 -11.157  16.649  0.00  0.00    +0.036 C 
ATOM     11  C   UNL     1      -5.039 -10.334  14.737  0.00  0.00    -0.037 A 
ATOM     12  C   UNL     1      -3.808 -10.839  15.193  0.00  0.00    -0.041 A 
ATOM     15  C   UNL     1      -5.211 -10.075  13.368  0.00  0.00    -0.005 A 
ATOM     16  C   UNL     1      -2.788 -11.109  14.268  0.00  0.00    -0.044 A 
ATOM     21  C   UNL     1      -4.187 -10.338  12.461  0.00  0.00    +0.124 A 
ATOM     22  C   UNL     1      -2.977 -10.857  12.909  0.00  0.00    +0.049 A 
ATOM     23  C   UNL     1      -6.495  -9.501  12.852  0.00  0.00    +0.048 C 
ATOM     24  C   UNL     1      -1.474 -11.681  14.696  0.00  0.00    +0.044 C 
BRANCH  21   3
ATOM      3  O   UNL     1      -4.350 -10.091  11.131  0.00  0.00    -0.495 OA
ATOM     28  C   UNL     1      -3.236  -9.537  10.432  0.00  0.00    +0.277 C 
ENDBRANCH  21   3
ENDBRANCH   7   6
BRANCH   7  13
ATOM      2  O   UNL     1      -8.578 -11.914  17.968  0.00  0.00    -0.275 OA
ATOM      4  N   UNL     1      -9.359  -9.832  17.291  0.00  0.00    -0.298 N 
ATOM      5  N   UNL     1     -11.386  -8.147  16.094  0.00  0.00    -0.327 N 
ATOM     13  C   UNL     1      -8.388 -10.711  17.768  0.00  0.00    +0.219 C 
ATOM     17  C   UNL     1     -10.701 -10.331  16.998  0.00  0.00    +0.126 C 
ATOM     18  C   UNL     1      -9.129  -8.406  17.046  0.00  0.00    +0.126 C 
ATOM     19  C   UNL     1     -11.344  -9.588  15.830  0.00  0.00    +0.124 C 
ATOM     20  C   UNL     1     -10.420  -7.589  17.043  0.00  0.00    +0.124 C 
BRANCH   5  25
ATOM      1  F   UNL     1     -15.207  -4.923  13.658  0.00  0.00    -0.205 F 
ATOM     25  C   UNL     1     -12.343  -7.340  15.483  0.00  0.00    +0.030 A 
ATOM     26  C   UNL     1     -11.975  -6.181  14.759  0.00  0.00    +0.026 A 
ATOM     27  C   UNL     1     -13.722  -7.645  15.562  0.00  0.00    +0.026 A 
ATOM     29  C   UNL     1     -12.934  -5.372  14.149  0.00  0.00    +0.040 A 
ATOM     30  C   UNL     1     -14.681  -6.836  14.952  0.00  0.00    +0.040 A 
ATOM     31  C   UNL     1     -14.287  -5.700  14.245  0.00  0.00    +0.124 A 
ENDBRANCH   5  25
ENDBRANCH   7  13
TORSDOF 4
ENDMDL
MODEL 5
REMARK VINA RESULT:      -7.0      4.806      8.343
REMARK  Name = 7051565
REMARK  8 active torsions:
REMARK  status: ('A' for Active; 'I' for Inactive)
REMARK    1  A    between atoms: O_3  and  C_21
REMARK    2  A    between atoms: O_3  and  C_28
REMARK    3  A    between atoms: N_5  and  C_25
REMARK    4  A    between atoms: C_6  and  C_7
REMARK    5  A    between atoms: C_7  and  C_13
REMARK    6  A    between atoms: C_7  and  C_14
REMARK    7  A    between atoms: C_15  and  C_23
REMARK    8  A    between atoms: C_16  and  C_24
REMARK                            x       y       z     vdW  Elec       q    Type
REMARK                         _______ _______ _______ _____ _____    ______ ____
ROOT
ATOM      7  C   UNL     1      -3.349 -10.604  13.911  0.00  0.00    +0.075 C 
ATOM     14  C   UNL     1      -1.838 -10.446  13.861  0.00  0.00    +0.017 C 
ENDROOT
BRANCH   7   6
ATOM      6  C   UNL     1      -3.893 -11.173  12.602  0.00  0.00    +0.005 C 
ATOM      8  C   UNL     1      -2.889 -12.139  11.966  0.00  0.00    +0.009 C 
ATOM      9  C   UNL     1      -4.222 -10.042  11.616  0.00  0.00    +0.040 C 
ATOM     10  C   UNL     1      -3.492 -12.797  10.725  0.00  0.00    +0.036 C 
ATOM     11  C   UNL     1      -4.538 -10.533  10.224  0.00  0.00    -0.037 A 
ATOM     12  C   UNL     1      -4.158 -11.817   9.792  0.00  0.00    -0.041 A 
ATOM     15  C   UNL     1      -5.174  -9.664   9.324  0.00  0.00    -0.005 A 
ATOM     16  C   UNL     1      -4.455 -12.218   8.482  0.00  0.00    -0.044 A 
ATOM     21  C   UNL     1      -5.454 -10.072   8.021  0.00  0.00    +0.124 A 
ATOM     22  C   UNL     1      -5.098 -11.349   7.600  0.00  0.00    +0.049 A 
ATOM     23  C   UNL     1      -5.558  -8.277   9.738  0.00  0.00    +0.048 C 
ATOM     24  C   UNL     1      -4.106 -13.585   7.984  0.00  0.00    +0.044 C 
BRANCH  21   3
ATOM      3  O   UNL     1      -6.075  -9.235   7.144  0.00  0.00    -0.495 OA
ATOM     28  C   UNL     1      -6.362  -9.752   5.846  0.00  0.00    +0.277 C 
ENDBRANCH  21   3
ENDBRANCH   7   6
BRANCH   7  13
ATOM      2  O   UNL     1      -3.028 -12.521  15.274  0.00  0.00    -0.275 OA
ATOM      4  N   UNL     1      -4.839 -11.161  15.796  0.00  0.00    -0.298 N 
ATOM      5  N   UNL     1      -7.272 -10.628  17.271  0.00  0.00    -0.327 N 
ATOM     13  C   UNL     1      -3.716 -11.521  15.051  0.00  0.00    +0.219 C 
ATOM     17  C   UNL     1      -5.256 -11.995  16.920  0.00  0.00    +0.126 C 
ATOM     18  C   UNL     1      -5.660  -9.979  15.524  0.00  0.00    +0.126 C 
ATOM     19  C   UNL     1      -6.772 -11.995  17.100  0.00  0.00    +0.124 C 
ATOM     20  C   UNL     1      -6.467  -9.525  16.740  0.00  0.00    +0.124 C 
BRANCH   5  25
ATOM      1  F   UNL     1     -12.027  -9.663  19.989  0.00  0.00    -0.205 F 
ATOM     25  C   UNL     1      -8.464 -10.386  17.951  0.00  0.00    +0.030 A 
ATOM     26  C   UNL     1      -8.771 -11.057  19.159  0.00  0.00    +0.026 A 
ATOM     27  C   UNL     1      -9.415  -9.459  17.464  0.00  0.00    +0.026 A 
ATOM     29  C   UNL     1      -9.963 -10.816  19.840  0.00  0.00    +0.040 A 
ATOM     30  C   UNL     1     -10.608  -9.218  18.146  0.00  0.00    +0.040 A 
ATOM     31  C   UNL     1     -10.882  -9.895  19.334  0.00  0.00    +0.124 A 
ENDBRANCH   5  25
ENDBRANCH   7  13
TORSDOF 4
ENDMDL
MODEL 6
REMARK VINA RESULT:      -6.9     17.050     19.116
REMARK  Name = 7051565
REMARK  8 active torsions:
REMARK  status: ('A' for Active; 'I' for Inactive)
REMARK    1  A    between atoms: O_3  and  C_21
REMARK    2  A    between atoms: O_3  and  C_28
REMARK    3  A    between atoms: N_5  and  C_25
REMARK    4  A    between atoms: C_6  and  C_7
REMARK    5  A    between atoms: C_7  and  C_13
REMARK    6  A    between atoms: C_7  and  C_14
REMARK    7  A    between atoms: C_15  and  C_23
REMARK    8  A    between atoms: C_16  and  C_24
REMARK                            x       y       z     vdW  Elec       q    Type
REMARK                         _______ _______ _______ _____ _____    ______ ____
ROOT
ATOM      7  C   UNL     1     -16.862   4.889  22.039  0.00  0.00    +0.075 C 
ATOM     14  C   UNL     1     -17.857   4.146  21.163  0.00  0.00    +0.017 C 
ENDROOT
BRANCH   7   6
ATOM      6  C   UNL     1     -16.312   6.126  21.332  0.00  0.00    +0.005 C 
ATOM      8  C   UNL     1     -16.993   6.328  19.974  0.00  0.00    +0.009 C 
ATOM      9  C   UNL     1     -14.793   6.008  21.138  0.00  0.00    +0.040 C 
ATOM     10  C   UNL     1     -16.527   7.634  19.331  0.00  0.00    +0.036 C 
ATOM     11  C   UNL     1     -14.218   7.076  20.240  0.00  0.00    -0.037 A 
ATOM     12  C   UNL     1     -15.030   7.814  19.360  0.00  0.00    -0.041 A 
ATOM     15  C   UNL     1     -12.832   7.295  20.245  0.00  0.00    -0.005 A 
ATOM     16  C   UNL     1     -14.445   8.781  18.530  0.00  0.00    -0.044 A 
ATOM     21  C   UNL     1     -12.261   8.252  19.407  0.00  0.00    +0.124 A 
ATOM     22  C   UNL     1     -13.066   8.997  18.552  0.00  0.00    +0.049 A 
ATOM     23  C   UNL     1     -11.933   6.501  21.142  0.00  0.00    +0.048 C 
ATOM     24  C   UNL     1     -15.267   9.618  17.603  0.00  0.00    +0.044 C 
BRANCH  21   3
ATOM      3  O   UNL     1     -10.917   8.472  19.410  0.00  0.00    -0.495 OA
ATOM     28  C   UNL     1     -10.481   9.827  19.499  0.00  0.00    +0.277 C 
ENDBRANCH  21   3
ENDBRANCH   7   6
BRANCH   7  13
ATOM      2  O   UNL     1     -18.345   6.238  23.312  0.00  0.00    -0.275 OA
ATOM      4  N   UNL     1     -17.202   4.572  24.461  0.00  0.00    -0.298 N 
ATOM      5  N   UNL     1     -16.414   3.269  26.923  0.00  0.00    -0.327 N 
ATOM     13  C   UNL     1     -17.540   5.302  23.322  0.00  0.00    +0.219 C 
ATOM     17  C   UNL     1     -17.821   4.907  25.742  0.00  0.00    +0.126 C 
ATOM     18  C   UNL     1     -16.240   3.468  24.474  0.00  0.00    +0.126 C 
ATOM     19  C   UNL     1     -16.875   4.661  26.915  0.00  0.00    +0.124 C 
ATOM     20  C   UNL     1     -16.434   2.526  25.661  0.00  0.00    +0.124 C 
BRANCH   5  25
ATOM      1  F   UNL     1     -14.772   0.852  31.655  0.00  0.00    -0.205 F 
ATOM     25  C   UNL     1     -16.003   2.663  28.109  0.00  0.00    +0.030 A 
ATOM     26  C   UNL     1     -15.267   3.378  29.084  0.00  0.00    +0.026 A 
ATOM     27  C   UNL     1     -16.305   1.310  28.387  0.00  0.00    +0.026 A 
ATOM     29  C   UNL     1     -14.854   2.771  30.270  0.00  0.00    +0.040 A 
ATOM     30  C   UNL     1     -15.892   0.703  29.573  0.00  0.00    +0.040 A 
ATOM     31  C   UNL     1     -15.168   1.434  30.515  0.00  0.00    +0.124 A 
ENDBRANCH   5  25
ENDBRANCH   7  13
TORSDOF 4
ENDMDL
MODEL 7
REMARK VINA RESULT:      -6.8      1.098      2.357
REMARK  Name = 7051565
REMARK  8 active torsions:
REMARK  status: ('A' for Active; 'I' for Inactive)
REMARK    1  A    between atoms: O_3  and  C_21
REMARK    2  A    between atoms: O_3  and  C_28
REMARK    3  A    between atoms: N_5  and  C_25
REMARK    4  A    between atoms: C_6  and  C_7
REMARK    5  A    between atoms: C_7  and  C_13
REMARK    6  A    between atoms: C_7  and  C_14
REMARK    7  A    between atoms: C_15  and  C_23
REMARK    8  A    between atoms: C_16  and  C_24
REMARK                            x       y       z     vdW  Elec       q    Type
REMARK                         _______ _______ _______ _____ _____    ______ ____
ROOT
ATOM      7  C   UNL     1      -9.754  -9.159  17.323  0.00  0.00    +0.075 C 
ATOM     14  C   UNL     1      -9.663 -10.162  18.461  0.00  0.00    +0.017 C 
ENDROOT
BRANCH   7   6
ATOM      6  C   UNL     1      -8.499  -9.186  16.454  0.00  0.00    +0.005 C 
ATOM      8  C   UNL     1      -8.769  -9.894  15.122  0.00  0.00    +0.009 C 
ATOM      9  C   UNL     1      -7.347  -9.888  17.190  0.00  0.00    +0.040 C 
ATOM     10  C   UNL     1      -7.546  -9.807  14.211  0.00  0.00    +0.036 C 
ATOM     11  C   UNL     1      -6.152 -10.163  16.309  0.00  0.00    -0.037 A 
ATOM     12  C   UNL     1      -6.256 -10.164  14.906  0.00  0.00    -0.041 A 
ATOM     15  C   UNL     1      -4.924 -10.481  16.909  0.00  0.00    -0.005 A 
ATOM     16  C   UNL     1      -5.122 -10.448  14.132  0.00  0.00    -0.044 A 
ATOM     21  C   UNL     1      -3.807 -10.772  16.128  0.00  0.00    +0.124 A 
ATOM     22  C   UNL     1      -3.903 -10.752  14.740  0.00  0.00    +0.049 A 
ATOM     23  C   UNL     1      -4.787 -10.528  18.400  0.00  0.00    +0.048 C 
ATOM     24  C   UNL     1      -5.169 -10.425  12.637  0.00  0.00    +0.044 C 
BRANCH  21   3
ATOM      3  O   UNL     1      -2.611 -11.078  16.704  0.00  0.00    -0.495 OA
ATOM     28  C   UNL     1      -1.433 -10.676  16.007  0.00  0.00    +0.277 C 
ENDBRANCH  21   3
ENDBRANCH   7   6
BRANCH   7  13
ATOM      2  O   UNL     1     -11.388 -10.634  16.432  0.00  0.00    -0.275 OA
ATOM      4  N   UNL     1     -11.528  -8.406  15.783  0.00  0.00    -0.298 N 
ATOM      5  N   UNL     1     -12.652  -6.308  14.136  0.00  0.00    -0.327 N 
ATOM     13  C   UNL     1     -10.961  -9.476  16.475  0.00  0.00    +0.219 C 
ATOM     17  C   UNL     1     -12.703  -8.632  14.945  0.00  0.00    +0.126 C 
ATOM     18  C   UNL     1     -11.015  -7.035  15.828  0.00  0.00    +0.126 C 
ATOM     19  C   UNL     1     -12.720  -7.713  13.726  0.00  0.00    +0.124 C 
ATOM     20  C   UNL     1     -12.067  -5.996  15.442  0.00  0.00    +0.124 C 
BRANCH   5  25
ATOM      1  F   UNL     1     -14.697  -2.294  10.874  0.00  0.00    -0.205 F 
ATOM     25  C   UNL     1     -13.164  -5.302  13.319  0.00  0.00    +0.030 A 
ATOM     26  C   UNL     1     -14.554  -5.184  13.081  0.00  0.00    +0.026 A 
ATOM     27  C   UNL     1     -12.316  -4.358  12.694  0.00  0.00    +0.026 A 
ATOM     29  C   UNL     1     -15.067  -4.178  12.262  0.00  0.00    +0.040 A 
ATOM     30  C   UNL     1     -12.829  -3.352  11.875  0.00  0.00    +0.040 A 
ATOM     31  C   UNL     1     -14.204  -3.261  11.659  0.00  0.00    +0.124 A 
ENDBRANCH   5  25
ENDBRANCH   7  13
TORSDOF 4
ENDMDL
MODEL 8
REMARK VINA RESULT:      -6.7     27.672     31.447
REMARK  Name = 7051565
REMARK  8 active torsions:
REMARK  status: ('A' for Active; 'I' for Inactive)
REMARK    1  A    between atoms: O_3  and  C_21
REMARK    2  A    between atoms: O_3  and  C_28
REMARK    3  A    between atoms: N_5  and  C_25
REMARK    4  A    between atoms: C_6  and  C_7
REMARK    5  A    between atoms: C_7  and  C_13
REMARK    6  A    between atoms: C_7  and  C_14
REMARK    7  A    between atoms: C_15  and  C_23
REMARK    8  A    between atoms: C_16  and  C_24
REMARK                            x       y       z     vdW  Elec       q    Type
REMARK                         _______ _______ _______ _____ _____    ______ ____
ROOT
ATOM      7  C   UNL     1      18.485 -12.787  -1.291  0.00  0.00    +0.075 C 
ATOM     14  C   UNL     1      18.986 -13.887  -2.213  0.00  0.00    +0.017 C 
ENDROOT
BRANCH   7   6
ATOM      6  C   UNL     1      18.204 -13.322   0.112  0.00  0.00    +0.005 C 
ATOM      8  C   UNL     1      17.509 -14.686   0.049  0.00  0.00    +0.009 C 
ATOM      9  C   UNL     1      17.336 -12.332   0.904  0.00  0.00    +0.040 C 
ATOM     10  C   UNL     1      17.345 -15.267   1.452  0.00  0.00    +0.036 C 
ATOM     11  C   UNL     1      16.822 -12.895   2.207  0.00  0.00    -0.037 A 
ATOM     12  C   UNL     1      16.789 -14.281   2.448  0.00  0.00    -0.041 A 
ATOM     15  C   UNL     1      16.312 -12.016   3.174  0.00  0.00    -0.005 A 
ATOM     16  C   UNL     1      16.281 -14.756   3.666  0.00  0.00    -0.044 A 
ATOM     21  C   UNL     1      15.801 -12.501   4.376  0.00  0.00    +0.124 A 
ATOM     22  C   UNL     1      15.787 -13.870   4.624  0.00  0.00    +0.049 A 
ATOM     23  C   UNL     1      16.296 -10.537   2.934  0.00  0.00    +0.048 C 
ATOM     24  C   UNL     1      16.258 -16.216   3.988  0.00  0.00    +0.044 C 
BRANCH  21   3
ATOM      3  O   UNL     1      15.308 -11.652   5.321  0.00  0.00    -0.495 OA
ATOM     28  C   UNL     1      15.694 -11.891   6.673  0.00  0.00    +0.277 C 
ENDBRANCH  21   3
ENDBRANCH   7   6
BRANCH   7  13
ATOM      2  O   UNL     1      20.667 -11.962  -0.849  0.00  0.00    -0.275 OA
ATOM      4  N   UNL     1      19.094 -10.414  -1.578  0.00  0.00    -0.298 N 
ATOM      5  N   UNL     1      18.265  -7.691  -2.100  0.00  0.00    -0.327 N 
ATOM     13  C   UNL     1      19.520 -11.692  -1.215  0.00  0.00    +0.219 C 
ATOM     17  C   UNL     1      20.039  -9.301  -1.537  0.00  0.00    +0.126 C 
ATOM     18  C   UNL     1      17.729 -10.093  -2.003  0.00  0.00    +0.126 C 
ATOM     19  C   UNL     1      19.356  -7.986  -1.168  0.00  0.00    +0.124 C 
ATOM     20  C   UNL     1      17.652  -8.807  -2.824  0.00  0.00    +0.124 C 
BRANCH   5  25
ATOM      1  F   UNL     1      16.609  -2.452  -2.964  0.00  0.00    -0.205 F 
ATOM     25  C   UNL     1      17.850  -6.378  -2.317  0.00  0.00    +0.030 A 
ATOM     26  C   UNL     1      18.475  -5.291  -1.661  0.00  0.00    +0.026 A 
ATOM     27  C   UNL     1      16.787  -6.078  -3.201  0.00  0.00    +0.026 A 
ATOM     29  C   UNL     1      18.059  -3.977  -1.877  0.00  0.00    +0.040 A 
ATOM     30  C   UNL     1      16.371  -4.765  -3.417  0.00  0.00    +0.040 A 
ATOM     31  C   UNL     1      17.008  -3.714  -2.756  0.00  0.00    +0.124 A 
ENDBRANCH   5  25
ENDBRANCH   7  13
TORSDOF 4
ENDMDL
MODEL 9
REMARK VINA RESULT:      -6.7      3.852      8.917
REMARK  Name = 7051565
REMARK  8 active torsions:
REMARK  status: ('A' for Active; 'I' for Inactive)
REMARK    1  A    between atoms: O_3  and  C_21
REMARK    2  A    between atoms: O_3  and  C_28
REMARK    3  A    between atoms: N_5  and  C_25
REMARK    4  A    between atoms: C_6  and  C_7
REMARK    5  A    between atoms: C_7  and  C_13
REMARK    6  A    between atoms: C_7  and  C_14
REMARK    7  A    between atoms: C_15  and  C_23
REMARK    8  A    between atoms: C_16  and  C_24
REMARK                            x       y       z     vdW  Elec       q    Type
REMARK                         _______ _______ _______ _____ _____    ______ ____
ROOT
ATOM      7  C   UNL     1     -10.758 -11.665  18.659  0.00  0.00    +0.075 C 
ATOM     14  C   UNL     1     -11.397 -12.683  19.591  0.00  0.00    +0.017 C 
ENDROOT
BRANCH   7   6
ATOM      6  C   UNL     1     -11.709 -10.508  18.363  0.00  0.00    +0.005 C 
ATOM      8  C   UNL     1     -13.073 -11.025  17.893  0.00  0.00    +0.009 C 
ATOM      9  C   UNL     1     -11.112  -9.576  17.298  0.00  0.00    +0.040 C 
ATOM     10  C   UNL     1     -14.054  -9.867  17.720  0.00  0.00    +0.036 C 
ATOM     11  C   UNL     1     -12.091  -8.548  16.783  0.00  0.00    -0.037 A 
ATOM     12  C   UNL     1     -13.479  -8.706  16.947  0.00  0.00    -0.041 A 
ATOM     15  C   UNL     1     -11.604  -7.439  16.075  0.00  0.00    -0.005 A 
ATOM     16  C   UNL     1     -14.349  -7.734  16.432  0.00  0.00    -0.044 A 
ATOM     21  C   UNL     1     -12.480  -6.485  15.559  0.00  0.00    +0.124 A 
ATOM     22  C   UNL     1     -13.851  -6.630  15.739  0.00  0.00    +0.049 A 
ATOM     23  C   UNL     1     -10.134  -7.259  15.848  0.00  0.00    +0.048 C 
ATOM     24  C   UNL     1     -15.830  -7.835  16.612  0.00  0.00    +0.044 C 
BRANCH  21   3
ATOM      3  O   UNL     1     -12.012  -5.405  14.873  0.00  0.00    -0.495 OA
ATOM     28  C   UNL     1     -12.769  -4.978  13.742  0.00  0.00    +0.277 C 
ENDBRANCH  21   3
ENDBRANCH   7   6
BRANCH   7  13
ATOM      2  O   UNL     1      -9.532 -10.706  20.452  0.00  0.00    -0.275 OA
ATOM      4  N   UNL     1      -8.348 -11.163  18.505  0.00  0.00    -0.298 N 
ATOM      5  N   UNL     1      -5.956 -10.980  16.885  0.00  0.00    -0.327 N 
ATOM     13  C   UNL     1      -9.498 -11.132  19.294  0.00  0.00    +0.219 C 
ATOM     17  C   UNL     1      -7.086 -10.670  19.050  0.00  0.00    +0.126 C 
ATOM     18  C   UNL     1      -8.311 -11.661  17.127  0.00  0.00    +0.126 C 
ATOM     19  C   UNL     1      -6.210 -10.033  17.974  0.00  0.00    +0.124 C 
ATOM     20  C   UNL     1      -6.909 -12.074  16.684  0.00  0.00    +0.124 C 
BRANCH   5  25
ATOM      1  F   UNL     1      -1.416 -10.505  13.708  0.00  0.00    -0.205 F 
ATOM     25  C   UNL     1      -4.819 -10.861  16.089  0.00  0.00    +0.030 A 
ATOM     26  C   UNL     1      -3.528 -10.761  16.660  0.00  0.00    +0.026 A 
ATOM     27  C   UNL     1      -4.908 -10.836  14.678  0.00  0.00    +0.026 A 
ATOM     29  C   UNL     1      -2.389 -10.641  15.864  0.00  0.00    +0.040 A 
ATOM     30  C   UNL     1      -3.769 -10.716  13.881  0.00  0.00    +0.040 A 
ATOM     31  C   UNL     1      -2.510 -10.619  14.473  0.00  0.00    +0.124 A 
ENDBRANCH   5  25
ENDBRANCH   7  13
TORSDOF 4
ENDMDL
MODEL 10
REMARK VINA RESULT:      -6.7      4.982      7.486
REMARK  Name = 7051565
REMARK  8 active torsions:
REMARK  status: ('A' for Active; 'I' for Inactive)
REMARK    1  A    between atoms: O_3  and  C_21
REMARK    2  A    between atoms: O_3  and  C_28
REMARK    3  A    between atoms: N_5  and  C_25
REMARK    4  A    between atoms: C_6  and  C_7
REMARK    5  A    between atoms: C_7  and  C_13
REMARK    6  A    between atoms: C_7  and  C_14
REMARK    7  A    between atoms: C_15  and  C_23
REMARK    8  A    between atoms: C_16  and  C_24
REMARK                            x       y       z     vdW  Elec       q    Type
REMARK                         _______ _______ _______ _____ _____    ______ ____
ROOT
ATOM      7  C   UNL     1      -3.684 -11.873  12.848  0.00  0.00    +0.075 C 
ATOM     14  C   UNL     1      -2.609 -12.941  12.972  0.00  0.00    +0.017 C 
ENDROOT
BRANCH   7   6
ATOM      6  C   UNL     1      -4.071 -11.310  14.214  0.00  0.00    +0.005 C 
ATOM      8  C   UNL     1      -3.758 -12.314  15.329  0.00  0.00    +0.009 C 
ATOM      9  C   UNL     1      -5.563 -10.946  14.247  0.00  0.00    +0.040 C 
ATOM     10  C   UNL     1      -4.031 -11.695  16.698  0.00  0.00    +0.036 C 
ATOM     11  C   UNL     1      -6.068 -10.609  15.629  0.00  0.00    -0.037 A 
ATOM     12  C   UNL     1      -5.365 -10.998  16.784  0.00  0.00    -0.041 A 
ATOM     15  C   UNL     1      -7.295  -9.943  15.761  0.00  0.00    -0.005 A 
ATOM     16  C   UNL     1      -5.887 -10.680  18.047  0.00  0.00    -0.044 A 
ATOM     21  C   UNL     1      -7.808  -9.642  17.022  0.00  0.00    +0.124 A 
ATOM     22  C   UNL     1      -7.104 -10.007  18.165  0.00  0.00    +0.049 A 
ATOM     23  C   UNL     1      -8.089  -9.549  14.553  0.00  0.00    +0.048 C 
ATOM     24  C   UNL     1      -5.162 -11.036  19.306  0.00  0.00    +0.044 C 
BRANCH  21   3
ATOM      3  O   UNL     1      -8.998  -8.993  17.157  0.00  0.00    -0.495 OA
ATOM     28  C   UNL     1     -10.026  -9.665  17.882  0.00  0.00    +0.277 C 
ENDBRANCH  21   3
ENDBRANCH   7   6
BRANCH   7  13
ATOM      2  O   UNL     1      -2.061 -10.275  12.177  0.00  0.00    -0.275 OA
ATOM      4  N   UNL     1      -4.033 -10.340  10.948  0.00  0.00    -0.298 N 
ATOM      5  N   UNL     1      -5.809  -9.249   8.939  0.00  0.00    -0.327 N 
ATOM     13  C   UNL     1      -3.178 -10.757  11.968  0.00  0.00    +0.219 C 
ATOM     17  C   UNL     1      -3.612  -9.267  10.049  0.00  0.00    +0.126 C 
ATOM     18  C   UNL     1      -5.362 -10.906  10.707  0.00  0.00    +0.126 C 
ATOM     19  C   UNL     1      -4.791  -8.416   9.586  0.00  0.00    +0.124 C 
ATOM     20  C   UNL     1      -5.855 -10.673   9.279  0.00  0.00    +0.124 C 
BRANCH   5  25
ATOM      1  F   UNL     1      -9.295  -7.079   5.188  0.00  0.00    -0.205 F 
ATOM     25  C   UNL     1      -6.682  -8.705   7.999  0.00  0.00    +0.030 A 
ATOM     26  C   UNL     1      -6.709  -9.171   6.663  0.00  0.00    +0.026 A 
ATOM     27  C   UNL     1      -7.578  -7.665   8.342  0.00  0.00    +0.026 A 
ATOM     29  C   UNL     1      -7.583  -8.626   5.722  0.00  0.00    +0.040 A 
ATOM     30  C   UNL     1      -8.452  -7.121   7.401  0.00  0.00    +0.040 A 
ATOM     31  C   UNL     1      -8.455  -7.601   6.092  0.00  0.00    +0.124 A 
ENDBRANCH   5  25
ENDBRANCH   7  13
TORSDOF 4
ENDMDL
