MODEL 1
REMARK VINA RESULT:      -7.7      0.000      0.000
REMARK  Name = 11885117
REMARK  4 active torsions:
REMARK  status: ('A' for Active; 'I' for Inactive)
REMARK    1  A    between atoms: O_4  and  C_28
REMARK    2  A    between atoms: O_4  and  C_29
REMARK    3  A    between atoms: C_16  and  C_19
REMARK    4  A    between atoms: C_17  and  C_20
REMARK                            x       y       z     vdW  Elec       q    Type
REMARK                         _______ _______ _______ _____ _____    ______ ____
ROOT
ATOM      2  O   UNL     1      15.125   6.130  21.594  0.00  0.00    -0.267 OA
ATOM      3  O   UNL     1      11.799   7.248  17.886  0.00  0.00    -0.269 OA
ATOM      5  N   UNL     1      11.670   8.987  19.447  0.00  0.00    -0.296 N 
ATOM      6  N   UNL     1      13.925   8.127  21.484  0.00  0.00    -0.311 N 
ATOM      7  C   UNL     1      11.384   8.227  21.796  0.00  0.00    +0.027 C 
ATOM      8  C   UNL     1      12.644  10.290  21.323  0.00  0.00    +0.054 C 
ATOM      9  C   UNL     1      11.640   9.650  22.282  0.00  0.00    +0.018 C 
ATOM     10  C   UNL     1      10.811   8.244  20.367  0.00  0.00    +0.113 C 
ATOM     11  C   UNL     1      12.693   7.433  21.885  0.00  0.00    +0.130 C 
ATOM     12  C   UNL     1      12.043  10.336  19.902  0.00  0.00    +0.117 C 
ATOM     13  C   UNL     1      13.946   9.512  21.297  0.00  0.00    +0.027 A 
ATOM     14  C   UNL     1      15.105  10.143  21.053  0.00  0.00    +0.022 A 
ATOM     15  C   UNL     1      15.095   7.348  21.403  0.00  0.00    +0.259 A 
ATOM     16  C   UNL     1      12.108   8.376  18.269  0.00  0.00    +0.253 C 
ATOM     17  C   UNL     1      16.371   8.076  21.080  0.00  0.00    +0.047 A 
ATOM     18  C   UNL     1      16.334   9.410  20.938  0.00  0.00    +0.015 A 
ENDROOT
BRANCH  17  20
ATOM     20  C   UNL     1      17.640   7.350  20.905  0.00  0.00    -0.012 A 
ATOM     22  C   UNL     1      17.734   6.325  19.963  0.00  0.00    +0.012 A 
ATOM     23  C   UNL     1      18.750   7.687  21.682  0.00  0.00    +0.012 A 
ATOM     26  C   UNL     1      18.936   5.637  19.798  0.00  0.00    +0.046 A 
ATOM     27  C   UNL     1      19.951   6.999  21.517  0.00  0.00    +0.046 A 
ATOM     28  C   UNL     1      20.044   5.974  20.575  0.00  0.00    +0.120 A 
BRANCH  28   4
ATOM      4  O   UNL     1      21.218   5.302  20.413  0.00  0.00    -0.495 OA
ATOM     29  C   UNL     1      21.505   4.263  21.348  0.00  0.00    +0.277 C 
ENDBRANCH  28   4
ENDBRANCH  17  20
BRANCH  16  19
ATOM      1  S   UNL     1      12.558   9.524  15.825  0.00  0.00    -0.092 S 
ATOM     19  C   UNL     1      13.040   9.117  17.413  0.00  0.00    +0.074 A 
ATOM     21  C   UNL     1      14.308   9.557  17.705  0.00  0.00    +0.021 A 
ATOM     24  C   UNL     1      14.897  10.244  16.604  0.00  0.00    +0.008 A 
ATOM     25  C   UNL     1      14.053  10.298  15.517  0.00  0.00    +0.046 A 
ENDBRANCH  16  19
TORSDOF 3
ENDMDL
MODEL 2
REMARK VINA RESULT:      -7.3      3.720      7.480
REMARK  Name = 11885117
REMARK  4 active torsions:
REMARK  status: ('A' for Active; 'I' for Inactive)
REMARK    1  A    between atoms: O_4  and  C_28
REMARK    2  A    between atoms: O_4  and  C_29
REMARK    3  A    between atoms: C_16  and  C_19
REMARK    4  A    between atoms: C_17  and  C_20
REMARK                            x       y       z     vdW  Elec       q    Type
REMARK                         _______ _______ _______ _____ _____    ______ ____
ROOT
ATOM      2  O   UNL     1      10.702   9.820  22.397  0.00  0.00    -0.267 OA
ATOM      3  O   UNL     1      14.854   6.918  21.760  0.00  0.00    -0.269 OA
ATOM      5  N   UNL     1      14.403   7.906  19.687  0.00  0.00    -0.296 N 
ATOM      6  N   UNL     1      11.946   9.747  20.425  0.00  0.00    -0.311 N 
ATOM      7  C   UNL     1      12.046   7.664  18.936  0.00  0.00    +0.027 C 
ATOM      8  C   UNL     1      13.326   9.676  18.320  0.00  0.00    +0.054 C 
ATOM      9  C   UNL     1      12.310   8.656  17.807  0.00  0.00    +0.018 C 
ATOM     10  C   UNL     1      13.351   6.953  19.340  0.00  0.00    +0.113 C 
ATOM     11  C   UNL     1      11.409   8.414  20.112  0.00  0.00    +0.130 C 
ATOM     12  C   UNL     1      14.642   8.956  18.684  0.00  0.00    +0.117 C 
ATOM     13  C   UNL     1      12.796  10.410  19.537  0.00  0.00    +0.027 A 
ATOM     14  C   UNL     1      13.176  11.674  19.783  0.00  0.00    +0.022 A 
ATOM     15  C   UNL     1      11.479  10.357  21.605  0.00  0.00    +0.259 A 
ATOM     16  C   UNL     1      15.051   7.795  20.920  0.00  0.00    +0.253 C 
ATOM     17  C   UNL     1      11.960  11.757  21.878  0.00  0.00    +0.047 A 
ATOM     18  C   UNL     1      12.755  12.352  20.975  0.00  0.00    +0.015 A 
ENDROOT
BRANCH  17  20
ATOM     20  C   UNL     1      11.588  12.463  23.115  0.00  0.00    -0.012 A 
ATOM     22  C   UNL     1      10.522  13.363  23.112  0.00  0.00    +0.012 A 
ATOM     23  C   UNL     1      12.304  12.234  24.291  0.00  0.00    +0.012 A 
ATOM     26  C   UNL     1      10.171  14.033  24.284  0.00  0.00    +0.046 A 
ATOM     27  C   UNL     1      11.952  12.904  25.463  0.00  0.00    +0.046 A 
ATOM     28  C   UNL     1      10.886  13.803  25.459  0.00  0.00    +0.120 A 
BRANCH  28   4
ATOM      4  O   UNL     1      10.543  14.457  26.603  0.00  0.00    -0.495 OA
ATOM     29  C   UNL     1      11.549  15.256  27.220  0.00  0.00    +0.277 C 
ENDBRANCH  28   4
ENDBRANCH  17  20
BRANCH  16  19
ATOM      1  S   UNL     1      17.701   8.450  21.128  0.00  0.00    -0.092 S 
ATOM     19  C   UNL     1      16.039   8.819  21.274  0.00  0.00    +0.074 A 
ATOM     21  C   UNL     1      15.824  10.098  21.730  0.00  0.00    +0.021 A 
ATOM     24  C   UNL     1      17.047  10.790  21.963  0.00  0.00    +0.008 A 
ATOM     25  C   UNL     1      18.146  10.010  21.677  0.00  0.00    +0.046 A 
ENDBRANCH  16  19
TORSDOF 3
ENDMDL
MODEL 3
REMARK VINA RESULT:      -7.2     26.066     28.323
REMARK  Name = 11885117
REMARK  4 active torsions:
REMARK  status: ('A' for Active; 'I' for Inactive)
REMARK    1  A    between atoms: O_4  and  C_28
REMARK    2  A    between atoms: O_4  and  C_29
REMARK    3  A    between atoms: C_16  and  C_19
REMARK    4  A    between atoms: C_17  and  C_20
REMARK                            x       y       z     vdW  Elec       q    Type
REMARK                         _______ _______ _______ _____ _____    ______ ____
ROOT
ATOM      2  O   UNL     1     -13.126  10.021  20.478  0.00  0.00    -0.267 OA
ATOM      3  O   UNL     1     -14.417  11.864  15.895  0.00  0.00    -0.269 OA
ATOM      5  N   UNL     1     -12.083  11.688  15.913  0.00  0.00    -0.296 N 
ATOM      6  N   UNL     1     -11.606  10.374  18.745  0.00  0.00    -0.311 N 
ATOM      7  C   UNL     1     -10.999  12.716  17.900  0.00  0.00    +0.027 C 
ATOM      8  C   UNL     1      -9.990  10.731  16.846  0.00  0.00    +0.054 C 
ATOM      9  C   UNL     1      -9.673  12.075  17.501  0.00  0.00    +0.018 C 
ATOM     10  C   UNL     1     -11.886  12.929  16.659  0.00  0.00    +0.113 C 
ATOM     11  C   UNL     1     -11.679  11.828  18.950  0.00  0.00    +0.130 C 
ATOM     12  C   UNL     1     -10.846  10.961  15.583  0.00  0.00    +0.117 C 
ATOM     13  C   UNL     1     -10.736   9.820  17.803  0.00  0.00    +0.027 A 
ATOM     14  C   UNL     1     -10.593   8.488  17.717  0.00  0.00    +0.022 A 
ATOM     15  C   UNL     1     -12.373   9.572  19.612  0.00  0.00    +0.259 A 
ATOM     16  C   UNL     1     -13.381  11.260  15.621  0.00  0.00    +0.253 C 
ATOM     17  C   UNL     1     -12.228   8.082  19.459  0.00  0.00    +0.047 A 
ATOM     18  C   UNL     1     -11.357   7.608  18.555  0.00  0.00    +0.015 A 
ENDROOT
BRANCH  17  20
ATOM     20  C   UNL     1     -13.033   7.151  20.267  0.00  0.00    -0.012 A 
ATOM     22  C   UNL     1     -14.415   7.086  20.089  0.00  0.00    +0.012 A 
ATOM     23  C   UNL     1     -12.413   6.333  21.214  0.00  0.00    +0.012 A 
ATOM     26  C   UNL     1     -15.177   6.204  20.856  0.00  0.00    +0.046 A 
ATOM     27  C   UNL     1     -13.175   5.452  21.980  0.00  0.00    +0.046 A 
ATOM     28  C   UNL     1     -14.557   5.388  21.801  0.00  0.00    +0.120 A 
BRANCH  28   4
ATOM      4  O   UNL     1     -15.301   4.527  22.549  0.00  0.00    -0.495 OA
ATOM     29  C   UNL     1     -14.957   4.401  23.927  0.00  0.00    +0.277 C 
ENDBRANCH  28   4
ENDBRANCH  17  20
BRANCH  16  19
ATOM      1  S   UNL     1     -13.613   9.924  13.242  0.00  0.00    -0.092 S 
ATOM     19  C   UNL     1     -13.546   9.967  14.949  0.00  0.00    +0.074 A 
ATOM     21  C   UNL     1     -13.661   8.718  15.510  0.00  0.00    +0.021 A 
ATOM     24  C   UNL     1     -13.807   7.704  14.520  0.00  0.00    +0.008 A 
ATOM     25  C   UNL     1     -13.797   8.222  13.244  0.00  0.00    +0.046 A 
ENDBRANCH  16  19
TORSDOF 3
ENDMDL
MODEL 4
REMARK VINA RESULT:      -7.1      2.090      2.747
REMARK  Name = 11885117
REMARK  4 active torsions:
REMARK  status: ('A' for Active; 'I' for Inactive)
REMARK    1  A    between atoms: O_4  and  C_28
REMARK    2  A    between atoms: O_4  and  C_29
REMARK    3  A    between atoms: C_16  and  C_19
REMARK    4  A    between atoms: C_17  and  C_20
REMARK                            x       y       z     vdW  Elec       q    Type
REMARK                         _______ _______ _______ _____ _____    ______ ____
ROOT
ATOM      2  O   UNL     1      15.852   6.203  18.585  0.00  0.00    -0.267 OA
ATOM      3  O   UNL     1      14.682  10.696  16.461  0.00  0.00    -0.269 OA
ATOM      5  N   UNL     1      13.186  10.384  18.232  0.00  0.00    -0.296 N 
ATOM      6  N   UNL     1      14.253   7.669  19.443  0.00  0.00    -0.311 N 
ATOM      7  C   UNL     1      12.052   8.171  18.230  0.00  0.00    +0.027 C 
ATOM      8  C   UNL     1      12.556   9.284  20.368  0.00  0.00    +0.054 C 
ATOM      9  C   UNL     1      11.509   8.453  19.627  0.00  0.00    +0.018 C 
ATOM     10  C   UNL     1      12.309   9.490  17.478  0.00  0.00    +0.113 C 
ATOM     11  C   UNL     1      13.323   7.322  18.357  0.00  0.00    +0.130 C 
ATOM     12  C   UNL     1      12.776  10.620  19.626  0.00  0.00    +0.117 C 
ATOM     13  C   UNL     1      13.873   8.539  20.468  0.00  0.00    +0.027 A 
ATOM     14  C   UNL     1      14.690   8.746  21.514  0.00  0.00    +0.022 A 
ATOM     15  C   UNL     1      15.494   7.003  19.452  0.00  0.00    +0.259 A 
ATOM     16  C   UNL     1      14.337  10.891  17.625  0.00  0.00    +0.253 C 
ATOM     17  C   UNL     1      16.407   7.292  20.613  0.00  0.00    +0.047 A 
ATOM     18  C   UNL     1      15.977   8.116  21.581  0.00  0.00    +0.015 A 
ENDROOT
BRANCH  17  20
ATOM     20  C   UNL     1      17.754   6.703  20.688  0.00  0.00    -0.012 A 
ATOM     22  C   UNL     1      18.100   5.641  19.852  0.00  0.00    +0.012 A 
ATOM     23  C   UNL     1      18.686   7.207  21.597  0.00  0.00    +0.012 A 
ATOM     26  C   UNL     1      19.376   5.083  19.924  0.00  0.00    +0.046 A 
ATOM     27  C   UNL     1      19.962   6.648  21.669  0.00  0.00    +0.046 A 
ATOM     28  C   UNL     1      20.306   5.586  20.833  0.00  0.00    +0.120 A 
BRANCH  28   4
ATOM      4  O   UNL     1      21.552   5.041  20.903  0.00  0.00    -0.495 OA
ATOM     29  C   UNL     1      21.636   3.652  21.214  0.00  0.00    +0.277 C 
ENDBRANCH  28   4
ENDBRANCH  17  20
BRANCH  16  19
ATOM      1  S   UNL     1      15.156  13.414  18.304  0.00  0.00    -0.092 S 
ATOM     19  C   UNL     1      15.240  11.712  18.438  0.00  0.00    +0.074 A 
ATOM     21  C   UNL     1      16.194  11.304  19.339  0.00  0.00    +0.021 A 
ATOM     24  C   UNL     1      16.871  12.408  19.932  0.00  0.00    +0.008 A 
ATOM     25  C   UNL     1      16.405  13.615  19.459  0.00  0.00    +0.046 A 
ENDBRANCH  16  19
TORSDOF 3
ENDMDL
MODEL 5
REMARK VINA RESULT:      -7.1      2.959      6.464
REMARK  Name = 11885117
REMARK  4 active torsions:
REMARK  status: ('A' for Active; 'I' for Inactive)
REMARK    1  A    between atoms: O_4  and  C_28
REMARK    2  A    between atoms: O_4  and  C_29
REMARK    3  A    between atoms: C_16  and  C_19
REMARK    4  A    between atoms: C_17  and  C_20
REMARK                            x       y       z     vdW  Elec       q    Type
REMARK                         _______ _______ _______ _____ _____    ______ ____
ROOT
ATOM      2  O   UNL     1      13.478  11.922  18.478  0.00  0.00    -0.267 OA
ATOM      3  O   UNL     1      15.618   9.055  22.120  0.00  0.00    -0.269 OA
ATOM      5  N   UNL     1      13.658   7.955  21.467  0.00  0.00    -0.296 N 
ATOM      6  N   UNL     1      12.673   9.831  19.125  0.00  0.00    -0.311 N 
ATOM      7  C   UNL     1      11.640   9.405  21.431  0.00  0.00    +0.027 C 
ATOM      8  C   UNL     1      11.845   7.555  19.818  0.00  0.00    +0.054 C 
ATOM      9  C   UNL     1      10.863   8.299  20.724  0.00  0.00    +0.018 C 
ATOM     10  C   UNL     1      12.783   8.806  22.271  0.00  0.00    +0.113 C 
ATOM     11  C   UNL     1      12.154  10.396  20.379  0.00  0.00    +0.130 C 
ATOM     12  C   UNL     1      12.964   6.926  20.676  0.00  0.00    +0.117 C 
ATOM     13  C   UNL     1      12.458   8.490  18.794  0.00  0.00    +0.027 A 
ATOM     14  C   UNL     1      12.831   8.024  17.591  0.00  0.00    +0.022 A 
ATOM     15  C   UNL     1      13.299  10.726  18.237  0.00  0.00    +0.259 A 
ATOM     16  C   UNL     1      15.034   8.196  21.460  0.00  0.00    +0.253 C 
ATOM     17  C   UNL     1      13.750  10.163  16.916  0.00  0.00    +0.047 A 
ATOM     18  C   UNL     1      13.492   8.875  16.643  0.00  0.00    +0.015 A 
ENDROOT
BRANCH  17  20
ATOM     20  C   UNL     1      14.475  10.994  15.941  0.00  0.00    -0.012 A 
ATOM     22  C   UNL     1      13.855  11.377  14.751  0.00  0.00    +0.012 A 
ATOM     23  C   UNL     1      15.785  11.398  16.206  0.00  0.00    +0.012 A 
ATOM     26  C   UNL     1      14.543  12.164  13.827  0.00  0.00    +0.046 A 
ATOM     27  C   UNL     1      16.473  12.184  15.282  0.00  0.00    +0.046 A 
ATOM     28  C   UNL     1      15.851  12.567  14.093  0.00  0.00    +0.120 A 
BRANCH  28   4
ATOM      4  O   UNL     1      16.523  13.335  13.191  0.00  0.00    -0.495 OA
ATOM     29  C   UNL     1      16.806  12.748  11.922  0.00  0.00    +0.277 C 
ENDBRANCH  28   4
ENDBRANCH  17  20
BRANCH  16  19
ATOM      1  S   UNL     1      17.466   7.001  21.063  0.00  0.00    -0.092 S 
ATOM     19  C   UNL     1      15.873   7.381  20.574  0.00  0.00    +0.074 A 
ATOM     21  C   UNL     1      15.560   6.848  19.348  0.00  0.00    +0.021 A 
ATOM     24  C   UNL     1      16.647   6.112  18.797  0.00  0.00    +0.008 A 
ATOM     25  C   UNL     1      17.747   6.114  19.626  0.00  0.00    +0.046 A 
ENDBRANCH  16  19
TORSDOF 3
ENDMDL
MODEL 6
REMARK VINA RESULT:      -7.0     17.262     20.380
REMARK  Name = 11885117
REMARK  4 active torsions:
REMARK  status: ('A' for Active; 'I' for Inactive)
REMARK    1  A    between atoms: O_4  and  C_28
REMARK    2  A    between atoms: O_4  and  C_29
REMARK    3  A    between atoms: C_16  and  C_19
REMARK    4  A    between atoms: C_17  and  C_20
REMARK                            x       y       z     vdW  Elec       q    Type
REMARK                         _______ _______ _______ _____ _____    ______ ____
ROOT
ATOM      2  O   UNL     1      12.307   7.647   3.019  0.00  0.00    -0.267 OA
ATOM      3  O   UNL     1      13.454   6.720  -1.869  0.00  0.00    -0.269 OA
ATOM      5  N   UNL     1      13.691   4.690  -0.729  0.00  0.00    -0.296 N 
ATOM      6  N   UNL     1      12.755   5.521   2.170  0.00  0.00    -0.311 N 
ATOM      7  C   UNL     1      15.076   4.834   1.330  0.00  0.00    +0.027 C 
ATOM      8  C   UNL     1      13.208   3.232   1.222  0.00  0.00    +0.054 C 
ATOM      9  C   UNL     1      14.643   3.422   1.714  0.00  0.00    +0.018 C 
ATOM     10  C   UNL     1      15.012   5.017  -0.198  0.00  0.00    +0.113 C 
ATOM     11  C   UNL     1      14.187   5.841   2.070  0.00  0.00    +0.130 C 
ATOM     12  C   UNL     1      13.164   3.380  -0.314  0.00  0.00    +0.117 C 
ATOM     13  C   UNL     1      12.275   4.247   1.855  0.00  0.00    +0.027 A 
ATOM     14  C   UNL     1      10.987   3.939   2.070  0.00  0.00    +0.022 A 
ATOM     15  C   UNL     1      11.917   6.523   2.697  0.00  0.00    +0.259 A 
ATOM     16  C   UNL     1      13.017   5.624  -1.520  0.00  0.00    +0.253 C 
ATOM     17  C   UNL     1      10.467   6.162   2.882  0.00  0.00    +0.047 A 
ATOM     18  C   UNL     1      10.071   4.915   2.586  0.00  0.00    +0.015 A 
ENDROOT
BRANCH  17  20
ATOM     20  C   UNL     1       9.491   7.154   3.361  0.00  0.00    -0.012 A 
ATOM     22  C   UNL     1       8.847   7.997   2.454  0.00  0.00    +0.012 A 
ATOM     23  C   UNL     1       9.208   7.253   4.725  0.00  0.00    +0.012 A 
ATOM     26  C   UNL     1       7.922   8.937   2.908  0.00  0.00    +0.046 A 
ATOM     27  C   UNL     1       8.284   8.193   5.179  0.00  0.00    +0.046 A 
ATOM     28  C   UNL     1       7.641   9.035   4.270  0.00  0.00    +0.120 A 
BRANCH  28   4
ATOM      4  O   UNL     1       6.738   9.952   4.714  0.00  0.00    -0.495 OA
ATOM     29  C   UNL     1       5.700  10.330   3.812  0.00  0.00    +0.277 C 
ENDBRANCH  28   4
ENDBRANCH  17  20
BRANCH  16  19
ATOM      1  S   UNL     1      11.443   4.506  -3.461  0.00  0.00    -0.092 S 
ATOM     19  C   UNL     1      11.657   5.300  -1.963  0.00  0.00    +0.074 A 
ATOM     21  C   UNL     1      10.465   5.549  -1.326  0.00  0.00    +0.021 A 
ATOM     24  C   UNL     1       9.352   5.078  -2.081  0.00  0.00    +0.008 A 
ATOM     25  C   UNL     1       9.742   4.490  -3.264  0.00  0.00    +0.046 A 
ENDBRANCH  16  19
TORSDOF 3
ENDMDL
MODEL 7
REMARK VINA RESULT:      -6.8      4.721     10.014
REMARK  Name = 11885117
REMARK  4 active torsions:
REMARK  status: ('A' for Active; 'I' for Inactive)
REMARK    1  A    between atoms: O_4  and  C_28
REMARK    2  A    between atoms: O_4  and  C_29
REMARK    3  A    between atoms: C_16  and  C_19
REMARK    4  A    between atoms: C_17  and  C_20
REMARK                            x       y       z     vdW  Elec       q    Type
REMARK                         _______ _______ _______ _____ _____    ______ ____
ROOT
ATOM      2  O   UNL     1      20.004   3.703  20.473  0.00  0.00    -0.267 OA
ATOM      3  O   UNL     1      22.485   3.569  24.934  0.00  0.00    -0.269 OA
ATOM      5  N   UNL     1      23.920   4.601  23.400  0.00  0.00    -0.296 N 
ATOM      6  N   UNL     1      22.078   4.705  20.837  0.00  0.00    -0.311 N 
ATOM      7  C   UNL     1      24.207   3.348  21.272  0.00  0.00    +0.027 C 
ATOM      8  C   UNL     1      24.301   5.809  21.264  0.00  0.00    +0.054 C 
ATOM      9  C   UNL     1      24.929   4.549  20.669  0.00  0.00    +0.018 C 
ATOM     10  C   UNL     1      24.365   3.343  22.804  0.00  0.00    +0.113 C 
ATOM     11  C   UNL     1      22.736   3.390  20.843  0.00  0.00    +0.130 C 
ATOM     12  C   UNL     1      24.500   5.811  22.795  0.00  0.00    +0.117 C 
ATOM     13  C   UNL     1      22.820   5.884  20.947  0.00  0.00    +0.027 A 
ATOM     14  C   UNL     1      22.217   7.076  20.815  0.00  0.00    +0.022 A 
ATOM     15  C   UNL     1      20.689   4.719  20.610  0.00  0.00    +0.259 A 
ATOM     16  C   UNL     1      22.971   4.578  24.426  0.00  0.00    +0.253 C 
ATOM     17  C   UNL     1      20.032   6.070  20.514  0.00  0.00    +0.047 A 
ATOM     18  C   UNL     1      20.800   7.166  20.601  0.00  0.00    +0.015 A 
ENDROOT
BRANCH  17  20
ATOM     20  C   UNL     1      18.575   6.199  20.346  0.00  0.00    -0.012 A 
ATOM     22  C   UNL     1      17.979   5.859  19.131  0.00  0.00    +0.012 A 
ATOM     23  C   UNL     1      17.790   6.664  21.402  0.00  0.00    +0.012 A 
ATOM     26  C   UNL     1      16.599   5.983  18.972  0.00  0.00    +0.046 A 
ATOM     27  C   UNL     1      16.410   6.789  21.243  0.00  0.00    +0.046 A 
ATOM     28  C   UNL     1      15.815   6.448  20.028  0.00  0.00    +0.120 A 
BRANCH  28   4
ATOM      4  O   UNL     1      14.468   6.568  19.873  0.00  0.00    -0.495 OA
ATOM     29  C   UNL     1      14.009   7.373  18.788  0.00  0.00    +0.277 C 
ENDBRANCH  28   4
ENDBRANCH  17  20
BRANCH  16  19
ATOM      1  S   UNL     1      23.235   6.544  26.313  0.00  0.00    -0.092 S 
ATOM     19  C   UNL     1      22.481   5.861  24.940  0.00  0.00    +0.074 A 
ATOM     21  C   UNL     1      21.455   6.640  24.464  0.00  0.00    +0.021 A 
ATOM     24  C   UNL     1      21.283   7.823  25.240  0.00  0.00    +0.008 A 
ATOM     25  C   UNL     1      22.186   7.896  26.277  0.00  0.00    +0.046 A 
ENDBRANCH  16  19
TORSDOF 3
ENDMDL
MODEL 8
REMARK VINA RESULT:      -6.7      3.458      6.764
REMARK  Name = 11885117
REMARK  4 active torsions:
REMARK  status: ('A' for Active; 'I' for Inactive)
REMARK    1  A    between atoms: O_4  and  C_28
REMARK    2  A    between atoms: O_4  and  C_29
REMARK    3  A    between atoms: C_16  and  C_19
REMARK    4  A    between atoms: C_17  and  C_20
REMARK                            x       y       z     vdW  Elec       q    Type
REMARK                         _______ _______ _______ _____ _____    ______ ____
ROOT
ATOM      2  O   UNL     1      14.165   9.613  16.633  0.00  0.00    -0.267 OA
ATOM      3  O   UNL     1      10.640   8.658  20.200  0.00  0.00    -0.269 OA
ATOM      5  N   UNL     1      12.713   8.134  21.150  0.00  0.00    -0.296 N 
ATOM      6  N   UNL     1      14.669   8.985  18.821  0.00  0.00    -0.311 N 
ATOM      7  C   UNL     1      14.133   6.655  19.744  0.00  0.00    +0.027 C 
ATOM      8  C   UNL     1      15.188   8.339  21.200  0.00  0.00    +0.054 C 
ATOM      9  C   UNL     1      15.312   6.908  20.679  0.00  0.00    +0.018 C 
ATOM     10  C   UNL     1      12.803   6.828  20.501  0.00  0.00    +0.113 C 
ATOM     11  C   UNL     1      14.243   7.605  18.545  0.00  0.00    +0.130 C 
ATOM     12  C   UNL     1      13.870   8.488  21.989  0.00  0.00    +0.117 C 
ATOM     13  C   UNL     1      15.210   9.339  20.060  0.00  0.00    +0.027 A 
ATOM     14  C   UNL     1      15.707  10.571  20.251  0.00  0.00    +0.022 A 
ATOM     15  C   UNL     1      14.603   9.896  17.750  0.00  0.00    +0.259 A 
ATOM     16  C   UNL     1      11.608   8.951  20.901  0.00  0.00    +0.253 C 
ATOM     17  C   UNL     1      15.124  11.283  18.009  0.00  0.00    +0.047 A 
ATOM     18  C   UNL     1      15.657  11.557  19.210  0.00  0.00    +0.015 A 
ENDROOT
BRANCH  17  20
ATOM     20  C   UNL     1      15.042  12.334  16.981  0.00  0.00    -0.012 A 
ATOM     22  C   UNL     1      15.941  12.339  15.914  0.00  0.00    +0.012 A 
ATOM     23  C   UNL     1      14.064  13.325  17.073  0.00  0.00    +0.012 A 
ATOM     26  C   UNL     1      15.863  13.335  14.940  0.00  0.00    +0.046 A 
ATOM     27  C   UNL     1      13.986  14.321  16.100  0.00  0.00    +0.046 A 
ATOM     28  C   UNL     1      14.886  14.325  15.033  0.00  0.00    +0.120 A 
BRANCH  28   4
ATOM      4  O   UNL     1      14.810  15.297  14.083  0.00  0.00    -0.495 OA
ATOM     29  C   UNL     1      15.455  15.039  12.837  0.00  0.00    +0.277 C 
ENDBRANCH  28   4
ENDBRANCH  17  20
BRANCH  16  19
ATOM      1  S   UNL     1      10.923  10.493  23.057  0.00  0.00    -0.092 S 
ATOM     19  C   UNL     1      11.592  10.291  21.497  0.00  0.00    +0.074 A 
ATOM     21  C   UNL     1      12.057  11.471  20.969  0.00  0.00    +0.021 A 
ATOM     24  C   UNL     1      11.861  12.564  21.861  0.00  0.00    +0.008 A 
ATOM     25  C   UNL     1      11.254  12.173  23.034  0.00  0.00    +0.046 A 
ENDBRANCH  16  19
TORSDOF 3
ENDMDL
MODEL 9
REMARK VINA RESULT:      -6.7     27.241     29.976
REMARK  Name = 11885117
REMARK  4 active torsions:
REMARK  status: ('A' for Active; 'I' for Inactive)
REMARK    1  A    between atoms: O_4  and  C_28
REMARK    2  A    between atoms: O_4  and  C_29
REMARK    3  A    between atoms: C_16  and  C_19
REMARK    4  A    between atoms: C_17  and  C_20
REMARK                            x       y       z     vdW  Elec       q    Type
REMARK                         _______ _______ _______ _____ _____    ______ ____
ROOT
ATOM      2  O   UNL     1      -6.140 -13.496  16.084  0.00  0.00    -0.267 OA
ATOM      3  O   UNL     1     -11.031 -12.033  16.017  0.00  0.00    -0.269 OA
ATOM      5  N   UNL     1     -10.406 -12.178  18.267  0.00  0.00    -0.296 N 
ATOM      6  N   UNL     1      -7.346 -12.907  17.991  0.00  0.00    -0.311 N 
ATOM      7  C   UNL     1      -9.293 -14.316  18.879  0.00  0.00    +0.027 C 
ATOM      8  C   UNL     1      -8.660 -12.233  20.032  0.00  0.00    +0.054 C 
ATOM      9  C   UNL     1      -8.918 -13.726  20.235  0.00  0.00    +0.018 C 
ATOM     10  C   UNL     1     -10.558 -13.631  18.329  0.00  0.00    +0.113 C 
ATOM     11  C   UNL     1      -8.098 -14.169  17.930  0.00  0.00    +0.130 C 
ATOM     12  C   UNL     1      -9.946 -11.552  19.517  0.00  0.00    +0.117 C 
ATOM     13  C   UNL     1      -7.535 -12.004  19.041  0.00  0.00    +0.027 A 
ATOM     14  C   UNL     1      -6.752 -10.918  19.146  0.00  0.00    +0.022 A 
ATOM     15  C   UNL     1      -6.360 -12.707  17.006  0.00  0.00    +0.259 A 
ATOM     16  C   UNL     1     -10.646 -11.512  17.063  0.00  0.00    +0.253 C 
ATOM     17  C   UNL     1      -5.531 -11.457  17.123  0.00  0.00    +0.047 A 
ATOM     18  C   UNL     1      -5.740 -10.641  18.167  0.00  0.00    +0.015 A 
ENDROOT
BRANCH  17  20
ATOM     20  C   UNL     1      -4.519 -11.116  16.109  0.00  0.00    -0.012 A 
ATOM     22  C   UNL     1      -4.901 -10.907  14.783  0.00  0.00    +0.012 A 
ATOM     23  C   UNL     1      -3.177 -11.001  16.475  0.00  0.00    +0.012 A 
ATOM     26  C   UNL     1      -3.941 -10.585  13.823  0.00  0.00    +0.046 A 
ATOM     27  C   UNL     1      -2.218 -10.679  15.515  0.00  0.00    +0.046 A 
ATOM     28  C   UNL     1      -2.601 -10.471  14.189  0.00  0.00    +0.120 A 
BRANCH  28   4
ATOM      4  O   UNL     1      -1.665 -10.155  13.252  0.00  0.00    -0.495 OA
ATOM     29  C   UNL     1      -2.039 -10.307  11.884  0.00  0.00    +0.277 C 
ENDBRANCH  28   4
ENDBRANCH  17  20
BRANCH  16  19
ATOM      1  S   UNL     1     -11.695  -8.996  17.311  0.00  0.00    -0.092 S 
ATOM     19  C   UNL     1     -10.398 -10.068  17.013  0.00  0.00    +0.074 A 
ATOM     21  C   UNL     1      -9.223  -9.407  16.749  0.00  0.00    +0.021 A 
ATOM     24  C   UNL     1      -9.388  -7.993  16.793  0.00  0.00    +0.008 A 
ATOM     25  C   UNL     1     -10.684  -7.633  17.088  0.00  0.00    +0.046 A 
ENDBRANCH  16  19
TORSDOF 3
ENDMDL
MODEL 10
REMARK VINA RESULT:      -6.6     26.869     29.774
REMARK  Name = 11885117
REMARK  4 active torsions:
REMARK  status: ('A' for Active; 'I' for Inactive)
REMARK    1  A    between atoms: O_4  and  C_28
REMARK    2  A    between atoms: O_4  and  C_29
REMARK    3  A    between atoms: C_16  and  C_19
REMARK    4  A    between atoms: C_17  and  C_20
REMARK                            x       y       z     vdW  Elec       q    Type
REMARK                         _______ _______ _______ _____ _____    ______ ____
ROOT
ATOM      2  O   UNL     1      -6.716 -10.030  14.065  0.00  0.00    -0.267 OA
ATOM      3  O   UNL     1      -4.619 -14.399  12.459  0.00  0.00    -0.269 OA
ATOM      5  N   UNL     1      -2.863 -13.054  13.222  0.00  0.00    -0.296 N 
ATOM      6  N   UNL     1      -4.455 -10.548  14.300  0.00  0.00    -0.311 N 
ATOM      7  C   UNL     1      -2.871 -10.747  12.295  0.00  0.00    +0.027 C 
ATOM      8  C   UNL     1      -2.024 -11.147  14.573  0.00  0.00    +0.054 C 
ATOM      9  C   UNL     1      -1.786 -10.349  13.292  0.00  0.00    +0.018 C 
ATOM     10  C   UNL     1      -2.798 -12.256  11.999  0.00  0.00    +0.113 C 
ATOM     11  C   UNL     1      -4.235 -10.334  12.862  0.00  0.00    +0.130 C 
ATOM     12  C   UNL     1      -1.909 -12.656  14.270  0.00  0.00    +0.117 C 
ATOM     13  C   UNL     1      -3.392 -10.850  15.156  0.00  0.00    +0.027 A 
ATOM     14  C   UNL     1      -3.592 -10.920  16.481  0.00  0.00    +0.022 A 
ATOM     15  C   UNL     1      -5.760 -10.331  14.782  0.00  0.00    +0.259 A 
ATOM     16  C   UNL     1      -3.821 -14.064  13.333  0.00  0.00    +0.253 C 
ATOM     17  C   UNL     1      -5.963 -10.462  16.267  0.00  0.00    +0.047 A 
ATOM     18  C   UNL     1      -4.900 -10.728  17.041  0.00  0.00    +0.015 A 
ENDROOT
BRANCH  17  20
ATOM     20  C   UNL     1      -7.299 -10.322  16.869  0.00  0.00    -0.012 A 
ATOM     22  C   UNL     1      -7.884  -9.061  16.987  0.00  0.00    +0.012 A 
ATOM     23  C   UNL     1      -7.981 -11.452  17.324  0.00  0.00    +0.012 A 
ATOM     26  C   UNL     1      -9.149  -8.928  17.558  0.00  0.00    +0.046 A 
ATOM     27  C   UNL     1      -9.246 -11.319  17.896  0.00  0.00    +0.046 A 
ATOM     28  C   UNL     1      -9.830 -10.057  18.013  0.00  0.00    +0.120 A 
BRANCH  28   4
ATOM      4  O   UNL     1     -11.065  -9.928  18.570  0.00  0.00    -0.495 OA
ATOM     29  C   UNL     1     -11.170 -10.154  19.975  0.00  0.00    +0.277 C 
ENDBRANCH  28   4
ENDBRANCH  17  20
BRANCH  16  19
ATOM      1  S   UNL     1      -2.999 -16.210  14.821  0.00  0.00    -0.092 S 
ATOM     19  C   UNL     1      -3.917 -14.785  14.607  0.00  0.00    +0.074 A 
ATOM     21  C   UNL     1      -4.672 -14.477  15.713  0.00  0.00    +0.021 A 
ATOM     24  C   UNL     1      -4.493 -15.427  16.759  0.00  0.00    +0.008 A 
ATOM     25  C   UNL     1      -3.609 -16.423  16.406  0.00  0.00    +0.046 A 
ENDBRANCH  16  19
TORSDOF 3
ENDMDL
