MODEL 1
REMARK VINA RESULT:      -6.1      0.000      0.000
REMARK  Name = 75368572
REMARK  3 active torsions:
REMARK  status: ('A' for Active; 'I' for Inactive)
REMARK    1  A    between atoms: N_3  and  C_11
REMARK    2  A    between atoms: C_11  and  C_13
REMARK    3  A    between atoms: C_11  and  C_14
REMARK                            x       y       z     vdW  Elec       q    Type
REMARK                         _______ _______ _______ _____ _____    ______ ____
ROOT
ATOM      1  O   UNL     1      17.119   9.437  21.848  0.00  0.00    -0.252 OA
ATOM      2  N   UNL     1      15.128   8.597  20.974  0.00  0.00    -0.278 N 
ATOM      3  N   UNL     1      12.387   7.986  20.800  0.00  0.00    -0.297 NA
ATOM      4  N   UNL     1      16.994   7.348  20.687  0.00  0.00    -0.238 N 
ATOM      5  N   UNL     1      19.283   7.635  21.299  0.00  0.00    -0.240 NA
ATOM      6  C   UNL     1      14.705   7.511  20.125  0.00  0.00    +0.109 C 
ATOM      7  C   UNL     1      13.390   6.916  20.628  0.00  0.00    +0.108 C 
ATOM      8  C   UNL     1      15.892   6.557  20.149  0.00  0.00    +0.140 C 
ATOM      9  C   UNL     1      14.174   9.627  21.331  0.00  0.00    +0.125 C 
ATOM     10  C   UNL     1      12.854   8.993  21.774  0.00  0.00    +0.103 C 
ATOM     12  C   UNL     1      16.507   8.568  21.241  0.00  0.00    +0.311 C 
ATOM     15  C   UNL     1      18.338   6.874  20.703  0.00  0.00    +0.129 A 
ATOM     16  C   UNL     1      18.592   5.651  20.103  0.00  0.00    +0.044 A 
ATOM     17  C   UNL     1      19.900   5.179  20.113  0.00  0.00    +0.005 A 
ATOM     18  C   UNL     1      20.543   7.143  21.290  0.00  0.00    +0.113 A 
ATOM     19  C   UNL     1      20.899   5.934  20.717  0.00  0.00    +0.020 A 
ENDROOT
BRANCH   3  11
ATOM     11  C   UNL     1      11.106   7.421  21.225  0.00  0.00    +0.051 C 
ATOM     13  C   UNL     1      11.275   5.930  21.498  0.00  0.00    +0.024 C 
ATOM     14  C   UNL     1      10.591   8.151  22.463  0.00  0.00    +0.024 C 
ENDBRANCH   3  11
TORSDOF 1
ENDMDL
MODEL 2
REMARK VINA RESULT:      -5.8     31.919     32.731
REMARK  Name = 75368572
REMARK  3 active torsions:
REMARK  status: ('A' for Active; 'I' for Inactive)
REMARK    1  A    between atoms: N_3  and  C_11
REMARK    2  A    between atoms: C_11  and  C_13
REMARK    3  A    between atoms: C_11  and  C_14
REMARK                            x       y       z     vdW  Elec       q    Type
REMARK                         _______ _______ _______ _____ _____    ______ ____
ROOT
ATOM      1  O   UNL     1     -14.121   4.285  35.668  0.00  0.00    -0.252 OA
ATOM      2  N   UNL     1     -14.810   3.917  33.472  0.00  0.00    -0.278 N 
ATOM      3  N   UNL     1     -15.233   2.558  31.045  0.00  0.00    -0.297 NA
ATOM      4  N   UNL     1     -13.929   5.946  33.955  0.00  0.00    -0.238 N 
ATOM      5  N   UNL     1     -13.077   6.943  35.949  0.00  0.00    -0.240 NA
ATOM      6  C   UNL     1     -14.988   4.682  32.263  0.00  0.00    +0.109 C 
ATOM      7  C   UNL     1     -14.554   3.869  31.044  0.00  0.00    +0.108 C 
ATOM      8  C   UNL     1     -14.174   5.944  32.516  0.00  0.00    +0.140 C 
ATOM      9  C   UNL     1     -15.308   2.557  33.528  0.00  0.00    +0.125 C 
ATOM     10  C   UNL     1     -14.900   1.795  32.265  0.00  0.00    +0.103 C 
ATOM     12  C   UNL     1     -14.268   4.681  34.519  0.00  0.00    +0.311 C 
ATOM     15  C   UNL     1     -13.350   7.059  34.630  0.00  0.00    +0.129 A 
ATOM     16  C   UNL     1     -13.100   8.200  33.884  0.00  0.00    +0.044 A 
ATOM     17  C   UNL     1     -12.535   9.292  34.533  0.00  0.00    +0.005 A 
ATOM     18  C   UNL     1     -12.529   8.026  36.546  0.00  0.00    +0.113 A 
ATOM     19  C   UNL     1     -12.241   9.211  35.889  0.00  0.00    +0.020 A 
ENDROOT
BRANCH   3  11
ATOM     11  C   UNL     1     -14.869   1.794  29.851  0.00  0.00    +0.051 C 
ATOM     13  C   UNL     1     -13.786   0.781  30.208  0.00  0.00    +0.024 C 
ATOM     14  C   UNL     1     -16.099   1.101  29.272  0.00  0.00    +0.024 C 
ENDBRANCH   3  11
TORSDOF 1
ENDMDL
MODEL 3
REMARK VINA RESULT:      -5.7     28.092     28.703
REMARK  Name = 75368572
REMARK  3 active torsions:
REMARK  status: ('A' for Active; 'I' for Inactive)
REMARK    1  A    between atoms: N_3  and  C_11
REMARK    2  A    between atoms: C_11  and  C_13
REMARK    3  A    between atoms: C_11  and  C_14
REMARK                            x       y       z     vdW  Elec       q    Type
REMARK                         _______ _______ _______ _____ _____    ______ ____
ROOT
ATOM      1  O   UNL     1      -7.453  -9.544  13.332  0.00  0.00    -0.252 OA
ATOM      2  N   UNL     1      -6.283 -10.665  15.009  0.00  0.00    -0.278 N 
ATOM      3  N   UNL     1      -5.433 -11.369  17.597  0.00  0.00    -0.297 NA
ATOM      4  N   UNL     1      -5.154 -10.172  13.109  0.00  0.00    -0.238 N 
ATOM      5  N   UNL     1      -5.751  -9.093  11.066  0.00  0.00    -0.240 NA
ATOM      6  C   UNL     1      -5.005 -11.311  15.174  0.00  0.00    +0.109 C 
ATOM      7  C   UNL     1      -4.435 -11.027  16.563  0.00  0.00    +0.108 C 
ATOM      8  C   UNL     1      -4.178 -10.766  14.017  0.00  0.00    +0.140 C 
ATOM      9  C   UNL     1      -7.288 -10.811  16.042  0.00  0.00    +0.125 C 
ATOM     10  C   UNL     1      -6.665 -10.575  17.420  0.00  0.00    +0.103 C 
ATOM     12  C   UNL     1      -6.424 -10.063  13.747  0.00  0.00    +0.311 C 
ATOM     15  C   UNL     1      -4.804  -9.710  11.807  0.00  0.00    +0.129 A 
ATOM     16  C   UNL     1      -3.502  -9.921  11.382  0.00  0.00    +0.044 A 
ATOM     17  C   UNL     1      -3.150  -9.473  10.114  0.00  0.00    +0.005 A 
ATOM     18  C   UNL     1      -5.372  -8.671   9.838  0.00  0.00    +0.113 A 
ATOM     19  C   UNL     1      -4.097  -8.834   9.322  0.00  0.00    +0.020 A 
ENDROOT
BRANCH   3  11
ATOM     11  C   UNL     1      -4.877 -11.156  18.933  0.00  0.00    +0.051 C 
ATOM     13  C   UNL     1      -6.011 -11.102  19.951  0.00  0.00    +0.024 C 
ATOM     14  C   UNL     1      -3.884 -12.262  19.276  0.00  0.00    +0.024 C 
ENDBRANCH   3  11
TORSDOF 1
ENDMDL
MODEL 4
REMARK VINA RESULT:      -5.7     26.924     28.577
REMARK  Name = 75368572
REMARK  3 active torsions:
REMARK  status: ('A' for Active; 'I' for Inactive)
REMARK    1  A    between atoms: N_3  and  C_11
REMARK    2  A    between atoms: C_11  and  C_13
REMARK    3  A    between atoms: C_11  and  C_14
REMARK                            x       y       z     vdW  Elec       q    Type
REMARK                         _______ _______ _______ _____ _____    ______ ____
ROOT
ATOM      1  O   UNL     1      -2.902 -10.911  16.584  0.00  0.00    -0.252 OA
ATOM      2  N   UNL     1      -5.139 -10.634  17.175  0.00  0.00    -0.278 N 
ATOM      3  N   UNL     1      -7.568 -11.052  18.534  0.00  0.00    -0.297 NA
ATOM      4  N   UNL     1      -4.623 -10.486  14.976  0.00  0.00    -0.238 N 
ATOM      5  N   UNL     1      -2.586 -10.645  13.744  0.00  0.00    -0.240 NA
ATOM      6  C   UNL     1      -6.372 -10.234  16.545  0.00  0.00    +0.109 C 
ATOM      7  C   UNL     1      -7.538 -11.079  17.058  0.00  0.00    +0.108 C 
ATOM      8  C   UNL     1      -6.077 -10.383  15.058  0.00  0.00    +0.140 C 
ATOM      9  C   UNL     1      -5.099 -10.787  18.616  0.00  0.00    +0.125 C 
ATOM     10  C   UNL     1      -6.311 -11.589  19.095  0.00  0.00    +0.103 C 
ATOM     12  C   UNL     1      -4.066 -10.697  16.271  0.00  0.00    +0.311 C 
ATOM     15  C   UNL     1      -3.924 -10.456  13.735  0.00  0.00    +0.129 A 
ATOM     16  C   UNL     1      -4.668 -10.235  12.587  0.00  0.00    +0.044 A 
ATOM     17  C   UNL     1      -3.996 -10.204  11.370  0.00  0.00    +0.005 A 
ATOM     18  C   UNL     1      -1.966 -10.609  12.543  0.00  0.00    +0.113 A 
ATOM     19  C   UNL     1      -2.619 -10.395  11.339  0.00  0.00    +0.020 A 
ENDROOT
BRANCH   3  11
ATOM     11  C   UNL     1      -8.714 -11.810  19.035  0.00  0.00    +0.051 C 
ATOM     13  C   UNL     1      -8.222 -12.929  19.947  0.00  0.00    +0.024 C 
ATOM     14  C   UNL     1      -9.679 -10.885  19.772  0.00  0.00    +0.024 C 
ENDBRANCH   3  11
TORSDOF 1
ENDMDL
MODEL 5
REMARK VINA RESULT:      -5.6     27.271     28.339
REMARK  Name = 75368572
REMARK  3 active torsions:
REMARK  status: ('A' for Active; 'I' for Inactive)
REMARK    1  A    between atoms: N_3  and  C_11
REMARK    2  A    between atoms: C_11  and  C_13
REMARK    3  A    between atoms: C_11  and  C_14
REMARK                            x       y       z     vdW  Elec       q    Type
REMARK                         _______ _______ _______ _____ _____    ______ ____
ROOT
ATOM      1  O   UNL     1      -1.917 -11.405  15.394  0.00  0.00    -0.252 OA
ATOM      2  N   UNL     1      -3.112 -11.123  13.412  0.00  0.00    -0.278 N 
ATOM      3  N   UNL     1      -3.741 -10.181  10.837  0.00  0.00    -0.297 NA
ATOM      4  N   UNL     1      -4.304 -11.232  15.334  0.00  0.00    -0.238 N 
ATOM      5  N   UNL     1      -3.715 -11.525  17.628  0.00  0.00    -0.240 NA
ATOM      6  C   UNL     1      -4.487 -11.131  12.980  0.00  0.00    +0.109 C 
ATOM      7  C   UNL     1      -4.727 -10.049  11.928  0.00  0.00    +0.108 C 
ATOM      8  C   UNL     1      -5.269 -10.951  14.276  0.00  0.00    +0.140 C 
ATOM      9  C   UNL     1      -2.059 -11.098  12.418  0.00  0.00    +0.125 C 
ATOM     10  C   UNL     1      -2.364 -10.042  11.353  0.00  0.00    +0.103 C 
ATOM     12  C   UNL     1      -2.981 -11.278  14.803  0.00  0.00    +0.311 C 
ATOM     15  C   UNL     1      -4.684 -11.351  16.702  0.00  0.00    +0.129 A 
ATOM     16  C   UNL     1      -6.036 -11.276  16.999  0.00  0.00    +0.044 A 
ATOM     17  C   UNL     1      -6.417 -11.391  18.332  0.00  0.00    +0.005 A 
ATOM     18  C   UNL     1      -4.124 -11.632  18.913  0.00  0.00    +0.113 A 
ATOM     19  C   UNL     1      -5.449 -11.571  19.312  0.00  0.00    +0.020 A 
ENDROOT
BRANCH   3  11
ATOM     11  C   UNL     1      -3.997  -9.187   9.795  0.00  0.00    +0.051 C 
ATOM     13  C   UNL     1      -4.556  -9.881   8.557  0.00  0.00    +0.024 C 
ATOM     14  C   UNL     1      -4.959  -8.119  10.307  0.00  0.00    +0.024 C 
ENDBRANCH   3  11
TORSDOF 1
ENDMDL
MODEL 6
REMARK VINA RESULT:      -5.5     17.619     18.501
REMARK  Name = 75368572
REMARK  3 active torsions:
REMARK  status: ('A' for Active; 'I' for Inactive)
REMARK    1  A    between atoms: N_3  and  C_11
REMARK    2  A    between atoms: C_11  and  C_13
REMARK    3  A    between atoms: C_11  and  C_14
REMARK                            x       y       z     vdW  Elec       q    Type
REMARK                         _______ _______ _______ _____ _____    ______ ____
ROOT
ATOM      1  O   UNL     1       9.904   7.353   1.565  0.00  0.00    -0.252 OA
ATOM      2  N   UNL     1       9.283   6.695   3.713  0.00  0.00    -0.278 N 
ATOM      3  N   UNL     1       8.588   6.918   6.430  0.00  0.00    -0.297 NA
ATOM      4  N   UNL     1      10.772   5.387   2.619  0.00  0.00    -0.238 N 
ATOM      5  N   UNL     1      11.775   5.482   0.455  0.00  0.00    -0.240 NA
ATOM      6  C   UNL     1       9.463   5.555   4.578  0.00  0.00    +0.109 C 
ATOM      7  C   UNL     1       9.675   6.005   6.023  0.00  0.00    +0.108 C 
ATOM      8  C   UNL     1      10.642   4.818   3.956  0.00  0.00    +0.140 C 
ATOM      9  C   UNL     1       8.347   7.732   4.095  0.00  0.00    +0.125 C 
ATOM     10  C   UNL     1       8.553   8.113   5.563  0.00  0.00    +0.103 C 
ATOM     12  C   UNL     1       9.981   6.568   2.500  0.00  0.00    +0.311 C 
ATOM     15  C   UNL     1      11.650   4.840   1.638  0.00  0.00    +0.129 A 
ATOM     16  C   UNL     1      12.328   3.676   1.965  0.00  0.00    +0.044 A 
ATOM     17  C   UNL     1      13.187   3.134   1.015  0.00  0.00    +0.005 A 
ATOM     18  C   UNL     1      12.619   4.925  -0.443  0.00  0.00    +0.113 A 
ATOM     19  C   UNL     1      13.342   3.766  -0.214  0.00  0.00    +0.020 A 
ENDROOT
BRANCH   3  11
ATOM     11  C   UNL     1       8.748   7.310   7.831  0.00  0.00    +0.051 C 
ATOM     13  C   UNL     1       9.384   6.162   8.609  0.00  0.00    +0.024 C 
ATOM     14  C   UNL     1       9.593   8.577   7.933  0.00  0.00    +0.024 C 
ENDBRANCH   3  11
TORSDOF 1
ENDMDL
MODEL 7
REMARK VINA RESULT:      -5.4     26.510     28.810
REMARK  Name = 75368572
REMARK  3 active torsions:
REMARK  status: ('A' for Active; 'I' for Inactive)
REMARK    1  A    between atoms: N_3  and  C_11
REMARK    2  A    between atoms: C_11  and  C_13
REMARK    3  A    between atoms: C_11  and  C_14
REMARK                            x       y       z     vdW  Elec       q    Type
REMARK                         _______ _______ _______ _____ _____    ______ ____
ROOT
ATOM      1  O   UNL     1      -6.146 -10.178  13.114  0.00  0.00    -0.252 OA
ATOM      2  N   UNL     1      -7.610  -9.963  14.916  0.00  0.00    -0.278 N 
ATOM      3  N   UNL     1      -9.766  -9.005  16.447  0.00  0.00    -0.297 NA
ATOM      4  N   UNL     1      -5.420 -10.286  15.392  0.00  0.00    -0.238 N 
ATOM      5  N   UNL     1      -3.467 -10.594  14.054  0.00  0.00    -0.240 NA
ATOM      6  C   UNL     1      -7.574 -10.117  16.349  0.00  0.00    +0.109 C 
ATOM      7  C   UNL     1      -8.408  -9.032  17.027  0.00  0.00    +0.108 C 
ATOM      8  C   UNL     1      -6.086 -10.080  16.674  0.00  0.00    +0.140 C 
ATOM      9  C   UNL     1      -8.886  -9.777  14.256  0.00  0.00    +0.125 C 
ATOM     10  C   UNL     1      -9.713  -8.725  14.998  0.00  0.00    +0.103 C 
ATOM     12  C   UNL     1      -6.351 -10.155  14.320  0.00  0.00    +0.311 C 
ATOM     15  C   UNL     1      -4.015 -10.500  15.287  0.00  0.00    +0.129 A 
ATOM     16  C   UNL     1      -3.293 -10.597  16.465  0.00  0.00    +0.044 A 
ATOM     17  C   UNL     1      -1.921 -10.806  16.374  0.00  0.00    +0.005 A 
ATOM     18  C   UNL     1      -2.131 -10.797  14.005  0.00  0.00    +0.113 A 
ATOM     19  C   UNL     1      -1.322 -10.908  15.123  0.00  0.00    +0.020 A 
ENDROOT
BRANCH   3  11
ATOM     11  C   UNL     1     -10.593  -8.009  17.129  0.00  0.00    +0.051 C 
ATOM     13  C   UNL     1     -10.741  -6.778  16.240  0.00  0.00    +0.024 C 
ATOM     14  C   UNL     1     -11.955  -8.601  17.478  0.00  0.00    +0.024 C 
ENDBRANCH   3  11
TORSDOF 1
ENDMDL
MODEL 8
REMARK VINA RESULT:      -5.3     27.565     30.815
REMARK  Name = 75368572
REMARK  3 active torsions:
REMARK  status: ('A' for Active; 'I' for Inactive)
REMARK    1  A    between atoms: N_3  and  C_11
REMARK    2  A    between atoms: C_11  and  C_13
REMARK    3  A    between atoms: C_11  and  C_14
REMARK                            x       y       z     vdW  Elec       q    Type
REMARK                         _______ _______ _______ _____ _____    ______ ____
ROOT
ATOM      1  O   UNL     1     -16.557   5.427  20.124  0.00  0.00    -0.252 OA
ATOM      2  N   UNL     1     -14.729   6.836  20.448  0.00  0.00    -0.278 N 
ATOM      3  N   UNL     1     -12.414   8.316  19.841  0.00  0.00    -0.297 NA
ATOM      4  N   UNL     1     -15.220   5.379  22.109  0.00  0.00    -0.238 N 
ATOM      5  N   UNL     1     -16.919   3.730  22.410  0.00  0.00    -0.240 NA
ATOM      6  C   UNL     1     -13.825   7.190  21.513  0.00  0.00    +0.109 C 
ATOM      7  C   UNL     1     -12.406   7.372  20.976  0.00  0.00    +0.108 C 
ATOM      8  C   UNL     1     -13.992   6.054  22.514  0.00  0.00    +0.140 C 
ATOM      9  C   UNL     1     -14.714   7.608  19.222  0.00  0.00    +0.125 C 
ATOM     10  C   UNL     1     -13.273   7.816  18.748  0.00  0.00    +0.103 C 
ATOM     12  C   UNL     1     -15.630   5.824  20.818  0.00  0.00    +0.311 C 
ATOM     15  C   UNL     1     -15.831   4.364  22.902  0.00  0.00    +0.129 A 
ATOM     16  C   UNL     1     -15.264   4.088  24.135  0.00  0.00    +0.044 A 
ATOM     17  C   UNL     1     -15.852   3.099  24.917  0.00  0.00    +0.005 A 
ATOM     18  C   UNL     1     -17.463   2.775  23.197  0.00  0.00    +0.113 A 
ATOM     19  C   UNL     1     -16.973   2.425  24.445  0.00  0.00    +0.020 A 
ENDROOT
BRANCH   3  11
ATOM     11  C   UNL     1     -11.053   8.543  19.355  0.00  0.00    +0.051 C 
ATOM     13  C   UNL     1     -10.945   8.069  17.909  0.00  0.00    +0.024 C 
ATOM     14  C   UNL     1     -10.686  10.019  19.478  0.00  0.00    +0.024 C 
ENDBRANCH   3  11
TORSDOF 1
ENDMDL
MODEL 9
REMARK VINA RESULT:      -5.3     28.434     30.408
REMARK  Name = 75368572
REMARK  3 active torsions:
REMARK  status: ('A' for Active; 'I' for Inactive)
REMARK    1  A    between atoms: N_3  and  C_11
REMARK    2  A    between atoms: C_11  and  C_13
REMARK    3  A    between atoms: C_11  and  C_14
REMARK                            x       y       z     vdW  Elec       q    Type
REMARK                         _______ _______ _______ _____ _____    ______ ____
ROOT
ATOM      1  O   UNL     1      -9.518 -11.464  18.926  0.00  0.00    -0.252 OA
ATOM      2  N   UNL     1     -10.151  -9.448  17.941  0.00  0.00    -0.278 N 
ATOM      3  N   UNL     1     -11.737  -7.595  16.539  0.00  0.00    -0.297 NA
ATOM      4  N   UNL     1      -7.979 -10.058  17.749  0.00  0.00    -0.238 N 
ATOM      5  N   UNL     1      -6.715 -11.929  18.520  0.00  0.00    -0.240 NA
ATOM      6  C   UNL     1      -9.516  -8.316  17.315  0.00  0.00    +0.109 C 
ATOM      7  C   UNL     1     -10.339  -7.829  16.123  0.00  0.00    +0.108 C 
ATOM      8  C   UNL     1      -8.127  -8.834  16.967  0.00  0.00    +0.140 C 
ATOM      9  C   UNL     1     -11.564  -9.382  18.256  0.00  0.00    +0.125 C 
ATOM     10  C   UNL     1     -12.345  -8.836  17.058  0.00  0.00    +0.103 C 
ATOM     12  C   UNL     1      -9.237 -10.455  18.293  0.00  0.00    +0.311 C 
ATOM     15  C   UNL     1      -6.742 -10.757  17.847  0.00  0.00    +0.129 A 
ATOM     16  C   UNL     1      -5.635 -10.187  17.239  0.00  0.00    +0.044 A 
ATOM     17  C   UNL     1      -4.422 -10.862  17.329  0.00  0.00    +0.005 A 
ATOM     18  C   UNL     1      -5.519 -12.556  18.586  0.00  0.00    +0.113 A 
ATOM     19  C   UNL     1      -4.356 -12.070  18.013  0.00  0.00    +0.020 A 
ENDROOT
BRANCH   3  11
ATOM     11  C   UNL     1     -12.521  -7.073  15.420  0.00  0.00    +0.051 C 
ATOM     13  C   UNL     1     -13.952  -6.812  15.881  0.00  0.00    +0.024 C 
ATOM     14  C   UNL     1     -11.881  -5.800  14.873  0.00  0.00    +0.024 C 
ENDBRANCH   3  11
TORSDOF 1
ENDMDL
MODEL 10
REMARK VINA RESULT:      -5.2     27.972     29.097
REMARK  Name = 75368572
REMARK  3 active torsions:
REMARK  status: ('A' for Active; 'I' for Inactive)
REMARK    1  A    between atoms: N_3  and  C_11
REMARK    2  A    between atoms: C_11  and  C_13
REMARK    3  A    between atoms: C_11  and  C_14
REMARK                            x       y       z     vdW  Elec       q    Type
REMARK                         _______ _______ _______ _____ _____    ______ ____
ROOT
ATOM      1  O   UNL     1      -6.368 -12.676  12.555  0.00  0.00    -0.252 OA
ATOM      2  N   UNL     1      -5.009 -12.292  14.410  0.00  0.00    -0.278 N 
ATOM      3  N   UNL     1      -4.285 -11.927  17.104  0.00  0.00    -0.297 NA
ATOM      4  N   UNL     1      -4.555 -11.114  12.531  0.00  0.00    -0.238 N 
ATOM      5  N   UNL     1      -5.518 -11.051  10.348  0.00  0.00    -0.240 NA
ATOM      6  C   UNL     1      -3.793 -11.582  14.718  0.00  0.00    +0.109 C 
ATOM      7  C   UNL     1      -3.888 -10.925  16.094  0.00  0.00    +0.108 C 
ATOM      8  C   UNL     1      -3.641 -10.613  13.553  0.00  0.00    +0.140 C 
ATOM      9  C   UNL     1      -5.573 -13.191  15.397  0.00  0.00    +0.125 C 
ATOM     10  C   UNL     1      -5.597 -12.517  16.770  0.00  0.00    +0.103 C 
ATOM     12  C   UNL     1      -5.426 -12.099  13.082  0.00  0.00    +0.311 C 
ATOM     15  C   UNL     1      -4.580 -10.590  11.206  0.00  0.00    +0.129 A 
ATOM     16  C   UNL     1      -3.635  -9.630  10.880  0.00  0.00    +0.044 A 
ATOM     17  C   UNL     1      -3.652  -9.112   9.589  0.00  0.00    +0.005 A 
ATOM     18  C   UNL     1      -5.503 -10.524   9.103  0.00  0.00    +0.113 A 
ATOM     19  C   UNL     1      -4.601  -9.562   8.679  0.00  0.00    +0.020 A 
ENDROOT
BRANCH   3  11
ATOM     11  C   UNL     1      -4.323 -11.322  18.436  0.00  0.00    +0.051 C 
ATOM     13  C   UNL     1      -5.769 -11.019  18.814  0.00  0.00    +0.024 C 
ATOM     14  C   UNL     1      -3.671 -12.250  19.457  0.00  0.00    +0.024 C 
ENDBRANCH   3  11
TORSDOF 1
ENDMDL
