REMARK  Name = 25389028
REMARK  8 active torsions:
REMARK  status: ('A' for Active; 'I' for Inactive)
REMARK    1  A    between atoms: O_3  and  C_32
REMARK    2  A    between atoms: O_3  and  C_33
REMARK    3  A    between atoms: N_5  and  C_19
REMARK    4  A    between atoms: N_6  and  C_16
REMARK    5  A    between atoms: C_9  and  C_15
REMARK    6  A    between atoms: C_10  and  C_16
REMARK    7  A    between atoms: C_18  and  C_21
REMARK    8  A    between atoms: C_20  and  C_22
REMARK                            x       y       z     vdW  Elec       q    Type
REMARK                         _______ _______ _______ _____ _____    ______ ____
ROOT
ATOM      4  N   UNL     1       0.143   3.773   0.590  0.00  0.00    -0.297 NA
ATOM      8  C   UNL     1      -0.791   2.652  -1.567  0.00  0.00    +0.002 C 
ATOM      9  C   UNL     1      -1.916   2.816  -0.508  0.00  0.00    +0.055 C 
ATOM     10  C   UNL     1       1.013   2.635   0.191  0.00  0.00    +0.074 C 
ATOM     11  C   UNL     1       0.367   1.833  -0.958  0.00  0.00    +0.024 C 
ATOM     12  C   UNL     1      -0.243   4.066  -1.856  0.00  0.00    +0.019 C 
ATOM     13  C   UNL     1      -1.246   3.299   0.810  0.00  0.00    +0.094 C 
ATOM     14  C   UNL     1       0.128   4.747  -0.528  0.00  0.00    +0.085 C 
ENDROOT
BRANCH   9  15
ATOM      5  N   UNL     1      -4.163   1.805   0.104  0.00  0.00    -0.270 N 
ATOM      7  N   UNL     1      -4.830   0.649   0.254  0.00  0.00    -0.171 NA
ATOM     15  C   UNL     1      -2.863   1.646  -0.279  0.00  0.00    +0.044 A 
ATOM     17  C   UNL     1      -2.667   0.291  -0.387  0.00  0.00    +0.053 A 
ATOM     18  C   UNL     1      -3.912  -0.273  -0.048  0.00  0.00    +0.093 A 
ATOM     19  C   UNL     1      -4.847   3.053   0.353  0.00  0.00    +0.172 C 
BRANCH  18  21
ATOM      1  F   UNL     1      -5.178  -5.693   0.118  0.00  0.00    -0.205 F 
ATOM     21  C   UNL     1      -4.239  -1.674  -0.005  0.00  0.00    +0.002 A 
ATOM     23  C   UNL     1      -3.254  -2.612   0.304  0.00  0.00    +0.013 A 
ATOM     24  C   UNL     1      -5.542  -2.095  -0.273  0.00  0.00    +0.013 A 
ATOM     27  C   UNL     1      -3.571  -3.969   0.346  0.00  0.00    +0.039 A 
ATOM     28  C   UNL     1      -5.859  -3.452  -0.231  0.00  0.00    +0.039 A 
ATOM     29  C   UNL     1      -4.874  -4.389   0.078  0.00  0.00    +0.123 A 
ENDBRANCH  18  21
ENDBRANCH   9  15
BRANCH  10  16
ATOM     16  C   UNL     1       1.380   1.739   1.376  0.00  0.00    +0.123 C 
BRANCH  16   6
ATOM      2  O   UNL     1       4.245   1.926   1.419  0.00  0.00    -0.270 OA
ATOM      6  N   UNL     1       2.308   0.725   0.981  0.00  0.00    -0.310 N 
ATOM     20  C   UNL     1       3.690   0.900   1.034  0.00  0.00    +0.244 C 
ATOM     34  H   UNL     1       1.916  -0.126   0.594  0.00  0.00    +0.149 HD
BRANCH  20  22
ATOM     22  C   UNL     1       4.518  -0.239   0.563  0.00  0.00    +0.037 A 
ATOM     25  C   UNL     1       5.793  -0.009   0.047  0.00  0.00    +0.016 A 
ATOM     26  C   UNL     1       4.020  -1.540   0.635  0.00  0.00    +0.016 A 
ATOM     30  C   UNL     1       6.570  -1.079  -0.398  0.00  0.00    +0.046 A 
ATOM     31  C   UNL     1       4.796  -2.610   0.191  0.00  0.00    +0.046 A 
ATOM     32  C   UNL     1       6.071  -2.380  -0.325  0.00  0.00    +0.120 A 
BRANCH  32   3
ATOM      3  O   UNL     1       6.829  -3.424  -0.758  0.00  0.00    -0.495 OA
ATOM     33  C   UNL     1       8.124  -3.117  -1.274  0.00  0.00    +0.277 C 
ENDBRANCH  32   3
ENDBRANCH  20  22
ENDBRANCH  16   6
ENDBRANCH  10  16
TORSDOF 6
