MODEL 1
REMARK VINA RESULT:      -8.1      0.000      0.000
REMARK  Name = 7155496
REMARK  6 active torsions:
REMARK  status: ('A' for Active; 'I' for Inactive)
REMARK    1  A    between atoms: O_4  and  C_27
REMARK    2  A    between atoms: O_4  and  C_33
REMARK    3  A    between atoms: N_7  and  C_18
REMARK    4  A    between atoms: C_17  and  C_20
REMARK    5  A    between atoms: C_23  and  C_27
REMARK    6  A    between atoms: C_26  and  C_28
REMARK                            x       y       z     vdW  Elec       q    Type
REMARK                         _______ _______ _______ _____ _____    ______ ____
ROOT
ATOM      1  O   UNL     1     -10.491  -8.397  18.198  0.00  0.00    -0.266 OA
ATOM      2  O   UNL     1      -5.866 -10.393  19.374  0.00  0.00    -0.270 OA
ATOM      5  N   UNL     1      -7.208 -12.135  18.574  0.00  0.00    -0.297 N 
ATOM      6  N   UNL     1      -9.873 -10.611  17.777  0.00  0.00    -0.310 N 
ATOM      8  C   UNL     1      -9.447 -12.308  19.648  0.00  0.00    +0.027 C 
ATOM      9  C   UNL     1      -9.164 -12.980  17.297  0.00  0.00    +0.054 C 
ATOM     10  C   UNL     1      -9.858 -13.345  18.609  0.00  0.00    +0.018 C 
ATOM     11  C   UNL     1      -7.919 -12.316  19.840  0.00  0.00    +0.113 C 
ATOM     12  C   UNL     1      -9.966 -10.934  19.209  0.00  0.00    +0.130 C 
ATOM     13  C   UNL     1      -7.635 -13.034  17.489  0.00  0.00    +0.117 C 
ATOM     14  C   UNL     1      -9.572 -11.595  16.831  0.00  0.00    +0.027 A 
ATOM     15  C   UNL     1      -9.606 -11.305  15.519  0.00  0.00    +0.024 A 
ATOM     16  C   UNL     1     -10.202  -9.292  17.403  0.00  0.00    +0.273 A 
ATOM     17  C   UNL     1      -6.227 -11.147  18.471  0.00  0.00    +0.247 C 
ATOM     18  C   UNL     1     -10.202  -9.003  15.934  0.00  0.00    +0.099 A 
ATOM     19  C   UNL     1      -9.927  -9.981  15.065  0.00  0.00    +0.030 A 
ENDROOT
BRANCH  17  20
ATOM     20  C   UNL     1      -5.569 -10.964  17.173  0.00  0.00    +0.037 A 
ATOM     21  C   UNL     1      -6.166 -10.166  16.196  0.00  0.00    +0.013 A 
ATOM     22  C   UNL     1      -4.348 -11.586  16.916  0.00  0.00    +0.013 A 
ATOM     24  C   UNL     1      -5.541  -9.993  14.961  0.00  0.00    +0.009 A 
ATOM     25  C   UNL     1      -3.723 -11.413  15.681  0.00  0.00    +0.009 A 
ATOM     26  C   UNL     1      -4.319 -10.616  14.704  0.00  0.00    -0.018 A 
BRANCH  26  28
ATOM     28  C   UNL     1      -3.670 -10.436  13.423  0.00  0.00    -0.018 A 
ATOM     29  C   UNL     1      -2.277 -10.452  13.338  0.00  0.00    +0.008 A 
ATOM     30  C   UNL     1      -4.437 -10.248  12.273  0.00  0.00    +0.008 A 
ATOM     31  C   UNL     1      -1.652 -10.279  12.103  0.00  0.00    +0.001 A 
ATOM     32  C   UNL     1      -3.811 -10.074  11.039  0.00  0.00    +0.001 A 
ATOM     34  C   UNL     1      -2.419 -10.090  10.954  0.00  0.00    +0.000 A 
ENDBRANCH  26  28
ENDBRANCH  17  20
BRANCH  18   7
ATOM      3  O   UNL     1     -12.802  -7.981  15.289  0.00  0.00    -0.272 OA
ATOM      7  N   UNL     1     -10.497  -7.734  15.532  0.00  0.00    -0.278 N 
ATOM     23  C   UNL     1     -11.781  -7.300  15.235  0.00  0.00    +0.255 C 
ATOM     40  H   UNL     1      -9.717  -7.155  15.231  0.00  0.00    +0.155 HD
BRANCH  23  27
ATOM     27  C   UNL     1     -11.794  -5.844  14.817  0.00  0.00    +0.324 C 
BRANCH  27   4
ATOM      4  O   UNL     1     -13.117  -5.395  14.610  0.00  0.00    -0.483 OA
BRANCH   4  33
ATOM     33  C   UNL     1     -13.355  -4.644  13.483  0.00  0.00    +0.121 A 
ATOM     35  C   UNL     1     -12.295  -4.268  12.658  0.00  0.00    +0.045 A 
ATOM     36  C   UNL     1     -14.657  -4.257  13.166  0.00  0.00    +0.045 A 
ATOM     37  C   UNL     1     -12.537  -3.505  11.516  0.00  0.00    +0.004 A 
ATOM     38  C   UNL     1     -14.899  -3.493  12.024  0.00  0.00    +0.004 A 
ATOM     39  C   UNL     1     -13.839  -3.117  11.199  0.00  0.00    +0.000 A 
ENDBRANCH   4  33
ENDBRANCH  27   4
ENDBRANCH  23  27
ENDBRANCH  18   7
TORSDOF 6
ENDMDL
MODEL 2
REMARK VINA RESULT:      -7.7     26.292     30.808
REMARK  Name = 7155496
REMARK  6 active torsions:
REMARK  status: ('A' for Active; 'I' for Inactive)
REMARK    1  A    between atoms: O_4  and  C_27
REMARK    2  A    between atoms: O_4  and  C_33
REMARK    3  A    between atoms: N_7  and  C_18
REMARK    4  A    between atoms: C_17  and  C_20
REMARK    5  A    between atoms: C_23  and  C_27
REMARK    6  A    between atoms: C_26  and  C_28
REMARK                            x       y       z     vdW  Elec       q    Type
REMARK                         _______ _______ _______ _____ _____    ______ ____
ROOT
ATOM      1  O   UNL     1      12.725   7.287   3.521  0.00  0.00    -0.266 OA
ATOM      2  O   UNL     1       8.860  10.016   5.610  0.00  0.00    -0.270 OA
ATOM      5  N   UNL     1       8.987   7.977   6.752  0.00  0.00    -0.297 N 
ATOM      6  N   UNL     1      11.513   6.614   5.401  0.00  0.00    -0.310 N 
ATOM      8  C   UNL     1       9.037   5.963   5.291  0.00  0.00    +0.027 C 
ATOM      9  C   UNL     1      10.216   5.936   7.452  0.00  0.00    +0.054 C 
ATOM     10  C   UNL     1       9.356   5.098   6.506  0.00  0.00    +0.018 C 
ATOM     11  C   UNL     1       8.272   7.228   5.719  0.00  0.00    +0.113 C 
ATOM     12  C   UNL     1      10.345   6.297   4.565  0.00  0.00    +0.130 C 
ATOM     13  C   UNL     1       9.423   7.177   7.908  0.00  0.00    +0.117 C 
ATOM     14  C   UNL     1      11.504   6.371   6.779  0.00  0.00    +0.027 A 
ATOM     15  C   UNL     1      12.619   6.558   7.505  0.00  0.00    +0.024 A 
ATOM     16  C   UNL     1      12.665   7.075   4.733  0.00  0.00    +0.273 A 
ATOM     17  C   UNL     1       9.222   9.342   6.573  0.00  0.00    +0.247 C 
ATOM     18  C   UNL     1      13.877   7.297   5.582  0.00  0.00    +0.099 A 
ATOM     19  C   UNL     1      13.828   7.032   6.892  0.00  0.00    +0.030 A 
ENDROOT
BRANCH  17  20
ATOM     20  C   UNL     1       9.984  10.050   7.608  0.00  0.00    +0.037 A 
ATOM     21  C   UNL     1       9.321  10.607   8.703  0.00  0.00    +0.013 A 
ATOM     22  C   UNL     1      11.369  10.165   7.499  0.00  0.00    +0.013 A 
ATOM     24  C   UNL     1      10.044  11.280   9.687  0.00  0.00    +0.009 A 
ATOM     25  C   UNL     1      12.093  10.838   8.483  0.00  0.00    +0.009 A 
ATOM     26  C   UNL     1      11.431  11.396   9.577  0.00  0.00    -0.018 A 
BRANCH  26  28
ATOM     28  C   UNL     1      12.182  12.094  10.598  0.00  0.00    -0.018 A 
ATOM     29  C   UNL     1      11.685  12.169  11.900  0.00  0.00    +0.008 A 
ATOM     30  C   UNL     1      13.402  12.691  10.282  0.00  0.00    +0.008 A 
ATOM     31  C   UNL     1      12.410  12.841  12.885  0.00  0.00    +0.001 A 
ATOM     32  C   UNL     1      14.125  13.363  11.266  0.00  0.00    +0.001 A 
ATOM     34  C   UNL     1      13.629  13.438  12.568  0.00  0.00    +0.000 A 
ENDBRANCH  26  28
ENDBRANCH  17  20
BRANCH  18   7
ATOM      3  O   UNL     1      14.945   9.952   5.769  0.00  0.00    -0.272 OA
ATOM      7  N   UNL     1      15.007   7.760   4.976  0.00  0.00    -0.278 N 
ATOM     23  C   UNL     1      15.472   9.062   5.108  0.00  0.00    +0.255 C 
ATOM     40  H   UNL     1      15.394   7.189   4.229  0.00  0.00    +0.155 HD
BRANCH  23  27
ATOM     27  C   UNL     1      16.747   9.279   4.318  0.00  0.00    +0.324 C 
BRANCH  27   4
ATOM      4  O   UNL     1      17.779   9.755   5.157  0.00  0.00    -0.483 OA
BRANCH   4  33
ATOM     33  C   UNL     1      18.865   8.932   5.343  0.00  0.00    +0.121 A 
ATOM     35  C   UNL     1      19.289   8.092   4.314  0.00  0.00    +0.045 A 
ATOM     36  C   UNL     1      19.540   8.937   6.564  0.00  0.00    +0.045 A 
ATOM     37  C   UNL     1      20.390   7.257   4.505  0.00  0.00    +0.004 A 
ATOM     38  C   UNL     1      20.641   8.101   6.754  0.00  0.00    +0.004 A 
ATOM     39  C   UNL     1      21.066   7.261   5.725  0.00  0.00    +0.000 A 
ENDBRANCH   4  33
ENDBRANCH  27   4
ENDBRANCH  23  27
ENDBRANCH  18   7
TORSDOF 6
ENDMDL
MODEL 3
REMARK VINA RESULT:      -7.7      1.331      2.280
REMARK  Name = 7155496
REMARK  6 active torsions:
REMARK  status: ('A' for Active; 'I' for Inactive)
REMARK    1  A    between atoms: O_4  and  C_27
REMARK    2  A    between atoms: O_4  and  C_33
REMARK    3  A    between atoms: N_7  and  C_18
REMARK    4  A    between atoms: C_17  and  C_20
REMARK    5  A    between atoms: C_23  and  C_27
REMARK    6  A    between atoms: C_26  and  C_28
REMARK                            x       y       z     vdW  Elec       q    Type
REMARK                         _______ _______ _______ _____ _____    ______ ____
ROOT
ATOM      1  O   UNL     1      -8.989  -8.128  17.845  0.00  0.00    -0.266 OA
ATOM      2  O   UNL     1      -4.182  -9.914  17.173  0.00  0.00    -0.270 OA
ATOM      5  N   UNL     1      -5.634 -11.749  17.119  0.00  0.00    -0.297 N 
ATOM      6  N   UNL     1      -8.473 -10.357  17.370  0.00  0.00    -0.310 N 
ATOM      8  C   UNL     1      -7.233 -11.872  19.023  0.00  0.00    +0.027 C 
ATOM      9  C   UNL     1      -7.889 -12.744  16.816  0.00  0.00    +0.054 C 
ATOM     10  C   UNL     1      -7.971 -13.005  18.320  0.00  0.00    +0.018 C 
ATOM     11  C   UNL     1      -5.760 -11.831  18.574  0.00  0.00    +0.113 C 
ATOM     12  C   UNL     1      -7.960 -10.553  18.735  0.00  0.00    +0.130 C 
ATOM     13  C   UNL     1      -6.413 -12.749  16.371  0.00  0.00    +0.117 C 
ATOM     14  C   UNL     1      -8.527 -11.415  16.457  0.00  0.00    +0.027 A 
ATOM     15  C   UNL     1      -9.105 -11.243  15.257  0.00  0.00    +0.024 A 
ATOM     16  C   UNL     1      -8.998  -9.084  17.068  0.00  0.00    +0.273 A 
ATOM     17  C   UNL     1      -4.835 -10.752  16.553  0.00  0.00    +0.247 C 
ATOM     18  C   UNL     1      -9.608  -8.927  15.710  0.00  0.00    +0.099 A 
ATOM     19  C   UNL     1      -9.655  -9.972  14.878  0.00  0.00    +0.030 A 
ENDROOT
BRANCH  17  20
ATOM     20  C   UNL     1      -4.770 -10.672  15.090  0.00  0.00    +0.037 A 
ATOM     21  C   UNL     1      -3.683 -11.221  14.409  0.00  0.00    +0.013 A 
ATOM     22  C   UNL     1      -5.795 -10.046  14.380  0.00  0.00    +0.013 A 
ATOM     24  C   UNL     1      -3.620 -11.144  13.018  0.00  0.00    +0.009 A 
ATOM     25  C   UNL     1      -5.732  -9.969  12.989  0.00  0.00    +0.009 A 
ATOM     26  C   UNL     1      -4.646 -10.518  12.307  0.00  0.00    -0.018 A 
BRANCH  26  28
ATOM     28  C   UNL     1      -4.582 -10.438  10.864  0.00  0.00    -0.018 A 
ATOM     29  C   UNL     1      -4.519  -9.193  10.237  0.00  0.00    +0.008 A 
ATOM     30  C   UNL     1      -4.580 -11.605  10.101  0.00  0.00    +0.008 A 
ATOM     31  C   UNL     1      -4.456  -9.116   8.845  0.00  0.00    +0.001 A 
ATOM     32  C   UNL     1      -4.518 -11.527   8.709  0.00  0.00    +0.001 A 
ATOM     34  C   UNL     1      -4.456 -10.284   8.082  0.00  0.00    +0.000 A 
ENDBRANCH  26  28
ENDBRANCH  17  20
BRANCH  18   7
ATOM      3  O   UNL     1     -12.247  -7.954  16.273  0.00  0.00    -0.272 OA
ATOM      7  N   UNL     1     -10.111  -7.705  15.373  0.00  0.00    -0.278 N 
ATOM     23  C   UNL     1     -11.401  -7.293  15.676  0.00  0.00    +0.255 C 
ATOM     40  H   UNL     1      -9.589  -7.169  14.684  0.00  0.00    +0.155 HD
BRANCH  23  27
ATOM     27  C   UNL     1     -11.670  -5.890  15.173  0.00  0.00    +0.324 C 
BRANCH  27   4
ATOM      4  O   UNL     1     -13.000  -5.770  14.712  0.00  0.00    -0.483 OA
BRANCH   4  33
ATOM     33  C   UNL     1     -13.224  -4.912  13.662  0.00  0.00    +0.121 A 
ATOM     35  C   UNL     1     -14.527  -4.537  13.333  0.00  0.00    +0.045 A 
ATOM     36  C   UNL     1     -12.149  -4.418  12.924  0.00  0.00    +0.045 A 
ATOM     37  C   UNL     1     -14.754  -3.667  12.267  0.00  0.00    +0.004 A 
ATOM     38  C   UNL     1     -12.375  -3.548  11.858  0.00  0.00    +0.004 A 
ATOM     39  C   UNL     1     -13.678  -3.173  11.528  0.00  0.00    +0.000 A 
ENDBRANCH   4  33
ENDBRANCH  27   4
ENDBRANCH  23  27
ENDBRANCH  18   7
TORSDOF 6
ENDMDL
MODEL 4
REMARK VINA RESULT:      -7.6     26.483     30.754
REMARK  Name = 7155496
REMARK  6 active torsions:
REMARK  status: ('A' for Active; 'I' for Inactive)
REMARK    1  A    between atoms: O_4  and  C_27
REMARK    2  A    between atoms: O_4  and  C_33
REMARK    3  A    between atoms: N_7  and  C_18
REMARK    4  A    between atoms: C_17  and  C_20
REMARK    5  A    between atoms: C_23  and  C_27
REMARK    6  A    between atoms: C_26  and  C_28
REMARK                            x       y       z     vdW  Elec       q    Type
REMARK                         _______ _______ _______ _____ _____    ______ ____
ROOT
ATOM      1  O   UNL     1      14.038  10.327   7.025  0.00  0.00    -0.266 OA
ATOM      2  O   UNL     1      11.247   5.992   7.430  0.00  0.00    -0.270 OA
ATOM      5  N   UNL     1       9.846   7.660   6.575  0.00  0.00    -0.297 N 
ATOM      6  N   UNL     1      11.837  10.110   6.271  0.00  0.00    -0.310 N 
ATOM      8  C   UNL     1       9.854   9.791   7.861  0.00  0.00    +0.027 C 
ATOM      9  C   UNL     1       9.479   9.832   5.428  0.00  0.00    +0.054 C 
ATOM     10  C   UNL     1       9.042  10.454   6.754  0.00  0.00    +0.018 C 
ATOM     11  C   UNL     1       9.597   8.273   7.880  0.00  0.00    +0.113 C 
ATOM     12  C   UNL     1      11.337  10.123   7.653  0.00  0.00    +0.130 C 
ATOM     13  C   UNL     1       9.177   8.320   5.442  0.00  0.00    +0.117 C 
ATOM     14  C   UNL     1      10.960  10.055   5.183  0.00  0.00    +0.027 A 
ATOM     15  C   UNL     1      11.430  10.161   3.929  0.00  0.00    +0.024 A 
ATOM     16  C   UNL     1      13.229  10.257   6.099  0.00  0.00    +0.273 A 
ATOM     17  C   UNL     1      10.686   6.548   6.487  0.00  0.00    +0.247 C 
ATOM     18  C   UNL     1      13.715  10.344   4.686  0.00  0.00    +0.099 A 
ATOM     19  C   UNL     1      12.836  10.307   3.678  0.00  0.00    +0.030 A 
ENDROOT
BRANCH  17  20
ATOM     20  C   UNL     1      10.948   5.989   5.156  0.00  0.00    +0.037 A 
ATOM     21  C   UNL     1      11.907   6.577   4.330  0.00  0.00    +0.013 A 
ATOM     22  C   UNL     1      10.241   4.870   4.717  0.00  0.00    +0.013 A 
ATOM     24  C   UNL     1      12.156   6.047   3.065  0.00  0.00    +0.009 A 
ATOM     25  C   UNL     1      10.490   4.340   3.452  0.00  0.00    +0.009 A 
ATOM     26  C   UNL     1      11.448   4.927   2.625  0.00  0.00    -0.018 A 
BRANCH  26  28
ATOM     28  C   UNL     1      11.707   4.377   1.313  0.00  0.00    -0.018 A 
ATOM     29  C   UNL     1      12.918   3.735   1.052  0.00  0.00    +0.008 A 
ATOM     30  C   UNL     1      10.745   4.485   0.309  0.00  0.00    +0.008 A 
ATOM     31  C   UNL     1      13.168   3.203  -0.213  0.00  0.00    +0.001 A 
ATOM     32  C   UNL     1      10.995   3.954  -0.956  0.00  0.00    +0.001 A 
ATOM     34  C   UNL     1      12.206   3.313  -1.217  0.00  0.00    +0.000 A 
ENDBRANCH  26  28
ENDBRANCH  17  20
BRANCH  18   7
ATOM      3  O   UNL     1      15.574   8.209   4.228  0.00  0.00    -0.272 OA
ATOM      7  N   UNL     1      15.056  10.469   4.477  0.00  0.00    -0.278 N 
ATOM     23  C   UNL     1      15.904   9.392   4.260  0.00  0.00    +0.255 C 
ATOM     40  H   UNL     1      15.475  11.366   4.709  0.00  0.00    +0.155 HD
BRANCH  23  27
ATOM     27  C   UNL     1      17.337   9.843   4.061  0.00  0.00    +0.324 C 
BRANCH  27   4
ATOM      4  O   UNL     1      18.169   8.743   3.759  0.00  0.00    -0.483 OA
BRANCH   4  33
ATOM     33  C   UNL     1      19.119   8.400   4.692  0.00  0.00    +0.121 A 
ATOM     35  C   UNL     1      20.212   7.618   4.321  0.00  0.00    +0.045 A 
ATOM     36  C   UNL     1      18.987   8.834   6.011  0.00  0.00    +0.045 A 
ATOM     37  C   UNL     1      21.174   7.270   5.269  0.00  0.00    +0.004 A 
ATOM     38  C   UNL     1      19.949   8.486   6.959  0.00  0.00    +0.004 A 
ATOM     39  C   UNL     1      21.043   7.703   6.589  0.00  0.00    +0.000 A 
ENDBRANCH   4  33
ENDBRANCH  27   4
ENDBRANCH  23  27
ENDBRANCH  18   7
TORSDOF 6
ENDMDL
MODEL 5
REMARK VINA RESULT:      -7.6     25.778     30.572
REMARK  Name = 7155496
REMARK  6 active torsions:
REMARK  status: ('A' for Active; 'I' for Inactive)
REMARK    1  A    between atoms: O_4  and  C_27
REMARK    2  A    between atoms: O_4  and  C_33
REMARK    3  A    between atoms: N_7  and  C_18
REMARK    4  A    between atoms: C_17  and  C_20
REMARK    5  A    between atoms: C_23  and  C_27
REMARK    6  A    between atoms: C_26  and  C_28
REMARK                            x       y       z     vdW  Elec       q    Type
REMARK                         _______ _______ _______ _____ _____    ______ ____
ROOT
ATOM      1  O   UNL     1      12.457   8.718   7.378  0.00  0.00    -0.266 OA
ATOM      2  O   UNL     1      10.168   4.489   5.475  0.00  0.00    -0.270 OA
ATOM      5  N   UNL     1       9.052   6.352   4.604  0.00  0.00    -0.297 N 
ATOM      6  N   UNL     1      10.755   8.757   5.778  0.00  0.00    -0.310 N 
ATOM      8  C   UNL     1       8.352   8.037   6.297  0.00  0.00    +0.027 C 
ATOM      9  C   UNL     1       8.949   8.764   4.022  0.00  0.00    +0.054 C 
ATOM     10  C   UNL     1       7.972   8.997   5.175  0.00  0.00    +0.018 C 
ATOM     11  C   UNL     1       8.258   6.579   5.811  0.00  0.00    +0.113 C 
ATOM     12  C   UNL     1       9.758   8.390   6.795  0.00  0.00    +0.130 C 
ATOM     13  C   UNL     1       8.814   7.315   3.516  0.00  0.00    +0.117 C 
ATOM     14  C   UNL     1      10.379   9.024   4.458  0.00  0.00    +0.027 A 
ATOM     15  C   UNL     1      11.286   9.469   3.573  0.00  0.00    +0.024 A 
ATOM     16  C   UNL     1      12.082   8.924   6.223  0.00  0.00    +0.273 A 
ATOM     17  C   UNL     1       9.965   5.296   4.570  0.00  0.00    +0.247 C 
ATOM     18  C   UNL     1      13.068   9.395   5.200  0.00  0.00    +0.099 A 
ATOM     19  C   UNL     1      12.657   9.657   3.954  0.00  0.00    +0.030 A 
ENDROOT
BRANCH  17  20
ATOM     20  C   UNL     1      10.777   5.129   3.359  0.00  0.00    +0.037 A 
ATOM     21  C   UNL     1      11.971   5.836   3.218  0.00  0.00    +0.013 A 
ATOM     22  C   UNL     1      10.355   4.263   2.351  0.00  0.00    +0.013 A 
ATOM     24  C   UNL     1      12.743   5.678   2.068  0.00  0.00    +0.009 A 
ATOM     25  C   UNL     1      11.127   4.105   1.200  0.00  0.00    +0.009 A 
ATOM     26  C   UNL     1      12.321   4.812   1.058  0.00  0.00    -0.018 A 
BRANCH  26  28
ATOM     28  C   UNL     1      13.122   4.647  -0.136  0.00  0.00    -0.018 A 
ATOM     29  C   UNL     1      14.512   4.747  -0.063  0.00  0.00    +0.008 A 
ATOM     30  C   UNL     1      12.505   4.388  -1.359  0.00  0.00    +0.008 A 
ATOM     31  C   UNL     1      15.284   4.587  -1.213  0.00  0.00    +0.001 A 
ATOM     32  C   UNL     1      13.277   4.229  -2.510  0.00  0.00    +0.001 A 
ATOM     34  C   UNL     1      14.666   4.328  -2.437  0.00  0.00    +0.000 A 
ENDBRANCH  26  28
ENDBRANCH  17  20
BRANCH  18   7
ATOM      3  O   UNL     1      15.152   7.436   5.002  0.00  0.00    -0.272 OA
ATOM      7  N   UNL     1      14.366   9.552   5.586  0.00  0.00    -0.278 N 
ATOM     23  C   UNL     1      15.330   8.561   5.462  0.00  0.00    +0.255 C 
ATOM     40  H   UNL     1      14.574  10.347   6.185  0.00  0.00    +0.155 HD
BRANCH  23  27
ATOM     27  C   UNL     1      16.677   9.028   5.976  0.00  0.00    +0.324 C 
BRANCH  27   4
ATOM      4  O   UNL     1      17.640   9.006   4.944  0.00  0.00    -0.483 OA
BRANCH   4  33
ATOM     33  C   UNL     1      18.863   8.452   5.241  0.00  0.00    +0.121 A 
ATOM     35  C   UNL     1      19.427   8.640   6.502  0.00  0.00    +0.045 A 
ATOM     36  C   UNL     1      19.540   7.704   4.278  0.00  0.00    +0.045 A 
ATOM     37  C   UNL     1      20.669   8.078   6.801  0.00  0.00    +0.004 A 
ATOM     38  C   UNL     1      20.782   7.142   4.577  0.00  0.00    +0.004 A 
ATOM     39  C   UNL     1      21.346   7.330   5.839  0.00  0.00    +0.000 A 
ENDBRANCH   4  33
ENDBRANCH  27   4
ENDBRANCH  23  27
ENDBRANCH  18   7
TORSDOF 6
ENDMDL
MODEL 6
REMARK VINA RESULT:      -7.3      3.572      6.343
REMARK  Name = 7155496
REMARK  6 active torsions:
REMARK  status: ('A' for Active; 'I' for Inactive)
REMARK    1  A    between atoms: O_4  and  C_27
REMARK    2  A    between atoms: O_4  and  C_33
REMARK    3  A    between atoms: N_7  and  C_18
REMARK    4  A    between atoms: C_17  and  C_20
REMARK    5  A    between atoms: C_23  and  C_27
REMARK    6  A    between atoms: C_26  and  C_28
REMARK                            x       y       z     vdW  Elec       q    Type
REMARK                         _______ _______ _______ _____ _____    ______ ____
ROOT
ATOM      1  O   UNL     1      -4.916 -10.052  16.458  0.00  0.00    -0.266 OA
ATOM      2  O   UNL     1      -2.043  -9.547  12.188  0.00  0.00    -0.270 OA
ATOM      5  N   UNL     1      -2.934 -11.711  12.191  0.00  0.00    -0.297 N 
ATOM      6  N   UNL     1      -4.762 -11.673  14.783  0.00  0.00    -0.310 N 
ATOM      8  C   UNL     1      -2.605 -12.973  14.311  0.00  0.00    +0.027 C 
ATOM      9  C   UNL     1      -4.609 -13.384  12.941  0.00  0.00    +0.054 C 
ATOM     10  C   UNL     1      -3.541 -14.062  13.799  0.00  0.00    +0.018 C 
ATOM     11  C   UNL     1      -1.944 -12.236  13.132  0.00  0.00    +0.113 C 
ATOM     12  C   UNL     1      -3.399 -12.022  15.214  0.00  0.00    +0.130 C 
ATOM     13  C   UNL     1      -3.940 -12.687  11.740  0.00  0.00    +0.117 C 
ATOM     14  C   UNL     1      -5.395 -12.369  13.749  0.00  0.00    +0.027 A 
ATOM     15  C   UNL     1      -6.679 -12.113  13.449  0.00  0.00    +0.024 A 
ATOM     16  C   UNL     1      -5.426 -10.679  15.529  0.00  0.00    +0.273 A 
ATOM     17  C   UNL     1      -2.880 -10.367  11.814  0.00  0.00    +0.247 C 
ATOM     18  C   UNL     1      -6.847 -10.404  15.145  0.00  0.00    +0.099 A 
ATOM     19  C   UNL     1      -7.417 -11.109  14.162  0.00  0.00    +0.030 A 
ENDROOT
BRANCH  17  20
ATOM     20  C   UNL     1      -3.917  -9.865  10.906  0.00  0.00    +0.037 A 
ATOM     21  C   UNL     1      -5.115  -9.369  11.423  0.00  0.00    +0.013 A 
ATOM     22  C   UNL     1      -3.706  -9.884   9.528  0.00  0.00    +0.013 A 
ATOM     24  C   UNL     1      -6.102  -8.893  10.560  0.00  0.00    +0.009 A 
ATOM     25  C   UNL     1      -4.693  -9.408   8.665  0.00  0.00    +0.009 A 
ATOM     26  C   UNL     1      -5.891  -8.912   9.180  0.00  0.00    -0.018 A 
BRANCH  26  28
ATOM     28  C   UNL     1      -6.914  -8.418   8.285  0.00  0.00    -0.018 A 
ATOM     29  C   UNL     1      -7.524  -7.188   8.534  0.00  0.00    +0.008 A 
ATOM     30  C   UNL     1      -7.289  -9.170   7.172  0.00  0.00    +0.008 A 
ATOM     31  C   UNL     1      -8.510  -6.711   7.670  0.00  0.00    +0.001 A 
ATOM     32  C   UNL     1      -8.276  -8.693   6.309  0.00  0.00    +0.001 A 
ATOM     34  C   UNL     1      -8.886  -7.464   6.557  0.00  0.00    +0.000 A 
ENDBRANCH  26  28
ENDBRANCH  17  20
BRANCH  18   7
ATOM      3  O   UNL     1      -8.599 -10.803  17.380  0.00  0.00    -0.272 OA
ATOM      7  N   UNL     1      -7.519  -9.436  15.830  0.00  0.00    -0.278 N 
ATOM     23  C   UNL     1      -8.354  -9.696  16.908  0.00  0.00    +0.255 C 
ATOM     40  H   UNL     1      -7.577  -8.520  15.393  0.00  0.00    +0.155 HD
BRANCH  23  27
ATOM     27  C   UNL     1      -8.960  -8.422  17.463  0.00  0.00    +0.324 C 
BRANCH  27   4
ATOM      4  O   UNL     1     -10.353  -8.566  17.638  0.00  0.00    -0.483 OA
BRANCH   4  33
ATOM     33  C   UNL     1     -11.167  -7.776  16.860  0.00  0.00    +0.121 A 
ATOM     35  C   UNL     1     -12.507  -8.120  16.679  0.00  0.00    +0.045 A 
ATOM     36  C   UNL     1     -10.652  -6.632  16.252  0.00  0.00    +0.045 A 
ATOM     37  C   UNL     1     -13.332  -7.319  15.890  0.00  0.00    +0.004 A 
ATOM     38  C   UNL     1     -11.477  -5.830  15.463  0.00  0.00    +0.004 A 
ATOM     39  C   UNL     1     -12.817  -6.174  15.281  0.00  0.00    +0.000 A 
ENDBRANCH   4  33
ENDBRANCH  27   4
ENDBRANCH  23  27
ENDBRANCH  18   7
TORSDOF 6
ENDMDL
MODEL 7
REMARK VINA RESULT:      -7.0     20.649     23.712
REMARK  Name = 7155496
REMARK  6 active torsions:
REMARK  status: ('A' for Active; 'I' for Inactive)
REMARK    1  A    between atoms: O_4  and  C_27
REMARK    2  A    between atoms: O_4  and  C_33
REMARK    3  A    between atoms: N_7  and  C_18
REMARK    4  A    between atoms: C_17  and  C_20
REMARK    5  A    between atoms: C_23  and  C_27
REMARK    6  A    between atoms: C_26  and  C_28
REMARK                            x       y       z     vdW  Elec       q    Type
REMARK                         _______ _______ _______ _____ _____    ______ ____
ROOT
ATOM      1  O   UNL     1      -6.525  -8.744  40.171  0.00  0.00    -0.266 OA
ATOM      2  O   UNL     1      -6.304 -11.622  35.880  0.00  0.00    -0.270 OA
ATOM      5  N   UNL     1      -6.430 -13.080  37.707  0.00  0.00    -0.297 N 
ATOM      6  N   UNL     1      -6.731 -11.071  40.142  0.00  0.00    -0.310 N 
ATOM      8  C   UNL     1      -4.791 -12.624  39.523  0.00  0.00    +0.027 C 
ATOM      9  C   UNL     1      -6.993 -13.576  40.074  0.00  0.00    +0.054 C 
ATOM     10  C   UNL     1      -5.504 -13.638  40.411  0.00  0.00    +0.018 C 
ATOM     11  C   UNL     1      -5.010 -12.965  38.038  0.00  0.00    +0.113 C 
ATOM     12  C   UNL     1      -5.293 -11.219  39.873  0.00  0.00    +0.130 C 
ATOM     13  C   UNL     1      -7.204 -13.961  38.597  0.00  0.00    +0.117 C 
ATOM     14  C   UNL     1      -7.552 -12.188  40.326  0.00  0.00    +0.027 A 
ATOM     15  C   UNL     1      -8.837 -12.031  40.685  0.00  0.00    +0.024 A 
ATOM     16  C   UNL     1      -7.213  -9.756  40.305  0.00  0.00    +0.273 A 
ATOM     17  C   UNL     1      -6.946 -12.359  36.627  0.00  0.00    +0.247 C 
ATOM     18  C   UNL     1      -8.657  -9.624  40.679  0.00  0.00    +0.099 A 
ATOM     19  C   UNL     1      -9.398 -10.721  40.864  0.00  0.00    +0.030 A 
ENDROOT
BRANCH  17  20
ATOM     20  C   UNL     1      -8.383 -12.464  36.355  0.00  0.00    +0.037 A 
ATOM     21  C   UNL     1      -9.273 -11.576  36.960  0.00  0.00    +0.013 A 
ATOM     22  C   UNL     1      -8.860 -13.450  35.492  0.00  0.00    +0.013 A 
ATOM     24  C   UNL     1     -10.640 -11.675  36.702  0.00  0.00    +0.009 A 
ATOM     25  C   UNL     1     -10.227 -13.550  35.234  0.00  0.00    +0.009 A 
ATOM     26  C   UNL     1     -11.117 -12.663  35.838  0.00  0.00    -0.018 A 
BRANCH  26  28
ATOM     28  C   UNL     1     -12.535 -12.766  35.570  0.00  0.00    -0.018 A 
ATOM     29  C   UNL     1     -13.392 -13.290  36.539  0.00  0.00    +0.008 A 
ATOM     30  C   UNL     1     -13.046 -12.340  34.344  0.00  0.00    +0.008 A 
ATOM     31  C   UNL     1     -14.759 -13.388  36.281  0.00  0.00    +0.001 A 
ATOM     32  C   UNL     1     -14.413 -12.440  34.086  0.00  0.00    +0.001 A 
ATOM     34  C   UNL     1     -15.270 -12.964  35.054  0.00  0.00    +0.000 A 
ENDBRANCH  26  28
ENDBRANCH  17  20
BRANCH  18   7
ATOM      3  O   UNL     1      -9.913  -8.041  38.644  0.00  0.00    -0.272 OA
ATOM      7  N   UNL     1      -9.166  -8.368  40.829  0.00  0.00    -0.278 N 
ATOM     23  C   UNL     1      -9.765  -7.653  39.800  0.00  0.00    +0.255 C 
ATOM     40  H   UNL     1      -8.897  -7.861  41.668  0.00  0.00    +0.155 HD
BRANCH  23  27
ATOM     27  C   UNL     1     -10.232  -6.290  40.269  0.00  0.00    +0.324 C 
BRANCH  27   4
ATOM      4  O   UNL     1     -10.311  -5.389  39.184  0.00  0.00    -0.483 OA
BRANCH   4  33
ATOM     33  C   UNL     1     -10.049  -4.065  39.449  0.00  0.00    +0.121 A 
ATOM     35  C   UNL     1      -9.250  -3.716  40.538  0.00  0.00    +0.045 A 
ATOM     36  C   UNL     1     -10.583  -3.072  38.628  0.00  0.00    +0.045 A 
ATOM     37  C   UNL     1      -8.986  -2.373  40.806  0.00  0.00    +0.004 A 
ATOM     38  C   UNL     1     -10.319  -1.729  38.896  0.00  0.00    +0.004 A 
ATOM     39  C   UNL     1      -9.521  -1.379  39.986  0.00  0.00    +0.000 A 
ENDBRANCH   4  33
ENDBRANCH  27   4
ENDBRANCH  23  27
ENDBRANCH  18   7
TORSDOF 6
ENDMDL
MODEL 8
REMARK VINA RESULT:      -7.0      2.249      8.137
REMARK  Name = 7155496
REMARK  6 active torsions:
REMARK  status: ('A' for Active; 'I' for Inactive)
REMARK    1  A    between atoms: O_4  and  C_27
REMARK    2  A    between atoms: O_4  and  C_33
REMARK    3  A    between atoms: N_7  and  C_18
REMARK    4  A    between atoms: C_17  and  C_20
REMARK    5  A    between atoms: C_23  and  C_27
REMARK    6  A    between atoms: C_26  and  C_28
REMARK                            x       y       z     vdW  Elec       q    Type
REMARK                         _______ _______ _______ _____ _____    ______ ____
ROOT
ATOM      1  O   UNL     1      -8.278 -12.410  16.488  0.00  0.00    -0.266 OA
ATOM      2  O   UNL     1     -13.252 -11.749  15.231  0.00  0.00    -0.270 OA
ATOM      5  N   UNL     1     -12.860 -10.573  17.216  0.00  0.00    -0.297 N 
ATOM      6  N   UNL     1      -9.746 -11.003  17.640  0.00  0.00    -0.310 N 
ATOM      8  C   UNL     1     -11.727 -11.886  19.002  0.00  0.00    +0.027 C 
ATOM      9  C   UNL     1     -11.340  -9.461  18.835  0.00  0.00    +0.054 C 
ATOM     10  C   UNL     1     -11.552 -10.611  19.819  0.00  0.00    +0.018 C 
ATOM     11  C   UNL     1     -12.943 -11.761  18.066  0.00  0.00    +0.113 C 
ATOM     12  C   UNL     1     -10.431 -12.162  18.231  0.00  0.00    +0.130 C 
ATOM     13  C   UNL     1     -12.581  -9.317  17.933  0.00  0.00    +0.117 C 
ATOM     14  C   UNL     1     -10.109  -9.695  17.979  0.00  0.00    +0.027 A 
ATOM     15  C   UNL     1      -9.396  -8.654  17.519  0.00  0.00    +0.024 A 
ATOM     16  C   UNL     1      -8.647 -11.277  16.800  0.00  0.00    +0.273 A 
ATOM     17  C   UNL     1     -13.019 -10.703  15.835  0.00  0.00    +0.247 C 
ATOM     18  C   UNL     1      -7.895 -10.088  16.286  0.00  0.00    +0.099 A 
ATOM     19  C   UNL     1      -8.268  -8.858  16.654  0.00  0.00    +0.030 A 
ENDROOT
BRANCH  17  20
ATOM     20  C   UNL     1     -12.882  -9.497  15.011  0.00  0.00    +0.037 A 
ATOM     21  C   UNL     1     -11.626  -9.117  14.535  0.00  0.00    +0.013 A 
ATOM     22  C   UNL     1     -14.006  -8.730  14.705  0.00  0.00    +0.013 A 
ATOM     24  C   UNL     1     -11.496  -7.970  13.752  0.00  0.00    +0.009 A 
ATOM     25  C   UNL     1     -13.875  -7.583  13.923  0.00  0.00    +0.009 A 
ATOM     26  C   UNL     1     -12.621  -7.202  13.446  0.00  0.00    -0.018 A 
BRANCH  26  28
ATOM     28  C   UNL     1     -12.485  -6.013  12.634  0.00  0.00    -0.018 A 
ATOM     29  C   UNL     1     -12.503  -4.753  13.234  0.00  0.00    +0.008 A 
ATOM     30  C   UNL     1     -12.335  -6.124  11.252  0.00  0.00    +0.008 A 
ATOM     31  C   UNL     1     -12.371  -3.606  12.452  0.00  0.00    +0.001 A 
ATOM     32  C   UNL     1     -12.204  -4.977  10.470  0.00  0.00    +0.001 A 
ATOM     34  C   UNL     1     -12.223  -3.718  11.069  0.00  0.00    +0.000 A 
ENDBRANCH  26  28
ENDBRANCH  17  20
BRANCH  18   7
ATOM      3  O   UNL     1      -5.141 -10.297  17.057  0.00  0.00    -0.272 OA
ATOM      7  N   UNL     1      -6.837 -10.311  15.457  0.00  0.00    -0.278 N 
ATOM     23  C   UNL     1      -5.523 -10.402  15.894  0.00  0.00    +0.255 C 
ATOM     40  H   UNL     1      -7.000 -10.185  14.461  0.00  0.00    +0.155 HD
BRANCH  23  27
ATOM     27  C   UNL     1      -4.569 -10.653  14.744  0.00  0.00    +0.324 C 
BRANCH  27   4
ATOM      4  O   UNL     1      -5.260 -10.643  13.512  0.00  0.00    -0.483 OA
BRANCH   4  33
ATOM     33  C   UNL     1      -4.580 -10.165  12.416  0.00  0.00    +0.121 A 
ATOM     35  C   UNL     1      -5.247  -9.398  11.461  0.00  0.00    +0.045 A 
ATOM     36  C   UNL     1      -3.223 -10.447  12.261  0.00  0.00    +0.045 A 
ATOM     37  C   UNL     1      -4.557  -8.914  10.350  0.00  0.00    +0.004 A 
ATOM     38  C   UNL     1      -2.533  -9.964  11.149  0.00  0.00    +0.004 A 
ATOM     39  C   UNL     1      -3.200  -9.197  10.193  0.00  0.00    +0.000 A 
ENDBRANCH   4  33
ENDBRANCH  27   4
ENDBRANCH  23  27
ENDBRANCH  18   7
TORSDOF 6
ENDMDL
MODEL 9
REMARK VINA RESULT:      -7.0     26.070     29.713
REMARK  Name = 7155496
REMARK  6 active torsions:
REMARK  status: ('A' for Active; 'I' for Inactive)
REMARK    1  A    between atoms: O_4  and  C_27
REMARK    2  A    between atoms: O_4  and  C_33
REMARK    3  A    between atoms: N_7  and  C_18
REMARK    4  A    between atoms: C_17  and  C_20
REMARK    5  A    between atoms: C_23  and  C_27
REMARK    6  A    between atoms: C_26  and  C_28
REMARK                            x       y       z     vdW  Elec       q    Type
REMARK                         _______ _______ _______ _____ _____    ______ ____
ROOT
ATOM      1  O   UNL     1       8.756   7.661   2.187  0.00  0.00    -0.266 OA
ATOM      2  O   UNL     1      10.901  11.151   5.346  0.00  0.00    -0.270 OA
ATOM      5  N   UNL     1      10.510   9.210   6.594  0.00  0.00    -0.297 N 
ATOM      6  N   UNL     1       9.380   7.222   4.396  0.00  0.00    -0.310 N 
ATOM      8  C   UNL     1       8.204   8.293   6.404  0.00  0.00    +0.027 C 
ATOM      9  C   UNL     1      10.101   6.767   6.766  0.00  0.00    +0.054 C 
ATOM     10  C   UNL     1       8.648   7.041   7.153  0.00  0.00    +0.018 C 
ATOM     11  C   UNL     1       9.088   9.492   6.793  0.00  0.00    +0.113 C 
ATOM     12  C   UNL     1       8.244   8.010   4.898  0.00  0.00    +0.130 C 
ATOM     13  C   UNL     1      10.983   7.954   7.199  0.00  0.00    +0.117 C 
ATOM     14  C   UNL     1      10.236   6.547   5.271  0.00  0.00    +0.027 A 
ATOM     15  C   UNL     1      11.196   5.740   4.790  0.00  0.00    +0.024 A 
ATOM     16  C   UNL     1       9.497   7.101   2.997  0.00  0.00    +0.273 A 
ATOM     17  C   UNL     1      11.291  10.100   5.853  0.00  0.00    +0.247 C 
ATOM     18  C   UNL     1      10.596   6.214   2.500  0.00  0.00    +0.099 A 
ATOM     19  C   UNL     1      11.378   5.573   3.375  0.00  0.00    +0.030 A 
ENDROOT
BRANCH  17  20
ATOM     20  C   UNL     1      12.701   9.760   5.636  0.00  0.00    +0.037 A 
ATOM     21  C   UNL     1      13.675  10.233   6.516  0.00  0.00    +0.013 A 
ATOM     22  C   UNL     1      13.068   8.966   4.550  0.00  0.00    +0.013 A 
ATOM     24  C   UNL     1      15.016   9.910   6.309  0.00  0.00    +0.009 A 
ATOM     25  C   UNL     1      14.409   8.643   4.343  0.00  0.00    +0.009 A 
ATOM     26  C   UNL     1      15.383   9.115   5.222  0.00  0.00    -0.018 A 
BRANCH  26  28
ATOM     28  C   UNL     1      16.774   8.780   5.008  0.00  0.00    -0.018 A 
ATOM     29  C   UNL     1      17.676   8.832   6.071  0.00  0.00    +0.008 A 
ATOM     30  C   UNL     1      17.214   8.404   3.739  0.00  0.00    +0.008 A 
ATOM     31  C   UNL     1      19.017   8.508   5.865  0.00  0.00    +0.001 A 
ATOM     32  C   UNL     1      18.555   8.081   3.533  0.00  0.00    +0.001 A 
ATOM     34  C   UNL     1      19.456   8.133   4.595  0.00  0.00    +0.000 A 
ENDBRANCH  26  28
ENDBRANCH  17  20
BRANCH  18   7
ATOM      3  O   UNL     1       9.686   4.031   0.880  0.00  0.00    -0.272 OA
ATOM      7  N   UNL     1      10.754   6.085   1.152  0.00  0.00    -0.278 N 
ATOM     23  C   UNL     1      10.288   4.999   0.424  0.00  0.00    +0.255 C 
ATOM     40  H   UNL     1      11.429   6.702   0.708  0.00  0.00    +0.155 HD
BRANCH  23  27
ATOM     27  C   UNL     1      10.613   5.137  -1.050  0.00  0.00    +0.324 C 
BRANCH  27   4
ATOM      4  O   UNL     1       9.694   4.406  -1.834  0.00  0.00    -0.483 OA
BRANCH   4  33
ATOM     33  C   UNL     1      10.128   3.971  -3.065  0.00  0.00    +0.121 A 
ATOM     35  C   UNL     1       9.260   3.272  -3.904  0.00  0.00    +0.045 A 
ATOM     36  C   UNL     1      11.436   4.230  -3.473  0.00  0.00    +0.045 A 
ATOM     37  C   UNL     1       9.702   2.831  -5.151  0.00  0.00    +0.004 A 
ATOM     38  C   UNL     1      11.877   3.789  -4.721  0.00  0.00    +0.004 A 
ATOM     39  C   UNL     1      11.010   3.089  -5.560  0.00  0.00    +0.000 A 
ENDBRANCH   4  33
ENDBRANCH  27   4
ENDBRANCH  23  27
ENDBRANCH  18   7
TORSDOF 6
ENDMDL
MODEL 10
REMARK VINA RESULT:      -7.0     26.339     30.355
REMARK  Name = 7155496
REMARK  6 active torsions:
REMARK  status: ('A' for Active; 'I' for Inactive)
REMARK    1  A    between atoms: O_4  and  C_27
REMARK    2  A    between atoms: O_4  and  C_33
REMARK    3  A    between atoms: N_7  and  C_18
REMARK    4  A    between atoms: C_17  and  C_20
REMARK    5  A    between atoms: C_23  and  C_27
REMARK    6  A    between atoms: C_26  and  C_28
REMARK                            x       y       z     vdW  Elec       q    Type
REMARK                         _______ _______ _______ _____ _____    ______ ____
ROOT
ATOM      1  O   UNL     1      22.118  -4.929  24.612  0.00  0.00    -0.266 OA
ATOM      2  O   UNL     1      17.970  -4.855  27.700  0.00  0.00    -0.270 OA
ATOM      5  N   UNL     1      17.316  -4.017  25.615  0.00  0.00    -0.297 N 
ATOM      6  N   UNL     1      19.968  -4.344  23.906  0.00  0.00    -0.310 N 
ATOM      8  C   UNL     1      18.779  -2.221  24.706  0.00  0.00    +0.027 C 
ATOM      9  C   UNL     1      17.633  -3.761  23.165  0.00  0.00    +0.054 C 
ATOM     10  C   UNL     1      18.041  -2.303  23.374  0.00  0.00    +0.018 C 
ATOM     11  C   UNL     1      17.866  -2.683  25.856  0.00  0.00    +0.113 C 
ATOM     12  C   UNL     1      20.060  -3.058  24.614  0.00  0.00    +0.130 C 
ATOM     13  C   UNL     1      16.683  -4.199  24.298  0.00  0.00    +0.117 C 
ATOM     14  C   UNL     1      18.847  -4.669  23.136  0.00  0.00    +0.027 A 
ATOM     15  C   UNL     1      18.832  -5.796  22.405  0.00  0.00    +0.024 A 
ATOM     16  C   UNL     1      21.102  -5.180  23.962  0.00  0.00    +0.273 A 
ATOM     17  C   UNL     1      17.442  -5.001  26.599  0.00  0.00    +0.247 C 
ATOM     18  C   UNL     1      21.034  -6.440  23.156  0.00  0.00    +0.099 A 
ATOM     19  C   UNL     1      19.949  -6.698  22.418  0.00  0.00    +0.030 A 
ENDROOT
BRANCH  17  20
ATOM     20  C   UNL     1      16.921  -6.339  26.303  0.00  0.00    +0.037 A 
ATOM     21  C   UNL     1      17.697  -7.246  25.581  0.00  0.00    +0.013 A 
ATOM     22  C   UNL     1      15.649  -6.706  26.743  0.00  0.00    +0.013 A 
ATOM     24  C   UNL     1      17.201  -8.519  25.298  0.00  0.00    +0.009 A 
ATOM     25  C   UNL     1      15.153  -7.978  26.461  0.00  0.00    +0.009 A 
ATOM     26  C   UNL     1      15.928  -8.885  25.739  0.00  0.00    -0.018 A 
BRANCH  26  28
ATOM     28  C   UNL     1      15.414 -10.205  25.447  0.00  0.00    -0.018 A 
ATOM     29  C   UNL     1      15.752 -10.836  24.249  0.00  0.00    +0.008 A 
ATOM     30  C   UNL     1      14.581 -10.848  26.362  0.00  0.00    +0.008 A 
ATOM     31  C   UNL     1      15.257 -12.110  23.967  0.00  0.00    +0.001 A 
ATOM     32  C   UNL     1      14.086 -12.121  26.080  0.00  0.00    +0.001 A 
ATOM     34  C   UNL     1      14.423 -12.751  24.883  0.00  0.00    +0.000 A 
ENDBRANCH  26  28
ENDBRANCH  17  20
BRANCH  18   7
ATOM      3  O   UNL     1      21.246  -8.846  24.701  0.00  0.00    -0.272 OA
ATOM      7  N   UNL     1      22.104  -7.284  23.198  0.00  0.00    -0.278 N 
ATOM     23  C   UNL     1      22.143  -8.438  23.968  0.00  0.00    +0.255 C 
ATOM     40  H   UNL     1      22.980  -6.934  22.819  0.00  0.00    +0.155 HD
BRANCH  23  27
ATOM     27  C   UNL     1      23.460  -9.169  23.809  0.00  0.00    +0.324 C 
BRANCH  27   4
ATOM      4  O   UNL     1      23.304 -10.307  22.987  0.00  0.00    -0.483 OA
BRANCH   4  33
ATOM     33  C   UNL     1      23.580 -10.157  21.649  0.00  0.00    +0.121 A 
ATOM     35  C   UNL     1      24.898  -9.990  21.223  0.00  0.00    +0.045 A 
ATOM     36  C   UNL     1      22.542 -10.171  20.717  0.00  0.00    +0.045 A 
ATOM     37  C   UNL     1      25.177  -9.836  19.865  0.00  0.00    +0.004 A 
ATOM     38  C   UNL     1      22.822 -10.017  19.359  0.00  0.00    +0.004 A 
ATOM     39  C   UNL     1      24.139  -9.849  18.933  0.00  0.00    +0.000 A 
ENDBRANCH   4  33
ENDBRANCH  27   4
ENDBRANCH  23  27
ENDBRANCH  18   7
TORSDOF 6
ENDMDL
