MODEL 1
REMARK VINA RESULT:      -7.6      0.000      0.000
REMARK  Name = 7142705
REMARK  8 active torsions:
REMARK  status: ('A' for Active; 'I' for Inactive)
REMARK    1  A    between atoms: N_6  and  C_20
REMARK    2  A    between atoms: C_15  and  C_18
REMARK    3  A    between atoms: C_18  and  C_19
REMARK    4  A    between atoms: C_19  and  C_22
REMARK    5  A    between atoms: C_19  and  C_23
REMARK    6  A    between atoms: C_19  and  C_24
REMARK    7  A    between atoms: C_25  and  C_26
REMARK    8  A    between atoms: C_31  and  C_32
REMARK                            x       y       z     vdW  Elec       q    Type
REMARK                         _______ _______ _______ _____ _____    ______ ____
ROOT
ATOM      1  O   UNL     1      11.619   7.349  17.774  0.00  0.00    -0.276 OA
ATOM      2  O   UNL     1      15.495   6.203  21.288  0.00  0.00    -0.266 OA
ATOM      4  N   UNL     1      11.686   8.933  19.474  0.00  0.00    -0.301 N 
ATOM      5  N   UNL     1      14.158   8.120  21.332  0.00  0.00    -0.310 N 
ATOM      8  C   UNL     1      11.644   8.044  21.808  0.00  0.00    +0.027 C 
ATOM      9  C   UNL     1      12.734  10.198  21.343  0.00  0.00    +0.054 C 
ATOM     10  C   UNL     1      11.843   9.459  22.339  0.00  0.00    +0.018 C 
ATOM     11  C   UNL     1      10.974   8.076  20.424  0.00  0.00    +0.113 C 
ATOM     12  C   UNL     1      12.028  10.273  19.975  0.00  0.00    +0.117 C 
ATOM     13  C   UNL     1      13.001   7.331  21.774  0.00  0.00    +0.130 C 
ATOM     14  C   UNL     1      14.077   9.509  21.193  0.00  0.00    +0.027 A 
ATOM     15  C   UNL     1      11.914   8.478  18.174  0.00  0.00    +0.216 C 
ATOM     16  C   UNL     1      15.176  10.225  20.901  0.00  0.00    +0.024 A 
ATOM     17  C   UNL     1      15.370   7.422  21.158  0.00  0.00    +0.273 A 
ATOM     20  C   UNL     1      16.566   8.253  20.809  0.00  0.00    +0.099 A 
ATOM     21  C   UNL     1      16.444   9.580  20.704  0.00  0.00    +0.030 A 
ENDROOT
BRANCH  20   6
ATOM      3  O   UNL     1      18.924   8.578  22.384  0.00  0.00    -0.270 OA
ATOM      6  N   UNL     1      17.756   7.614  20.619  0.00  0.00    -0.277 N 
ATOM     25  C   UNL     1      18.869   7.816  21.422  0.00  0.00    +0.248 C 
ATOM     33  H   UNL     1      17.828   7.085  19.756  0.00  0.00    +0.155 HD
BRANCH  25  26
ATOM     26  C   UNL     1      20.070   7.012  21.073  0.00  0.00    +0.037 A 
ATOM     27  C   UNL     1      19.922   5.661  20.836  0.00  0.00    +0.014 A 
ATOM     28  C   UNL     1      21.293   7.643  20.996  0.00  0.00    +0.014 A 
ATOM     29  C   UNL     1      21.049   4.908  20.507  0.00  0.00    +0.019 A 
ATOM     30  C   UNL     1      22.421   6.890  20.668  0.00  0.00    +0.019 A 
ATOM     31  C   UNL     1      22.298   5.523  20.423  0.00  0.00    +0.052 A 
BRANCH  31  32
ATOM      7  N   UNL     1      24.392   4.122  19.816  0.00  0.00    -0.191 NA
ATOM     32  C   UNL     1      23.453   4.750  20.089  0.00  0.00    +0.099 C 
ENDBRANCH  31  32
ENDBRANCH  25  26
ENDBRANCH  20   6
BRANCH  15  18
ATOM     18  C   UNL     1      12.569   9.450  17.225  0.00  0.00    +0.102 C 
BRANCH  18  19
ATOM     19  C   UNL     1      14.048   9.119  16.958  0.00  0.00    -0.029 C 
ATOM     22  C   UNL     1      14.887  10.346  17.362  0.00  0.00    +0.011 C 
ATOM     23  C   UNL     1      14.509   7.914  17.796  0.00  0.00    +0.011 C 
ATOM     24  C   UNL     1      14.293   8.828  15.468  0.00  0.00    +0.011 C 
ENDBRANCH  18  19
ENDBRANCH  15  18
TORSDOF 5
ENDMDL
MODEL 2
REMARK VINA RESULT:      -7.4      3.666      7.252
REMARK  Name = 7142705
REMARK  8 active torsions:
REMARK  status: ('A' for Active; 'I' for Inactive)
REMARK    1  A    between atoms: N_6  and  C_20
REMARK    2  A    between atoms: C_15  and  C_18
REMARK    3  A    between atoms: C_18  and  C_19
REMARK    4  A    between atoms: C_19  and  C_22
REMARK    5  A    between atoms: C_19  and  C_23
REMARK    6  A    between atoms: C_19  and  C_24
REMARK    7  A    between atoms: C_25  and  C_26
REMARK    8  A    between atoms: C_31  and  C_32
REMARK                            x       y       z     vdW  Elec       q    Type
REMARK                         _______ _______ _______ _____ _____    ______ ____
ROOT
ATOM      1  O   UNL     1      15.202   8.985  22.725  0.00  0.00    -0.276 OA
ATOM      2  O   UNL     1      13.854  11.558  18.226  0.00  0.00    -0.266 OA
ATOM      4  N   UNL     1      13.337   8.007  21.744  0.00  0.00    -0.301 N 
ATOM      5  N   UNL     1      12.837   9.610  19.022  0.00  0.00    -0.310 N 
ATOM      8  C   UNL     1      11.455   9.549  21.176  0.00  0.00    +0.027 C 
ATOM      9  C   UNL     1      11.778   7.488  19.875  0.00  0.00    +0.054 C 
ATOM     10  C   UNL     1      10.722   8.391  20.509  0.00  0.00    +0.018 C 
ATOM     11  C   UNL     1      12.419   9.026  22.255  0.00  0.00    +0.113 C 
ATOM     12  C   UNL     1      12.704   6.927  20.971  0.00  0.00    +0.117 C 
ATOM     13  C   UNL     1      12.183  10.363  20.100  0.00  0.00    +0.130 C 
ATOM     14  C   UNL     1      12.597   8.243  18.845  0.00  0.00    +0.027 A 
ATOM     15  C   UNL     1      14.690   8.069  22.076  0.00  0.00    +0.216 C 
ATOM     16  C   UNL     1      13.112   7.598  17.785  0.00  0.00    +0.024 A 
ATOM     17  C   UNL     1      13.629  10.351  18.122  0.00  0.00    +0.273 A 
ATOM     20  C   UNL     1      14.206   9.590  16.968  0.00  0.00    +0.099 A 
ATOM     21  C   UNL     1      13.934   8.288  16.830  0.00  0.00    +0.030 A 
ENDROOT
BRANCH  20   6
ATOM      3  O   UNL     1      13.321  10.883  14.583  0.00  0.00    -0.270 OA
ATOM      6  N   UNL     1      14.989  10.268  16.082  0.00  0.00    -0.277 N 
ATOM     25  C   UNL     1      14.498  10.877  14.937  0.00  0.00    +0.248 C 
ATOM     33  H   UNL     1      15.989  10.177  16.233  0.00  0.00    +0.155 HD
BRANCH  25  26
ATOM     26  C   UNL     1      15.502  11.589  14.103  0.00  0.00    +0.037 A 
ATOM     27  C   UNL     1      16.741  11.865  14.644  0.00  0.00    +0.014 A 
ATOM     28  C   UNL     1      15.163  11.949  12.816  0.00  0.00    +0.014 A 
ATOM     29  C   UNL     1      17.683  12.533  13.860  0.00  0.00    +0.019 A 
ATOM     30  C   UNL     1      16.105  12.616  12.033  0.00  0.00    +0.019 A 
ATOM     31  C   UNL     1      17.365  12.908  12.556  0.00  0.00    +0.052 A 
BRANCH  31  32
ATOM      7  N   UNL     1      19.115  14.150  11.103  0.00  0.00    -0.191 NA
ATOM     32  C   UNL     1      18.330  13.593  11.755  0.00  0.00    +0.099 C 
ENDBRANCH  31  32
ENDBRANCH  25  26
ENDBRANCH  20   6
BRANCH  15  18
ATOM     18  C   UNL     1      15.558   6.934  21.592  0.00  0.00    +0.102 C 
BRANCH  18  19
ATOM     19  C   UNL     1      16.501   7.349  20.448  0.00  0.00    -0.029 C 
ATOM     22  C   UNL     1      16.260   6.390  19.267  0.00  0.00    +0.011 C 
ATOM     23  C   UNL     1      16.210   8.785  19.981  0.00  0.00    +0.011 C 
ATOM     24  C   UNL     1      17.974   7.239  20.876  0.00  0.00    +0.011 C 
ENDBRANCH  18  19
ENDBRANCH  15  18
TORSDOF 5
ENDMDL
MODEL 3
REMARK VINA RESULT:      -6.6     31.830     33.521
REMARK  Name = 7142705
REMARK  8 active torsions:
REMARK  status: ('A' for Active; 'I' for Inactive)
REMARK    1  A    between atoms: N_6  and  C_20
REMARK    2  A    between atoms: C_15  and  C_18
REMARK    3  A    between atoms: C_18  and  C_19
REMARK    4  A    between atoms: C_19  and  C_22
REMARK    5  A    between atoms: C_19  and  C_23
REMARK    6  A    between atoms: C_19  and  C_24
REMARK    7  A    between atoms: C_25  and  C_26
REMARK    8  A    between atoms: C_31  and  C_32
REMARK                            x       y       z     vdW  Elec       q    Type
REMARK                         _______ _______ _______ _____ _____    ______ ____
ROOT
ATOM      1  O   UNL     1     -16.614  -5.323  10.631  0.00  0.00    -0.276 OA
ATOM      2  O   UNL     1     -11.864  -7.506   9.465  0.00  0.00    -0.266 OA
ATOM      4  N   UNL     1     -14.911  -4.276  11.817  0.00  0.00    -0.301 N 
ATOM      5  N   UNL     1     -12.191  -5.640  10.835  0.00  0.00    -0.310 N 
ATOM      8  C   UNL     1     -13.378  -5.775  13.098  0.00  0.00    +0.027 C 
ATOM      9  C   UNL     1     -12.559  -3.607  12.277  0.00  0.00    +0.054 C 
ATOM     10  C   UNL     1     -12.521  -4.569  13.463  0.00  0.00    +0.018 C 
ATOM     11  C   UNL     1     -14.827  -5.341  12.817  0.00  0.00    +0.113 C 
ATOM     12  C   UNL     1     -14.007  -3.137  12.039  0.00  0.00    +0.117 C 
ATOM     13  C   UNL     1     -12.747  -6.488  11.897  0.00  0.00    +0.130 C 
ATOM     14  C   UNL     1     -12.018  -4.265  11.022  0.00  0.00    +0.027 A 
ATOM     15  C   UNL     1     -15.864  -4.358  10.801  0.00  0.00    +0.216 C 
ATOM     16  C   UNL     1     -11.401  -3.528  10.083  0.00  0.00    +0.024 A 
ATOM     17  C   UNL     1     -11.750  -6.296   9.667  0.00  0.00    +0.273 A 
ATOM     20  C   UNL     1     -11.091  -5.435   8.634  0.00  0.00    +0.099 A 
ATOM     21  C   UNL     1     -10.931  -4.127   8.865  0.00  0.00    +0.030 A 
ENDROOT
BRANCH  20   6
ATOM      3  O   UNL     1      -8.476  -6.468   8.146  0.00  0.00    -0.270 OA
ATOM      6  N   UNL     1     -10.662  -6.028   7.484  0.00  0.00    -0.277 N 
ATOM     25  C   UNL     1      -9.374  -6.513   7.308  0.00  0.00    +0.248 C 
ATOM     33  H   UNL     1     -11.304  -5.965   6.702  0.00  0.00    +0.155 HD
BRANCH  25  26
ATOM     26  C   UNL     1      -9.098  -7.148   5.993  0.00  0.00    +0.037 A 
ATOM     27  C   UNL     1     -10.063  -7.087   5.008  0.00  0.00    +0.014 A 
ATOM     28  C   UNL     1      -7.886  -7.776   5.799  0.00  0.00    +0.014 A 
ATOM     29  C   UNL     1      -9.803  -7.683   3.774  0.00  0.00    +0.019 A 
ATOM     30  C   UNL     1      -7.627  -8.372   4.564  0.00  0.00    +0.019 A 
ATOM     31  C   UNL     1      -8.585  -8.325   3.552  0.00  0.00    +0.052 A 
BRANCH  31  32
ATOM      7  N   UNL     1      -8.105  -9.435   1.260  0.00  0.00    -0.191 NA
ATOM     32  C   UNL     1      -8.320  -8.937   2.288  0.00  0.00    +0.099 C 
ENDBRANCH  31  32
ENDBRANCH  25  26
ENDBRANCH  20   6
BRANCH  15  18
ATOM     18  C   UNL     1     -15.955  -3.180   9.863  0.00  0.00    +0.102 C 
BRANCH  18  19
ATOM     19  C   UNL     1     -15.353  -3.472   8.477  0.00  0.00    -0.029 C 
ATOM     22  C   UNL     1     -16.491  -3.389   7.442  0.00  0.00    +0.011 C 
ATOM     23  C   UNL     1     -14.280  -2.433   8.109  0.00  0.00    +0.011 C 
ATOM     24  C   UNL     1     -14.741  -4.881   8.422  0.00  0.00    +0.011 C 
ENDBRANCH  18  19
ENDBRANCH  15  18
TORSDOF 5
ENDMDL
MODEL 4
REMARK VINA RESULT:      -6.5     27.358     30.798
REMARK  Name = 7142705
REMARK  8 active torsions:
REMARK  status: ('A' for Active; 'I' for Inactive)
REMARK    1  A    between atoms: N_6  and  C_20
REMARK    2  A    between atoms: C_15  and  C_18
REMARK    3  A    between atoms: C_18  and  C_19
REMARK    4  A    between atoms: C_19  and  C_22
REMARK    5  A    between atoms: C_19  and  C_23
REMARK    6  A    between atoms: C_19  and  C_24
REMARK    7  A    between atoms: C_25  and  C_26
REMARK    8  A    between atoms: C_31  and  C_32
REMARK                            x       y       z     vdW  Elec       q    Type
REMARK                         _______ _______ _______ _____ _____    ______ ____
ROOT
ATOM      1  O   UNL     1      -4.269 -14.540  12.475  0.00  0.00    -0.276 OA
ATOM      2  O   UNL     1      -6.598 -10.076  14.302  0.00  0.00    -0.266 OA
ATOM      4  N   UNL     1      -2.672 -12.957  13.059  0.00  0.00    -0.301 N 
ATOM      5  N   UNL     1      -4.295 -10.474  14.255  0.00  0.00    -0.310 N 
ATOM      8  C   UNL     1      -2.968 -10.679  12.076  0.00  0.00    +0.027 C 
ATOM      9  C   UNL     1      -1.818 -10.936  14.234  0.00  0.00    +0.054 C 
ATOM     10  C   UNL     1      -1.793 -10.179  12.908  0.00  0.00    +0.018 C 
ATOM     11  C   UNL     1      -2.845 -12.191  11.823  0.00  0.00    +0.113 C 
ATOM     12  C   UNL     1      -1.639 -12.444  13.972  0.00  0.00    +0.117 C 
ATOM     13  C   UNL     1      -4.274 -10.320  12.796  0.00  0.00    +0.130 C 
ATOM     14  C   UNL     1      -3.117 -10.693  14.978  0.00  0.00    +0.027 A 
ATOM     15  C   UNL     1      -3.406 -14.127  13.254  0.00  0.00    +0.216 C 
ATOM     16  C   UNL     1      -3.142 -10.715  16.321  0.00  0.00    +0.024 A 
ATOM     17  C   UNL     1      -5.538 -10.289  14.894  0.00  0.00    +0.273 A 
ATOM     20  C   UNL     1      -5.528 -10.346  16.390  0.00  0.00    +0.099 A 
ATOM     21  C   UNL     1      -4.374 -10.539  17.039  0.00  0.00    +0.030 A 
ENDROOT
BRANCH  20   6
ATOM      3  O   UNL     1      -7.147 -12.427  17.481  0.00  0.00    -0.270 OA
ATOM      6  N   UNL     1      -6.713 -10.185  17.045  0.00  0.00    -0.277 N 
ATOM     25  C   UNL     1      -7.455 -11.240  17.555  0.00  0.00    +0.248 C 
ATOM     33  H   UNL     1      -7.099  -9.247  17.012  0.00  0.00    +0.155 HD
BRANCH  25  26
ATOM     26  C   UNL     1      -8.710 -10.866  18.258  0.00  0.00    +0.037 A 
ATOM     27  C   UNL     1      -9.480  -9.841  17.747  0.00  0.00    +0.014 A 
ATOM     28  C   UNL     1      -9.065 -11.557  19.397  0.00  0.00    +0.014 A 
ATOM     29  C   UNL     1     -10.658  -9.491  18.407  0.00  0.00    +0.019 A 
ATOM     30  C   UNL     1     -10.244 -11.207  20.057  0.00  0.00    +0.019 A 
ATOM     31  C   UNL     1     -11.039 -10.174  19.562  0.00  0.00    +0.052 A 
BRANCH  31  32
ATOM      7  N   UNL     1     -13.226  -9.521  20.789  0.00  0.00    -0.191 NA
ATOM     32  C   UNL     1     -12.246  -9.814  20.239  0.00  0.00    +0.099 C 
ENDBRANCH  31  32
ENDBRANCH  25  26
ENDBRANCH  20   6
BRANCH  15  18
ATOM     18  C   UNL     1      -3.107 -14.912  14.506  0.00  0.00    +0.102 C 
BRANCH  18  19
ATOM     19  C   UNL     1      -2.401 -16.249  14.220  0.00  0.00    -0.029 C 
ATOM     22  C   UNL     1      -1.873 -16.800  15.558  0.00  0.00    +0.011 C 
ATOM     23  C   UNL     1      -3.376 -17.275  13.618  0.00  0.00    +0.011 C 
ATOM     24  C   UNL     1      -1.210 -16.055  13.266  0.00  0.00    +0.011 C 
ENDBRANCH  18  19
ENDBRANCH  15  18
TORSDOF 5
ENDMDL
MODEL 5
REMARK VINA RESULT:      -6.5      3.493     10.769
REMARK  Name = 7142705
REMARK  8 active torsions:
REMARK  status: ('A' for Active; 'I' for Inactive)
REMARK    1  A    between atoms: N_6  and  C_20
REMARK    2  A    between atoms: C_15  and  C_18
REMARK    3  A    between atoms: C_18  and  C_19
REMARK    4  A    between atoms: C_19  and  C_22
REMARK    5  A    between atoms: C_19  and  C_23
REMARK    6  A    between atoms: C_19  and  C_24
REMARK    7  A    between atoms: C_25  and  C_26
REMARK    8  A    between atoms: C_31  and  C_32
REMARK                            x       y       z     vdW  Elec       q    Type
REMARK                         _______ _______ _______ _____ _____    ______ ____
ROOT
ATOM      1  O   UNL     1      23.726   2.998  25.553  0.00  0.00    -0.276 OA
ATOM      2  O   UNL     1      21.184   2.962  20.839  0.00  0.00    -0.266 OA
ATOM      4  N   UNL     1      25.208   3.422  23.814  0.00  0.00    -0.301 N 
ATOM      5  N   UNL     1      23.436   3.503  21.153  0.00  0.00    -0.310 N 
ATOM      8  C   UNL     1      25.178   1.792  21.921  0.00  0.00    +0.027 C 
ATOM      9  C   UNL     1      25.852   4.122  21.514  0.00  0.00    +0.054 C 
ATOM     10  C   UNL     1      26.169   2.669  21.165  0.00  0.00    +0.018 C 
ATOM     11  C   UNL     1      25.313   2.011  23.437  0.00  0.00    +0.113 C 
ATOM     12  C   UNL     1      26.043   4.342  23.027  0.00  0.00    +0.117 C 
ATOM     13  C   UNL     1      23.762   2.096  21.418  0.00  0.00    +0.130 C 
ATOM     14  C   UNL     1      24.434   4.483  21.116  0.00  0.00    +0.027 A 
ATOM     15  C   UNL     1      24.420   3.787  24.906  0.00  0.00    +0.216 C 
ATOM     16  C   UNL     1      24.132   5.742  20.757  0.00  0.00    +0.024 A 
ATOM     17  C   UNL     1      22.093   3.794  20.838  0.00  0.00    +0.273 A 
ATOM     20  C   UNL     1      21.793   5.213  20.468  0.00  0.00    +0.099 A 
ATOM     21  C   UNL     1      22.783   6.112  20.428  0.00  0.00    +0.030 A 
ENDROOT
BRANCH  20   6
ATOM      3  O   UNL     1      19.961   6.579  22.177  0.00  0.00    -0.270 OA
ATOM      6  N   UNL     1      20.503   5.538  20.169  0.00  0.00    -0.277 N 
ATOM     25  C   UNL     1      19.660   6.206  21.046  0.00  0.00    +0.248 C 
ATOM     33  H   UNL     1      20.144   5.131  19.313  0.00  0.00    +0.155 HD
BRANCH  25  26
ATOM     26  C   UNL     1      18.294   6.494  20.534  0.00  0.00    +0.037 A 
ATOM     27  C   UNL     1      17.847   5.821  19.415  0.00  0.00    +0.014 A 
ATOM     28  C   UNL     1      17.518   7.421  21.195  0.00  0.00    +0.014 A 
ATOM     29  C   UNL     1      16.565   6.091  18.936  0.00  0.00    +0.019 A 
ATOM     30  C   UNL     1      16.236   7.691  20.716  0.00  0.00    +0.019 A 
ATOM     31  C   UNL     1      15.760   7.026  19.586  0.00  0.00    +0.052 A 
BRANCH  31  32
ATOM      7  N   UNL     1      13.380   7.528  18.694  0.00  0.00    -0.191 NA
ATOM     32  C   UNL     1      14.447   7.303  19.094  0.00  0.00    +0.099 C 
ENDBRANCH  31  32
ENDBRANCH  25  26
ENDBRANCH  20   6
BRANCH  15  18
ATOM     18  C   UNL     1      24.435   5.244  25.292  0.00  0.00    +0.102 C 
BRANCH  18  19
ATOM     19  C   UNL     1      23.125   5.970  24.938  0.00  0.00    -0.029 C 
ATOM     22  C   UNL     1      23.486   7.227  24.125  0.00  0.00    +0.011 C 
ATOM     23  C   UNL     1      22.210   5.078  24.081  0.00  0.00    +0.011 C 
ATOM     24  C   UNL     1      22.371   6.406  26.206  0.00  0.00    +0.011 C 
ENDBRANCH  18  19
ENDBRANCH  15  18
TORSDOF 5
ENDMDL
MODEL 6
REMARK VINA RESULT:      -6.5     13.619     15.169
REMARK  Name = 7142705
REMARK  8 active torsions:
REMARK  status: ('A' for Active; 'I' for Inactive)
REMARK    1  A    between atoms: N_6  and  C_20
REMARK    2  A    between atoms: C_15  and  C_18
REMARK    3  A    between atoms: C_18  and  C_19
REMARK    4  A    between atoms: C_19  and  C_22
REMARK    5  A    between atoms: C_19  and  C_23
REMARK    6  A    between atoms: C_19  and  C_24
REMARK    7  A    between atoms: C_25  and  C_26
REMARK    8  A    between atoms: C_31  and  C_32
REMARK                            x       y       z     vdW  Elec       q    Type
REMARK                         _______ _______ _______ _____ _____    ______ ____
ROOT
ATOM      1  O   UNL     1      10.156   4.714   3.847  0.00  0.00    -0.276 OA
ATOM      2  O   UNL     1      13.884   6.326   7.339  0.00  0.00    -0.266 OA
ATOM      4  N   UNL     1       9.356   6.455   5.163  0.00  0.00    -0.301 N 
ATOM      5  N   UNL     1      11.796   7.333   7.034  0.00  0.00    -0.310 N 
ATOM      8  C   UNL     1       9.596   6.170   7.633  0.00  0.00    +0.027 C 
ATOM      9  C   UNL     1       9.558   8.429   6.664  0.00  0.00    +0.054 C 
ATOM     10  C   UNL     1       9.066   7.583   7.837  0.00  0.00    +0.018 C 
ATOM     11  C   UNL     1       9.079   5.586   6.307  0.00  0.00    +0.113 C 
ATOM     12  C   UNL     1       8.989   7.868   5.347  0.00  0.00    +0.117 C 
ATOM     13  C   UNL     1      11.129   6.201   7.689  0.00  0.00    +0.130 C 
ATOM     14  C   UNL     1      11.074   8.450   6.604  0.00  0.00    +0.027 A 
ATOM     15  C   UNL     1       9.854   5.903   3.982  0.00  0.00    +0.216 C 
ATOM     16  C   UNL     1      11.716   9.523   6.113  0.00  0.00    +0.024 A 
ATOM     17  C   UNL     1      13.203   7.279   6.957  0.00  0.00    +0.273 A 
ATOM     20  C   UNL     1      13.880   8.485   6.381  0.00  0.00    +0.099 A 
ATOM     21  C   UNL     1      13.148   9.537   6.000  0.00  0.00    +0.030 A 
ENDROOT
BRANCH  20   6
ATOM      3  O   UNL     1      15.383   8.350   3.959  0.00  0.00    -0.270 OA
ATOM      6  N   UNL     1      15.239   8.467   6.277  0.00  0.00    -0.277 N 
ATOM     25  C   UNL     1      15.913   8.401   5.066  0.00  0.00    +0.248 C 
ATOM     33  H   UNL     1      15.737   8.357   7.155  0.00  0.00    +0.155 HD
BRANCH  25  26
ATOM     26  C   UNL     1      17.397   8.416   5.152  0.00  0.00    +0.037 A 
ATOM     27  C   UNL     1      18.132   8.049   4.043  0.00  0.00    +0.014 A 
ATOM     28  C   UNL     1      17.991   8.797   6.336  0.00  0.00    +0.014 A 
ATOM     29  C   UNL     1      19.525   8.064   4.125  0.00  0.00    +0.019 A 
ATOM     30  C   UNL     1      19.384   8.812   6.417  0.00  0.00    +0.019 A 
ATOM     31  C   UNL     1      20.150   8.446   5.311  0.00  0.00    +0.052 A 
BRANCH  31  32
ATOM      7  N   UNL     1      22.736   8.470   5.462  0.00  0.00    -0.191 NA
ATOM     32  C   UNL     1      21.577   8.459   5.394  0.00  0.00    +0.099 C 
ENDBRANCH  31  32
ENDBRANCH  25  26
ENDBRANCH  20   6
BRANCH  15  18
ATOM     18  C   UNL     1      10.026   6.843   2.816  0.00  0.00    +0.102 C 
BRANCH  18  19
ATOM     19  C   UNL     1      11.503   7.144   2.504  0.00  0.00    -0.029 C 
ATOM     22  C   UNL     1      11.680   8.674   2.486  0.00  0.00    +0.011 C 
ATOM     23  C   UNL     1      12.429   6.557   3.583  0.00  0.00    +0.011 C 
ATOM     24  C   UNL     1      11.904   6.589   1.128  0.00  0.00    +0.011 C 
ENDBRANCH  18  19
ENDBRANCH  15  18
TORSDOF 5
ENDMDL
MODEL 7
REMARK VINA RESULT:      -6.4     26.968     29.307
REMARK  Name = 7142705
REMARK  8 active torsions:
REMARK  status: ('A' for Active; 'I' for Inactive)
REMARK    1  A    between atoms: N_6  and  C_20
REMARK    2  A    between atoms: C_15  and  C_18
REMARK    3  A    between atoms: C_18  and  C_19
REMARK    4  A    between atoms: C_19  and  C_22
REMARK    5  A    between atoms: C_19  and  C_23
REMARK    6  A    between atoms: C_19  and  C_24
REMARK    7  A    between atoms: C_25  and  C_26
REMARK    8  A    between atoms: C_31  and  C_32
REMARK                            x       y       z     vdW  Elec       q    Type
REMARK                         _______ _______ _______ _____ _____    ______ ____
ROOT
ATOM      1  O   UNL     1     -13.782  12.229  15.006  0.00  0.00    -0.276 OA
ATOM      2  O   UNL     1     -13.109  11.234  20.225  0.00  0.00    -0.266 OA
ATOM      4  N   UNL     1     -11.593  12.665  15.653  0.00  0.00    -0.301 N 
ATOM      5  N   UNL     1     -11.412  11.849  18.740  0.00  0.00    -0.310 N 
ATOM      8  C   UNL     1     -11.307  14.156  17.637  0.00  0.00    +0.027 C 
ATOM      9  C   UNL     1      -9.589  12.475  17.117  0.00  0.00    +0.054 C 
ATOM     10  C   UNL     1      -9.803  13.912  17.590  0.00  0.00    +0.018 C 
ATOM     11  C   UNL     1     -11.928  13.962  16.243  0.00  0.00    +0.113 C 
ATOM     12  C   UNL     1     -10.166  12.307  15.698  0.00  0.00    +0.117 C 
ATOM     13  C   UNL     1     -11.930  13.222  18.680  0.00  0.00    +0.130 C 
ATOM     14  C   UNL     1     -10.245  11.485  18.061  0.00  0.00    +0.027 A 
ATOM     15  C   UNL     1     -12.590  11.912  15.033  0.00  0.00    +0.216 C 
ATOM     16  C   UNL     1      -9.724  10.257  18.222  0.00  0.00    +0.024 A 
ATOM     17  C   UNL     1     -12.089  10.954  19.593  0.00  0.00    +0.273 A 
ATOM     20  C   UNL     1     -11.491   9.588  19.726  0.00  0.00    +0.099 A 
ATOM     21  C   UNL     1     -10.363   9.291  19.071  0.00  0.00    +0.030 A 
ENDROOT
BRANCH  20   6
ATOM      3  O   UNL     1     -13.434   7.665  18.905  0.00  0.00    -0.270 OA
ATOM      6  N   UNL     1     -12.123   8.687  20.531  0.00  0.00    -0.277 N 
ATOM     25  C   UNL     1     -13.061   7.775  20.070  0.00  0.00    +0.248 C 
ATOM     33  H   UNL     1     -11.975   8.821  21.526  0.00  0.00    +0.155 HD
BRANCH  25  26
ATOM     26  C   UNL     1     -13.626   6.857  21.094  0.00  0.00    +0.037 A 
ATOM     27  C   UNL     1     -14.945   7.010  21.471  0.00  0.00    +0.014 A 
ATOM     28  C   UNL     1     -12.814   5.882  21.634  0.00  0.00    +0.014 A 
ATOM     29  C   UNL     1     -15.474   6.147  22.431  0.00  0.00    +0.019 A 
ATOM     30  C   UNL     1     -13.344   5.020  22.594  0.00  0.00    +0.019 A 
ATOM     31  C   UNL     1     -14.674   5.153  22.992  0.00  0.00    +0.052 A 
BRANCH  31  32
ATOM      7  N   UNL     1     -15.658   3.554  24.779  0.00  0.00    -0.191 NA
ATOM     32  C   UNL     1     -15.217   4.271  23.978  0.00  0.00    +0.099 C 
ENDBRANCH  31  32
ENDBRANCH  25  26
ENDBRANCH  20   6
BRANCH  15  18
ATOM     18  C   UNL     1     -12.153  10.632  14.366  0.00  0.00    +0.102 C 
BRANCH  18  19
ATOM     19  C   UNL     1     -12.581   9.376  15.146  0.00  0.00    -0.029 C 
ATOM     22  C   UNL     1     -11.309   8.579  15.493  0.00  0.00    +0.011 C 
ATOM     23  C   UNL     1     -13.295   9.751  16.456  0.00  0.00    +0.011 C 
ATOM     24  C   UNL     1     -13.502   8.483  14.299  0.00  0.00    +0.011 C 
ENDBRANCH  18  19
ENDBRANCH  15  18
TORSDOF 5
ENDMDL
MODEL 8
REMARK VINA RESULT:      -6.3     14.883     18.878
REMARK  Name = 7142705
REMARK  8 active torsions:
REMARK  status: ('A' for Active; 'I' for Inactive)
REMARK    1  A    between atoms: N_6  and  C_20
REMARK    2  A    between atoms: C_15  and  C_18
REMARK    3  A    between atoms: C_18  and  C_19
REMARK    4  A    between atoms: C_19  and  C_22
REMARK    5  A    between atoms: C_19  and  C_23
REMARK    6  A    between atoms: C_19  and  C_24
REMARK    7  A    between atoms: C_25  and  C_26
REMARK    8  A    between atoms: C_31  and  C_32
REMARK                            x       y       z     vdW  Elec       q    Type
REMARK                         _______ _______ _______ _____ _____    ______ ____
ROOT
ATOM      1  O   UNL     1       7.543   8.600   5.153  0.00  0.00    -0.276 OA
ATOM      2  O   UNL     1      10.162   4.418   3.072  0.00  0.00    -0.266 OA
ATOM      4  N   UNL     1       9.416   8.083   6.427  0.00  0.00    -0.301 N 
ATOM      5  N   UNL     1      10.877   5.681   4.904  0.00  0.00    -0.310 N 
ATOM      8  C   UNL     1       9.637   5.700   7.143  0.00  0.00    +0.027 C 
ATOM      9  C   UNL     1      11.652   7.078   6.853  0.00  0.00    +0.054 C 
ATOM     10  C   UNL     1      11.003   6.017   7.739  0.00  0.00    +0.018 C 
ATOM     11  C   UNL     1       8.759   6.962   7.104  0.00  0.00    +0.113 C 
ATOM     12  C   UNL     1      10.793   8.357   6.865  0.00  0.00    +0.117 C 
ATOM     13  C   UNL     1       9.832   5.091   5.749  0.00  0.00    +0.130 C 
ATOM     14  C   UNL     1      11.813   6.578   5.429  0.00  0.00    +0.027 A 
ATOM     15  C   UNL     1       8.698   8.847   5.507  0.00  0.00    +0.216 C 
ATOM     16  C   UNL     1      12.830   7.017   4.669  0.00  0.00    +0.024 A 
ATOM     17  C   UNL     1      10.951   5.221   3.574  0.00  0.00    +0.273 A 
ATOM     20  C   UNL     1      12.084   5.752   2.752  0.00  0.00    +0.099 A 
ATOM     21  C   UNL     1      12.965   6.594   3.303  0.00  0.00    +0.030 A 
ENDROOT
BRANCH  20   6
ATOM      3  O   UNL     1      13.435   3.416   1.824  0.00  0.00    -0.270 OA
ATOM      6  N   UNL     1      12.184   5.341   1.456  0.00  0.00    -0.277 N 
ATOM     25  C   UNL     1      12.856   4.192   1.067  0.00  0.00    +0.248 C 
ATOM     33  H   UNL     1      11.857   6.010   0.766  0.00  0.00    +0.155 HD
BRANCH  25  26
ATOM     26  C   UNL     1      12.837   3.895  -0.389  0.00  0.00    +0.037 A 
ATOM     27  C   UNL     1      11.719   3.294  -0.932  0.00  0.00    +0.014 A 
ATOM     28  C   UNL     1      13.936   4.231  -1.151  0.00  0.00    +0.014 A 
ATOM     29  C   UNL     1      11.701   3.017  -2.300  0.00  0.00    +0.019 A 
ATOM     30  C   UNL     1      13.918   3.953  -2.519  0.00  0.00    +0.019 A 
ATOM     31  C   UNL     1      12.801   3.347  -3.092  0.00  0.00    +0.052 A 
BRANCH  31  32
ATOM      7  N   UNL     1      12.768   2.828  -5.631  0.00  0.00    -0.191 NA
ATOM     32  C   UNL     1      12.782   3.061  -4.492  0.00  0.00    +0.099 C 
ENDBRANCH  31  32
ENDBRANCH  25  26
ENDBRANCH  20   6
BRANCH  15  18
ATOM     18  C   UNL     1       9.409  10.041   4.921  0.00  0.00    +0.102 C 
BRANCH  18  19
ATOM     19  C   UNL     1       9.832   9.826   3.456  0.00  0.00    -0.029 C 
ATOM     22  C   UNL     1       9.075  10.851   2.591  0.00  0.00    +0.011 C 
ATOM     23  C   UNL     1      11.342  10.053   3.275  0.00  0.00    +0.011 C 
ATOM     24  C   UNL     1       9.466   8.412   2.975  0.00  0.00    +0.011 C 
ENDBRANCH  18  19
ENDBRANCH  15  18
TORSDOF 5
ENDMDL
MODEL 9
REMARK VINA RESULT:      -6.3     13.462     16.856
REMARK  Name = 7142705
REMARK  8 active torsions:
REMARK  status: ('A' for Active; 'I' for Inactive)
REMARK    1  A    between atoms: N_6  and  C_20
REMARK    2  A    between atoms: C_15  and  C_18
REMARK    3  A    between atoms: C_18  and  C_19
REMARK    4  A    between atoms: C_19  and  C_22
REMARK    5  A    between atoms: C_19  and  C_23
REMARK    6  A    between atoms: C_19  and  C_24
REMARK    7  A    between atoms: C_25  and  C_26
REMARK    8  A    between atoms: C_31  and  C_32
REMARK                            x       y       z     vdW  Elec       q    Type
REMARK                         _______ _______ _______ _____ _____    ______ ____
ROOT
ATOM      1  O   UNL     1      19.954  -2.266  24.589  0.00  0.00    -0.276 OA
ATOM      2  O   UNL     1      18.225  -5.370  28.598  0.00  0.00    -0.266 OA
ATOM      4  N   UNL     1      20.056  -4.511  23.997  0.00  0.00    -0.301 N 
ATOM      5  N   UNL     1      18.834  -6.127  26.472  0.00  0.00    -0.310 N 
ATOM      8  C   UNL     1      21.238  -6.020  25.599  0.00  0.00    +0.027 C 
ATOM      9  C   UNL     1      19.457  -6.921  24.163  0.00  0.00    +0.054 C 
ATOM     10  C   UNL     1      20.836  -7.220  24.750  0.00  0.00    +0.018 C 
ATOM     11  C   UNL     1      21.296  -4.746  24.740  0.00  0.00    +0.113 C 
ATOM     12  C   UNL     1      19.539  -5.675  23.261  0.00  0.00    +0.117 C 
ATOM     13  C   UNL     1      20.252  -5.884  26.766  0.00  0.00    +0.130 C 
ATOM     14  C   UNL     1      18.433  -6.698  25.260  0.00  0.00    +0.027 A 
ATOM     15  C   UNL     1      19.505  -3.230  23.963  0.00  0.00    +0.216 C 
ATOM     16  C   UNL     1      17.144  -7.019  25.057  0.00  0.00    +0.024 A 
ATOM     17  C   UNL     1      17.918  -5.854  27.507  0.00  0.00    +0.273 A 
ATOM     20  C   UNL     1      16.487  -6.203  27.233  0.00  0.00    +0.099 A 
ATOM     21  C   UNL     1      16.154  -6.764  26.066  0.00  0.00    +0.030 A 
ENDROOT
BRANCH  20   6
ATOM      3  O   UNL     1      15.662  -7.993  29.297  0.00  0.00    -0.270 OA
ATOM      6  N   UNL     1      15.567  -5.942  28.204  0.00  0.00    -0.277 N 
ATOM     25  C   UNL     1      15.208  -6.857  29.184  0.00  0.00    +0.248 C 
ATOM     33  H   UNL     1      15.045  -5.080  28.083  0.00  0.00    +0.155 HD
BRANCH  25  26
ATOM     26  C   UNL     1      14.203  -6.383  30.171  0.00  0.00    +0.037 A 
ATOM     27  C   UNL     1      14.535  -5.341  31.013  0.00  0.00    +0.014 A 
ATOM     28  C   UNL     1      12.970  -6.999  30.214  0.00  0.00    +0.014 A 
ATOM     29  C   UNL     1      13.591  -4.896  31.939  0.00  0.00    +0.019 A 
ATOM     30  C   UNL     1      12.026  -6.554  31.140  0.00  0.00    +0.019 A 
ATOM     31  C   UNL     1      12.337  -5.503  32.002  0.00  0.00    +0.052 A 
BRANCH  31  32
ATOM      7  N   UNL     1      10.586  -4.678  33.724  0.00  0.00    -0.191 NA
ATOM     32  C   UNL     1      11.371  -5.048  32.952  0.00  0.00    +0.099 C 
ENDBRANCH  31  32
ENDBRANCH  25  26
ENDBRANCH  20   6
BRANCH  15  18
ATOM     18  C   UNL     1      18.281  -3.044  23.103  0.00  0.00    +0.102 C 
BRANCH  18  19
ATOM     19  C   UNL     1      17.084  -2.470  23.882  0.00  0.00    -0.029 C 
ATOM     22  C   UNL     1      15.804  -2.797  23.089  0.00  0.00    +0.011 C 
ATOM     23  C   UNL     1      16.972  -3.108  25.277  0.00  0.00    +0.011 C 
ATOM     24  C   UNL     1      17.195  -0.943  24.025  0.00  0.00    +0.011 C 
ENDBRANCH  18  19
ENDBRANCH  15  18
TORSDOF 5
ENDMDL
MODEL 10
REMARK VINA RESULT:      -6.2     21.520     24.142
REMARK  Name = 7142705
REMARK  8 active torsions:
REMARK  status: ('A' for Active; 'I' for Inactive)
REMARK    1  A    between atoms: N_6  and  C_20
REMARK    2  A    between atoms: C_15  and  C_18
REMARK    3  A    between atoms: C_18  and  C_19
REMARK    4  A    between atoms: C_19  and  C_22
REMARK    5  A    between atoms: C_19  and  C_23
REMARK    6  A    between atoms: C_19  and  C_24
REMARK    7  A    between atoms: C_25  and  C_26
REMARK    8  A    between atoms: C_31  and  C_32
REMARK                            x       y       z     vdW  Elec       q    Type
REMARK                         _______ _______ _______ _____ _____    ______ ____
ROOT
ATOM      1  O   UNL     1       8.969  -8.912  37.348  0.00  0.00    -0.276 OA
ATOM      2  O   UNL     1       9.764  -9.189  32.059  0.00  0.00    -0.266 OA
ATOM      4  N   UNL     1       8.391  -6.909  36.321  0.00  0.00    -0.301 N 
ATOM      5  N   UNL     1       8.802  -7.381  33.185  0.00  0.00    -0.310 N 
ATOM      8  C   UNL     1      10.114  -5.907  34.815  0.00  0.00    +0.027 C 
ATOM      9  C   UNL     1       7.730  -5.458  34.411  0.00  0.00    +0.054 C 
ATOM     10  C   UNL     1       9.120  -4.823  34.417  0.00  0.00    +0.018 C 
ATOM     11  C   UNL     1       9.780  -6.459  36.211  0.00  0.00    +0.113 C 
ATOM     12  C   UNL     1       7.385  -5.957  35.827  0.00  0.00    +0.117 C 
ATOM     13  C   UNL     1      10.106  -7.005  33.745  0.00  0.00    +0.130 C 
ATOM     14  C   UNL     1       7.661  -6.609  33.426  0.00  0.00    +0.027 A 
ATOM     15  C   UNL     1       8.109  -8.127  36.940  0.00  0.00    +0.216 C 
ATOM     16  C   UNL     1       6.503  -6.904  32.811  0.00  0.00    +0.024 A 
ATOM     17  C   UNL     1       8.782  -8.491  32.316  0.00  0.00    +0.273 A 
ATOM     20  C   UNL     1       7.467  -8.802  31.670  0.00  0.00    +0.099 A 
ATOM     21  C   UNL     1       6.407  -8.024  31.917  0.00  0.00    +0.030 A 
ENDROOT
BRANCH  20   6
ATOM      3  O   UNL     1       6.364 -11.359  32.292  0.00  0.00    -0.270 OA
ATOM      6  N   UNL     1       7.403  -9.875  30.833  0.00  0.00    -0.277 N 
ATOM     25  C   UNL     1       6.852 -11.096  31.195  0.00  0.00    +0.248 C 
ATOM     33  H   UNL     1       7.919  -9.776  29.965  0.00  0.00    +0.155 HD
BRANCH  25  26
ATOM     26  C   UNL     1       6.851 -12.142  30.139  0.00  0.00    +0.037 A 
ATOM     27  C   UNL     1       5.854 -13.096  30.147  0.00  0.00    +0.014 A 
ATOM     28  C   UNL     1       7.844 -12.123  29.183  0.00  0.00    +0.014 A 
ATOM     29  C   UNL     1       5.853 -14.077  29.155  0.00  0.00    +0.019 A 
ATOM     30  C   UNL     1       7.843 -13.104  28.190  0.00  0.00    +0.019 A 
ATOM     31  C   UNL     1       6.847 -14.080  28.177  0.00  0.00    +0.052 A 
BRANCH  31  32
ATOM      7  N   UNL     1       6.845 -15.904  26.336  0.00  0.00    -0.191 NA
ATOM     32  C   UNL     1       6.846 -15.086  27.162  0.00  0.00    +0.099 C 
ENDBRANCH  31  32
ENDBRANCH  25  26
ENDBRANCH  20   6
BRANCH  15  18
ATOM     18  C   UNL     1       6.652  -8.482  37.101  0.00  0.00    +0.102 C 
BRANCH  18  19
ATOM     19  C   UNL     1       6.197  -9.592  36.137  0.00  0.00    -0.029 C 
ATOM     22  C   UNL     1       5.774 -10.808  36.983  0.00  0.00    +0.011 C 
ATOM     23  C   UNL     1       4.992  -9.138  35.296  0.00  0.00    +0.011 C 
ATOM     24  C   UNL     1       7.340 -10.020  35.202  0.00  0.00    +0.011 C 
ENDBRANCH  18  19
ENDBRANCH  15  18
TORSDOF 5
ENDMDL
