MODEL 1
REMARK VINA RESULT:      -7.0      0.000      0.000
REMARK  Name = 45783776
REMARK  7 active torsions:
REMARK  status: ('A' for Active; 'I' for Inactive)
REMARK    1  A    between atoms: N_4  and  C_14
REMARK    2  A    between atoms: N_7  and  C_23
REMARK    3  A    between atoms: N_9  and  C_27
REMARK    4  A    between atoms: N_9  and  C_28
REMARK    5  A    between atoms: C_10  and  C_15
REMARK    6  A    between atoms: C_14  and  C_16
REMARK    7  A    between atoms: C_19  and  C_22
REMARK                            x       y       z     vdW  Elec       q    Type
REMARK                         _______ _______ _______ _____ _____    ______ ____
ROOT
ATOM      4  N   UNL     1      12.572   8.796  18.439  0.00  0.00    -0.287 NA
ATOM     10  C   UNL     1      13.369   7.596  18.112  0.00  0.00    +0.146 C 
ATOM     11  C   UNL     1      13.962   7.887  16.721  0.00  0.00    +0.030 C 
ATOM     12  C   UNL     1      13.395   9.243  16.324  0.00  0.00    +0.017 C 
ATOM     13  C   UNL     1      12.139   9.365  17.163  0.00  0.00    +0.085 C 
ENDROOT
BRANCH  10  15
ATOM      1  O   UNL     1      14.024   6.621  20.256  0.00  0.00    -0.336 OA
ATOM      5  N   UNL     1      15.703   7.607  19.147  0.00  0.00    -0.190 NA
ATOM      6  N   UNL     1      15.163   6.470  21.058  0.00  0.00    -0.056 NA
ATOM     15  C   UNL     1      14.430   7.301  19.151  0.00  0.00    +0.245 A 
ATOM     19  C   UNL     1      16.111   7.076  20.337  0.00  0.00    +0.204 A 
BRANCH  19  22
ATOM      8  N   UNL     1      19.162   8.359  22.032  0.00  0.00    -0.240 NA
ATOM     22  C   UNL     1      17.473   7.169  20.775  0.00  0.00    +0.041 A 
ATOM     24  C   UNL     1      18.412   6.214  20.403  0.00  0.00    +0.016 A 
ATOM     25  C   UNL     1      17.895   8.213  21.583  0.00  0.00    +0.124 A 
ATOM     26  C   UNL     1      19.725   6.330  20.844  0.00  0.00    +0.044 A 
ATOM     27  C   UNL     1      20.046   7.411  21.649  0.00  0.00    +0.118 A 
BRANCH  27   9
ATOM      9  N   UNL     1      21.388   7.515  22.091  0.00  0.00    -0.332 N 
ATOM     28  C   UNL     1      21.744   8.091  23.348  0.00  0.00    +0.127 C 
ATOM     29  H   UNL     1      22.116   7.379  21.397  0.00  0.00    +0.147 HD
ENDBRANCH  27   9
ENDBRANCH  19  22
ENDBRANCH  10  15
BRANCH   4  14
ATOM     14  C   UNL     1      11.448   8.515  19.323  0.00  0.00    +0.120 C 
BRANCH  14  16
ATOM     16  C   UNL     1      11.546   9.282  20.616  0.00  0.00    -0.033 A 
ATOM     17  C   UNL     1      10.828   8.859  21.734  0.00  0.00    +0.007 A 
ATOM     18  C   UNL     1      12.355  10.415  20.693  0.00  0.00    +0.007 A 
ATOM     20  C   UNL     1      10.919   9.570  22.930  0.00  0.00    +0.033 A 
ATOM     21  C   UNL     1      12.446  11.127  21.890  0.00  0.00    +0.033 A 
ATOM     23  C   UNL     1      11.728  10.704  23.009  0.00  0.00    +0.126 A 
BRANCH  23   7
ATOM      2  O   UNL     1      12.529  12.462  24.266  0.00  0.00    -0.126 OA
ATOM      3  O   UNL     1      11.188  11.015  25.229  0.00  0.00    -0.126 OA
ATOM      7  N   UNL     1      11.820  11.428  24.227  0.00  0.00    +0.056 N 
ENDBRANCH  23   7
ENDBRANCH  14  16
ENDBRANCH   4  14
TORSDOF 6
ENDMDL
MODEL 2
REMARK VINA RESULT:      -6.8      3.067      7.996
REMARK  Name = 45783776
REMARK  7 active torsions:
REMARK  status: ('A' for Active; 'I' for Inactive)
REMARK    1  A    between atoms: N_4  and  C_14
REMARK    2  A    between atoms: N_7  and  C_23
REMARK    3  A    between atoms: N_9  and  C_27
REMARK    4  A    between atoms: N_9  and  C_28
REMARK    5  A    between atoms: C_10  and  C_15
REMARK    6  A    between atoms: C_14  and  C_16
REMARK    7  A    between atoms: C_19  and  C_22
REMARK                            x       y       z     vdW  Elec       q    Type
REMARK                         _______ _______ _______ _____ _____    ______ ____
ROOT
ATOM      4  N   UNL     1      12.876   7.999  20.699  0.00  0.00    -0.287 NA
ATOM     10  C   UNL     1      11.607   8.751  20.636  0.00  0.00    +0.146 C 
ATOM     11  C   UNL     1      10.566   7.815  21.277  0.00  0.00    +0.030 C 
ATOM     12  C   UNL     1      11.330   6.542  21.613  0.00  0.00    +0.017 C 
ATOM     13  C   UNL     1      12.520   6.581  20.676  0.00  0.00    +0.085 C 
ENDROOT
BRANCH  10  15
ATOM      1  O   UNL     1      11.924  11.172  20.533  0.00  0.00    -0.336 OA
ATOM      5  N   UNL     1      11.569  10.383  22.600  0.00  0.00    -0.190 NA
ATOM      6  N   UNL     1      11.959  12.283  21.386  0.00  0.00    -0.056 NA
ATOM     15  C   UNL     1      11.690  10.095  21.328  0.00  0.00    +0.245 A 
ATOM     19  C   UNL     1      11.741  11.737  22.586  0.00  0.00    +0.204 A 
BRANCH  19  22
ATOM      8  N   UNL     1      12.852  13.477  25.679  0.00  0.00    -0.240 NA
ATOM     22  C   UNL     1      11.689  12.514  23.790  0.00  0.00    +0.041 A 
ATOM     24  C   UNL     1      10.491  13.052  24.244  0.00  0.00    +0.016 A 
ATOM     25  C   UNL     1      12.832  12.753  24.537  0.00  0.00    +0.124 A 
ATOM     26  C   UNL     1      10.472  13.802  25.415  0.00  0.00    +0.044 A 
ATOM     27  C   UNL     1      11.668  13.984  26.089  0.00  0.00    +0.118 A 
BRANCH  27   9
ATOM      9  N   UNL     1      11.632  14.751  27.280  0.00  0.00    -0.332 N 
ATOM     28  C   UNL     1      12.811  15.108  28.002  0.00  0.00    +0.127 C 
ATOM     29  H   UNL     1      10.733  14.852  27.738  0.00  0.00    +0.147 HD
ENDBRANCH  27   9
ENDBRANCH  19  22
ENDBRANCH  10  15
BRANCH   4  14
ATOM     14  C   UNL     1      13.805   8.349  19.632  0.00  0.00    +0.120 C 
BRANCH  14  16
ATOM     16  C   UNL     1      15.158   7.721  19.836  0.00  0.00    -0.033 A 
ATOM     17  C   UNL     1      15.972   8.143  20.887  0.00  0.00    +0.007 A 
ATOM     18  C   UNL     1      15.596   6.716  18.973  0.00  0.00    +0.007 A 
ATOM     20  C   UNL     1      17.225   7.560  21.074  0.00  0.00    +0.033 A 
ATOM     21  C   UNL     1      16.850   6.134  19.161  0.00  0.00    +0.033 A 
ATOM     23  C   UNL     1      17.664   6.556  20.212  0.00  0.00    +0.126 A 
BRANCH  23   7
ATOM      2  O   UNL     1      19.787   6.559  21.112  0.00  0.00    -0.126 OA
ATOM      3  O   UNL     1      19.187   4.860  19.859  0.00  0.00    -0.126 OA
ATOM      7  N   UNL     1      18.941   5.963  20.403  0.00  0.00    +0.056 N 
ENDBRANCH  23   7
ENDBRANCH  14  16
ENDBRANCH   4  14
TORSDOF 6
ENDMDL
MODEL 3
REMARK VINA RESULT:      -6.7     30.855     32.784
REMARK  Name = 45783776
REMARK  7 active torsions:
REMARK  status: ('A' for Active; 'I' for Inactive)
REMARK    1  A    between atoms: N_4  and  C_14
REMARK    2  A    between atoms: N_7  and  C_23
REMARK    3  A    between atoms: N_9  and  C_27
REMARK    4  A    between atoms: N_9  and  C_28
REMARK    5  A    between atoms: C_10  and  C_15
REMARK    6  A    between atoms: C_14  and  C_16
REMARK    7  A    between atoms: C_19  and  C_22
REMARK                            x       y       z     vdW  Elec       q    Type
REMARK                         _______ _______ _______ _____ _____    ______ ____
ROOT
ATOM      4  N   UNL     1     -14.508   5.491  33.108  0.00  0.00    -0.287 NA
ATOM     10  C   UNL     1     -15.959   5.697  32.931  0.00  0.00    +0.146 C 
ATOM     11  C   UNL     1     -16.151   7.222  33.017  0.00  0.00    +0.030 C 
ATOM     12  C   UNL     1     -14.765   7.781  33.304  0.00  0.00    +0.017 C 
ATOM     13  C   UNL     1     -14.027   6.609  33.919  0.00  0.00    +0.085 C 
ENDROOT
BRANCH  10  15
ATOM      1  O   UNL     1     -17.560   4.299  31.723  0.00  0.00    -0.336 OA
ATOM      5  N   UNL     1     -16.029   5.279  30.413  0.00  0.00    -0.190 NA
ATOM      6  N   UNL     1     -17.848   3.890  30.415  0.00  0.00    -0.056 NA
ATOM     15  C   UNL     1     -16.476   5.114  31.632  0.00  0.00    +0.245 A 
ATOM     19  C   UNL     1     -16.902   4.509  29.700  0.00  0.00    +0.204 A 
BRANCH  19  22
ATOM      8  N   UNL     1     -17.300   5.266  26.082  0.00  0.00    -0.240 NA
ATOM     22  C   UNL     1     -16.803   4.379  28.275  0.00  0.00    +0.041 A 
ATOM     24  C   UNL     1     -16.146   3.298  27.699  0.00  0.00    +0.016 A 
ATOM     25  C   UNL     1     -17.358   5.327  27.431  0.00  0.00    +0.124 A 
ATOM     26  C   UNL     1     -16.066   3.200  26.314  0.00  0.00    +0.044 A 
ATOM     27  C   UNL     1     -16.653   4.201  25.557  0.00  0.00    +0.118 A 
BRANCH  27   9
ATOM      9  N   UNL     1     -16.563   4.086  24.148  0.00  0.00    -0.332 N 
ATOM     28  C   UNL     1     -15.406   4.489  23.415  0.00  0.00    +0.127 C 
ATOM     29  H   UNL     1     -17.425   3.922  23.640  0.00  0.00    +0.147 HD
ENDBRANCH  27   9
ENDBRANCH  19  22
ENDBRANCH  10  15
BRANCH   4  14
ATOM     14  C   UNL     1     -14.179   4.201  33.703  0.00  0.00    +0.120 C 
BRANCH  14  16
ATOM     16  C   UNL     1     -14.163   3.098  32.678  0.00  0.00    -0.033 A 
ATOM     17  C   UNL     1     -14.885   1.926  32.903  0.00  0.00    +0.007 A 
ATOM     18  C   UNL     1     -13.425   3.250  31.504  0.00  0.00    +0.007 A 
ATOM     20  C   UNL     1     -14.868   0.905  31.953  0.00  0.00    +0.033 A 
ATOM     21  C   UNL     1     -13.409   2.228  30.554  0.00  0.00    +0.033 A 
ATOM     23  C   UNL     1     -14.131   1.055  30.779  0.00  0.00    +0.126 A 
BRANCH  23   7
ATOM      2  O   UNL     1     -13.122  -0.752  29.763  0.00  0.00    -0.126 OA
ATOM      3  O   UNL     1     -15.091  -0.109  29.035  0.00  0.00    -0.126 OA
ATOM      7  N   UNL     1     -14.114   0.015  29.812  0.00  0.00    +0.056 N 
ENDBRANCH  23   7
ENDBRANCH  14  16
ENDBRANCH   4  14
TORSDOF 6
ENDMDL
MODEL 4
REMARK VINA RESULT:      -6.5      3.427      6.941
REMARK  Name = 45783776
REMARK  7 active torsions:
REMARK  status: ('A' for Active; 'I' for Inactive)
REMARK    1  A    between atoms: N_4  and  C_14
REMARK    2  A    between atoms: N_7  and  C_23
REMARK    3  A    between atoms: N_9  and  C_27
REMARK    4  A    between atoms: N_9  and  C_28
REMARK    5  A    between atoms: C_10  and  C_15
REMARK    6  A    between atoms: C_14  and  C_16
REMARK    7  A    between atoms: C_19  and  C_22
REMARK                            x       y       z     vdW  Elec       q    Type
REMARK                         _______ _______ _______ _____ _____    ______ ____
ROOT
ATOM      4  N   UNL     1      13.035   7.699  20.673  0.00  0.00    -0.287 NA
ATOM     10  C   UNL     1      12.280   8.135  19.481  0.00  0.00    +0.146 C 
ATOM     11  C   UNL     1      10.904   8.561  20.024  0.00  0.00    +0.030 C 
ATOM     12  C   UNL     1      10.960   8.273  21.517  0.00  0.00    +0.017 C 
ATOM     13  C   UNL     1      12.046   7.223  21.638  0.00  0.00    +0.085 C 
ENDROOT
BRANCH  10  15
ATOM      1  O   UNL     1      12.891  10.491  19.252  0.00  0.00    -0.336 OA
ATOM      5  N   UNL     1      13.669   9.180  17.610  0.00  0.00    -0.190 NA
ATOM      6  N   UNL     1      13.603  11.331  18.387  0.00  0.00    -0.056 NA
ATOM     15  C   UNL     1      12.979   9.243  18.721  0.00  0.00    +0.245 A 
ATOM     19  C   UNL     1      14.032  10.485  17.445  0.00  0.00    +0.204 A 
BRANCH  19  22
ATOM      8  N   UNL     1      15.434  10.635  14.005  0.00  0.00    -0.240 NA
ATOM     22  C   UNL     1      14.823  10.912  16.327  0.00  0.00    +0.041 A 
ATOM     24  C   UNL     1      15.719  11.968  16.446  0.00  0.00    +0.016 A 
ATOM     25  C   UNL     1      14.719  10.284  15.097  0.00  0.00    +0.124 A 
ATOM     26  C   UNL     1      16.473  12.359  15.344  0.00  0.00    +0.044 A 
ATOM     27  C   UNL     1      16.295  11.667  14.157  0.00  0.00    +0.118 A 
BRANCH  27   9
ATOM      9  N   UNL     1      17.070  12.077  13.045  0.00  0.00    -0.332 N 
ATOM     28  C   UNL     1      16.555  12.100  11.713  0.00  0.00    +0.127 C 
ATOM     29  H   UNL     1      18.073  12.140  13.177  0.00  0.00    +0.147 HD
ENDBRANCH  27   9
ENDBRANCH  19  22
ENDBRANCH  10  15
BRANCH   4  14
ATOM     14  C   UNL     1      14.043   6.688  20.377  0.00  0.00    +0.120 C 
BRANCH  14  16
ATOM     16  C   UNL     1      15.437   7.192  20.638  0.00  0.00    -0.033 A 
ATOM     17  C   UNL     1      15.629   8.418  21.276  0.00  0.00    +0.007 A 
ATOM     18  C   UNL     1      16.537   6.431  20.243  0.00  0.00    +0.007 A 
ATOM     20  C   UNL     1      16.921   8.883  21.517  0.00  0.00    +0.033 A 
ATOM     21  C   UNL     1      17.830   6.897  20.484  0.00  0.00    +0.033 A 
ATOM     23  C   UNL     1      18.022   8.123  21.122  0.00  0.00    +0.126 A 
BRANCH  23   7
ATOM      2  O   UNL     1      19.544   9.835  21.382  0.00  0.00    -0.126 OA
ATOM      3  O   UNL     1      20.257   7.766  21.564  0.00  0.00    -0.126 OA
ATOM      7  N   UNL     1      19.338   8.598  21.368  0.00  0.00    +0.056 N 
ENDBRANCH  23   7
ENDBRANCH  14  16
ENDBRANCH   4  14
TORSDOF 6
ENDMDL
MODEL 5
REMARK VINA RESULT:      -6.5     26.998     30.746
REMARK  Name = 45783776
REMARK  7 active torsions:
REMARK  status: ('A' for Active; 'I' for Inactive)
REMARK    1  A    between atoms: N_4  and  C_14
REMARK    2  A    between atoms: N_7  and  C_23
REMARK    3  A    between atoms: N_9  and  C_27
REMARK    4  A    between atoms: N_9  and  C_28
REMARK    5  A    between atoms: C_10  and  C_15
REMARK    6  A    between atoms: C_14  and  C_16
REMARK    7  A    between atoms: C_19  and  C_22
REMARK                            x       y       z     vdW  Elec       q    Type
REMARK                         _______ _______ _______ _____ _____    ______ ____
ROOT
ATOM      4  N   UNL     1     -15.621   5.593  21.619  0.00  0.00    -0.287 NA
ATOM     10  C   UNL     1     -16.893   5.254  22.288  0.00  0.00    +0.146 C 
ATOM     11  C   UNL     1     -17.856   4.899  21.140  0.00  0.00    +0.030 C 
ATOM     12  C   UNL     1     -17.056   5.125  19.866  0.00  0.00    +0.017 C 
ATOM     13  C   UNL     1     -15.973   6.096  20.291  0.00  0.00    +0.085 C 
ENDROOT
BRANCH  10  15
ATOM      1  O   UNL     1     -16.726   2.868  22.794  0.00  0.00    -0.336 OA
ATOM      5  N   UNL     1     -16.622   4.196  24.596  0.00  0.00    -0.190 NA
ATOM      6  N   UNL     1     -16.579   2.018  23.897  0.00  0.00    -0.056 NA
ATOM     15  C   UNL     1     -16.742   4.132  23.294  0.00  0.00    +0.245 A 
ATOM     19  C   UNL     1     -16.524   2.874  24.922  0.00  0.00    +0.204 A 
BRANCH  19  22
ATOM      8  N   UNL     1     -16.558   0.674  27.920  0.00  0.00    -0.240 NA
ATOM     22  C   UNL     1     -16.373   2.443  26.282  0.00  0.00    +0.041 A 
ATOM     24  C   UNL     1     -15.915   3.315  27.262  0.00  0.00    +0.016 A 
ATOM     25  C   UNL     1     -16.679   1.145  26.658  0.00  0.00    +0.124 A 
ATOM     26  C   UNL     1     -15.779   2.867  28.572  0.00  0.00    +0.044 A 
ATOM     27  C   UNL     1     -16.110   1.550  28.846  0.00  0.00    +0.118 A 
BRANCH  27   9
ATOM      9  N   UNL     1     -15.965   1.110  30.185  0.00  0.00    -0.332 N 
ATOM     28  C   UNL     1     -15.183  -0.030  30.541  0.00  0.00    +0.127 C 
ATOM     29  H   UNL     1     -16.613   1.486  30.869  0.00  0.00    +0.147 HD
ENDBRANCH  27   9
ENDBRANCH  19  22
ENDBRANCH  10  15
BRANCH   4  14
ATOM     14  C   UNL     1     -14.813   6.545  22.370  0.00  0.00    +0.120 C 
BRANCH  14  16
ATOM     16  C   UNL     1     -13.727   7.151  21.522  0.00  0.00    -0.033 A 
ATOM     17  C   UNL     1     -13.857   8.457  21.048  0.00  0.00    +0.007 A 
ATOM     18  C   UNL     1     -12.589   6.406  21.211  0.00  0.00    +0.007 A 
ATOM     20  C   UNL     1     -12.850   9.017  20.263  0.00  0.00    +0.033 A 
ATOM     21  C   UNL     1     -11.582   6.967  20.424  0.00  0.00    +0.033 A 
ATOM     23  C   UNL     1     -11.713   8.273  19.951  0.00  0.00    +0.126 A 
BRANCH  23   7
ATOM      2  O   UNL     1      -9.904   9.674  19.668  0.00  0.00    -0.126 OA
ATOM      3  O   UNL     1     -10.594   8.500  17.947  0.00  0.00    -0.126 OA
ATOM      7  N   UNL     1     -10.688   8.843  19.150  0.00  0.00    +0.056 N 
ENDBRANCH  23   7
ENDBRANCH  14  16
ENDBRANCH   4  14
TORSDOF 6
ENDMDL
MODEL 6
REMARK VINA RESULT:      -6.5      5.608      8.845
REMARK  Name = 45783776
REMARK  7 active torsions:
REMARK  status: ('A' for Active; 'I' for Inactive)
REMARK    1  A    between atoms: N_4  and  C_14
REMARK    2  A    between atoms: N_7  and  C_23
REMARK    3  A    between atoms: N_9  and  C_27
REMARK    4  A    between atoms: N_9  and  C_28
REMARK    5  A    between atoms: C_10  and  C_15
REMARK    6  A    between atoms: C_14  and  C_16
REMARK    7  A    between atoms: C_19  and  C_22
REMARK                            x       y       z     vdW  Elec       q    Type
REMARK                         _______ _______ _______ _____ _____    ______ ____
ROOT
ATOM      4  N   UNL     1      16.299  12.614  14.582  0.00  0.00    -0.287 NA
ATOM     10  C   UNL     1      14.885  12.455  14.976  0.00  0.00    +0.146 C 
ATOM     11  C   UNL     1      14.085  12.782  13.702  0.00  0.00    +0.030 C 
ATOM     12  C   UNL     1      15.130  13.170  12.665  0.00  0.00    +0.017 C 
ATOM     13  C   UNL     1      16.320  13.597  13.500  0.00  0.00    +0.085 C 
ENDROOT
BRANCH  10  15
ATOM      1  O   UNL     1      14.653  10.046  14.635  0.00  0.00    -0.336 OA
ATOM      5  N   UNL     1      14.257  10.715  16.737  0.00  0.00    -0.190 NA
ATOM      6  N   UNL     1      14.338   8.889  15.359  0.00  0.00    -0.056 NA
ATOM     15  C   UNL     1      14.583  11.075  15.520  0.00  0.00    +0.245 A 
ATOM     19  C   UNL     1      14.118   9.365  16.589  0.00  0.00    +0.204 A 
BRANCH  19  22
ATOM      8  N   UNL     1      12.147   7.035  18.713  0.00  0.00    -0.240 NA
ATOM     22  C   UNL     1      13.757   8.520  17.691  0.00  0.00    +0.041 A 
ATOM     24  C   UNL     1      14.611   8.354  18.774  0.00  0.00    +0.016 A 
ATOM     25  C   UNL     1      12.547   7.845  17.708  0.00  0.00    +0.124 A 
ATOM     26  C   UNL     1      14.235   7.528  19.828  0.00  0.00    +0.044 A 
ATOM     27  C   UNL     1      13.004   6.897  19.750  0.00  0.00    +0.118 A 
BRANCH  27   9
ATOM      9  N   UNL     1      12.635   6.059  20.831  0.00  0.00    -0.332 N 
ATOM     28  C   UNL     1      11.368   6.154  21.482  0.00  0.00    +0.127 C 
ATOM     29  H   UNL     1      13.376   5.537  21.286  0.00  0.00    +0.147 HD
ENDBRANCH  27   9
ENDBRANCH  19  22
ENDBRANCH  10  15
BRANCH   4  14
ATOM     14  C   UNL     1      17.165  12.998  15.690  0.00  0.00    +0.120 C 
BRANCH  14  16
ATOM     16  C   UNL     1      18.562  12.464  15.523  0.00  0.00    -0.033 A 
ATOM     17  C   UNL     1      19.574  12.871  16.393  0.00  0.00    +0.007 A 
ATOM     18  C   UNL     1      18.844  11.562  14.497  0.00  0.00    +0.007 A 
ATOM     20  C   UNL     1      20.868  12.375  16.236  0.00  0.00    +0.033 A 
ATOM     21  C   UNL     1      20.139  11.067  14.341  0.00  0.00    +0.033 A 
ATOM     23  C   UNL     1      21.151  11.473  15.211  0.00  0.00    +0.126 A 
BRANCH  23   7
ATOM      2  O   UNL     1      23.219  11.491  14.192  0.00  0.00    -0.126 OA
ATOM      3  O   UNL     1      22.848  10.018  15.776  0.00  0.00    -0.126 OA
ATOM      7  N   UNL     1      22.469  10.969  15.052  0.00  0.00    +0.056 N 
ENDBRANCH  23   7
ENDBRANCH  14  16
ENDBRANCH   4  14
TORSDOF 6
ENDMDL
MODEL 7
REMARK VINA RESULT:      -6.4     16.121     20.124
REMARK  Name = 45783776
REMARK  7 active torsions:
REMARK  status: ('A' for Active; 'I' for Inactive)
REMARK    1  A    between atoms: N_4  and  C_14
REMARK    2  A    between atoms: N_7  and  C_23
REMARK    3  A    between atoms: N_9  and  C_27
REMARK    4  A    between atoms: N_9  and  C_28
REMARK    5  A    between atoms: C_10  and  C_15
REMARK    6  A    between atoms: C_14  and  C_16
REMARK    7  A    between atoms: C_19  and  C_22
REMARK                            x       y       z     vdW  Elec       q    Type
REMARK                         _______ _______ _______ _____ _____    ______ ____
ROOT
ATOM      4  N   UNL     1      10.832   6.393   4.100  0.00  0.00    -0.287 NA
ATOM     10  C   UNL     1      10.944   7.018   2.766  0.00  0.00    +0.146 C 
ATOM     11  C   UNL     1      12.399   7.516   2.688  0.00  0.00    +0.030 C 
ATOM     12  C   UNL     1      13.007   7.180   4.043  0.00  0.00    +0.017 C 
ATOM     13  C   UNL     1      11.803   7.071   4.958  0.00  0.00    +0.085 C 
ENDROOT
BRANCH  10  15
ATOM      1  O   UNL     1      10.475   4.752   1.978  0.00  0.00    -0.336 OA
ATOM      5  N   UNL     1      10.375   6.317   0.378  0.00  0.00    -0.190 NA
ATOM      6  N   UNL     1      10.147   4.079   0.794  0.00  0.00    -0.056 NA
ATOM     15  C   UNL     1      10.590   6.064   1.644  0.00  0.00    +0.245 A 
ATOM     19  C   UNL     1      10.107   5.068  -0.103  0.00  0.00    +0.204 A 
BRANCH  19  22
ATOM      8  N   UNL     1      10.198   3.581  -3.510  0.00  0.00    -0.240 NA
ATOM     22  C   UNL     1       9.801   4.843  -1.487  0.00  0.00    +0.041 A 
ATOM     24  C   UNL     1       8.857   5.621  -2.147  0.00  0.00    +0.016 A 
ATOM     25  C   UNL     1      10.439   3.846  -2.207  0.00  0.00    +0.124 A 
ATOM     26  C   UNL     1       8.582   5.379  -3.488  0.00  0.00    +0.044 A 
ATOM     27  C   UNL     1       9.273   4.357  -4.119  0.00  0.00    +0.118 A 
BRANCH  27   9
ATOM      9  N   UNL     1       8.981   4.123  -5.485  0.00  0.00    -0.332 N 
ATOM     28  C   UNL     1       9.624   3.101  -6.246  0.00  0.00    +0.127 C 
ATOM     29  H   UNL     1       8.469   4.846  -5.979  0.00  0.00    +0.147 HD
ENDBRANCH  27   9
ENDBRANCH  19  22
ENDBRANCH  10  15
BRANCH   4  14
ATOM     14  C   UNL     1       9.483   6.447   4.649  0.00  0.00    +0.120 C 
BRANCH  14  16
ATOM     16  C   UNL     1       9.447   6.025   6.093  0.00  0.00    -0.033 A 
ATOM     17  C   UNL     1       9.079   6.940   7.080  0.00  0.00    +0.007 A 
ATOM     18  C   UNL     1       9.781   4.717   6.444  0.00  0.00    +0.007 A 
ATOM     20  C   UNL     1       9.047   6.547   8.417  0.00  0.00    +0.033 A 
ATOM     21  C   UNL     1       9.749   4.324   7.783  0.00  0.00    +0.033 A 
ATOM     23  C   UNL     1       9.381   5.239   8.769  0.00  0.00    +0.126 A 
BRANCH  23   7
ATOM      2  O   UNL     1      10.430   4.705  10.751  0.00  0.00    -0.126 OA
ATOM      3  O   UNL     1       8.238   4.634  10.678  0.00  0.00    -0.126 OA
ATOM      7  N   UNL     1       9.348   4.840  10.132  0.00  0.00    +0.056 N 
ENDBRANCH  23   7
ENDBRANCH  14  16
ENDBRANCH   4  14
TORSDOF 6
ENDMDL
MODEL 8
REMARK VINA RESULT:      -6.3     26.021     27.942
REMARK  Name = 45783776
REMARK  7 active torsions:
REMARK  status: ('A' for Active; 'I' for Inactive)
REMARK    1  A    between atoms: N_4  and  C_14
REMARK    2  A    between atoms: N_7  and  C_23
REMARK    3  A    between atoms: N_9  and  C_27
REMARK    4  A    between atoms: N_9  and  C_28
REMARK    5  A    between atoms: C_10  and  C_15
REMARK    6  A    between atoms: C_14  and  C_16
REMARK    7  A    between atoms: C_19  and  C_22
REMARK                            x       y       z     vdW  Elec       q    Type
REMARK                         _______ _______ _______ _____ _____    ______ ____
ROOT
ATOM      4  N   UNL     1     -11.076   9.516  17.614  0.00  0.00    -0.287 NA
ATOM     10  C   UNL     1     -10.458  10.510  18.513  0.00  0.00    +0.146 C 
ATOM     11  C   UNL     1     -10.169  11.726  17.613  0.00  0.00    +0.030 C 
ATOM     12  C   UNL     1     -10.603  11.298  16.218  0.00  0.00    +0.017 C 
ATOM     13  C   UNL     1     -10.552   9.785  16.275  0.00  0.00    +0.085 C 
ENDROOT
BRANCH  10  15
ATOM      1  O   UNL     1     -12.267  11.825  19.499  0.00  0.00    -0.336 OA
ATOM      5  N   UNL     1     -11.340  10.346  20.904  0.00  0.00    -0.190 NA
ATOM      6  N   UNL     1     -12.948  11.963  20.715  0.00  0.00    -0.056 NA
ATOM     15  C   UNL     1     -11.338  10.853  19.696  0.00  0.00    +0.245 A 
ATOM     19  C   UNL     1     -12.345  11.059  21.492  0.00  0.00    +0.204 A 
BRANCH  19  22
ATOM      8  N   UNL     1     -14.302   9.932  24.446  0.00  0.00    -0.240 NA
ATOM     22  C   UNL     1     -12.721  10.841  22.859  0.00  0.00    +0.041 A 
ATOM     24  C   UNL     1     -11.924  11.298  23.902  0.00  0.00    +0.016 A 
ATOM     25  C   UNL     1     -13.890  10.171  23.181  0.00  0.00    +0.124 A 
ATOM     26  C   UNL     1     -12.315  11.072  25.218  0.00  0.00    +0.044 A 
ATOM     27  C   UNL     1     -13.502  10.390  25.434  0.00  0.00    +0.118 A 
BRANCH  27   9
ATOM      9  N   UNL     1     -13.886  10.168  26.779  0.00  0.00    -0.332 N 
ATOM     28  C   UNL     1     -13.092  10.590  27.888  0.00  0.00    +0.127 C 
ATOM     29  H   UNL     1     -14.631   9.499  26.944  0.00  0.00    +0.147 HD
ENDBRANCH  27   9
ENDBRANCH  19  22
ENDBRANCH  10  15
BRANCH   4  14
ATOM     14  C   UNL     1     -10.838   8.139  18.029  0.00  0.00    +0.120 C 
BRANCH  14  16
ATOM     16  C   UNL     1     -11.889   7.653  18.992  0.00  0.00    -0.033 A 
ATOM     17  C   UNL     1     -13.237   7.905  18.739  0.00  0.00    +0.007 A 
ATOM     18  C   UNL     1     -11.512   6.950  20.136  0.00  0.00    +0.007 A 
ATOM     20  C   UNL     1     -14.209   7.454  19.631  0.00  0.00    +0.033 A 
ATOM     21  C   UNL     1     -12.485   6.499  21.029  0.00  0.00    +0.033 A 
ATOM     23  C   UNL     1     -13.834   6.751  20.776  0.00  0.00    +0.126 A 
BRANCH  23   7
ATOM      2  O   UNL     1     -15.114   7.005  22.676  0.00  0.00    -0.126 OA
ATOM      3  O   UNL     1     -15.382   5.190  21.471  0.00  0.00    -0.126 OA
ATOM      7  N   UNL     1     -14.824   6.293  21.685  0.00  0.00    +0.056 N 
ENDBRANCH  23   7
ENDBRANCH  14  16
ENDBRANCH   4  14
TORSDOF 6
ENDMDL
MODEL 9
REMARK VINA RESULT:      -6.3     27.323     29.124
REMARK  Name = 45783776
REMARK  7 active torsions:
REMARK  status: ('A' for Active; 'I' for Inactive)
REMARK    1  A    between atoms: N_4  and  C_14
REMARK    2  A    between atoms: N_7  and  C_23
REMARK    3  A    between atoms: N_9  and  C_27
REMARK    4  A    between atoms: N_9  and  C_28
REMARK    5  A    between atoms: C_10  and  C_15
REMARK    6  A    between atoms: C_14  and  C_16
REMARK    7  A    between atoms: C_19  and  C_22
REMARK                            x       y       z     vdW  Elec       q    Type
REMARK                         _______ _______ _______ _____ _____    ______ ____
ROOT
ATOM      4  N   UNL     1      -3.383 -11.824  14.205  0.00  0.00    -0.287 NA
ATOM     10  C   UNL     1      -2.443 -11.865  13.067  0.00  0.00    +0.146 C 
ATOM     11  C   UNL     1      -2.400 -13.346  12.648  0.00  0.00    +0.030 C 
ATOM     12  C   UNL     1      -3.297 -14.067  13.643  0.00  0.00    +0.017 C 
ATOM     13  C   UNL     1      -3.319 -13.139  14.842  0.00  0.00    +0.085 C 
ENDROOT
BRANCH  10  15
ATOM      1  O   UNL     1      -1.925 -10.061  11.500  0.00  0.00    -0.336 OA
ATOM      5  N   UNL     1      -4.002 -10.879  11.300  0.00  0.00    -0.190 NA
ATOM      6  N   UNL     1      -2.532  -9.335  10.467  0.00  0.00    -0.056 NA
ATOM     15  C   UNL     1      -2.858 -10.948  11.935  0.00  0.00    +0.245 A 
ATOM     19  C   UNL     1      -3.753  -9.875  10.409  0.00  0.00    +0.204 A 
BRANCH  19  22
ATOM      8  N   UNL     1      -5.774  -9.658   7.295  0.00  0.00    -0.240 NA
ATOM     22  C   UNL     1      -4.747  -9.436   9.472  0.00  0.00    +0.041 A 
ATOM     24  C   UNL     1      -5.627  -8.408   9.791  0.00  0.00    +0.016 A 
ATOM     25  C   UNL     1      -4.861 -10.023   8.222  0.00  0.00    +0.124 A 
ATOM     26  C   UNL     1      -6.580  -8.005   8.863  0.00  0.00    +0.044 A 
ATOM     27  C   UNL     1      -6.612  -8.656   7.640  0.00  0.00    +0.118 A 
BRANCH  27   9
ATOM      9  N   UNL     1      -7.589  -8.233   6.706  0.00  0.00    -0.332 N 
ATOM     28  C   UNL     1      -8.504  -7.171   6.975  0.00  0.00    +0.127 C 
ATOM     29  H   UNL     1      -7.780  -8.850   5.924  0.00  0.00    +0.147 HD
ENDBRANCH  27   9
ENDBRANCH  19  22
ENDBRANCH  10  15
BRANCH   4  14
ATOM     14  C   UNL     1      -3.103 -10.746  15.144  0.00  0.00    +0.120 C 
BRANCH  14  16
ATOM     16  C   UNL     1      -3.974 -10.827  16.369  0.00  0.00    -0.033 A 
ATOM     17  C   UNL     1      -3.478 -11.397  17.542  0.00  0.00    +0.007 A 
ATOM     18  C   UNL     1      -5.276 -10.330  16.331  0.00  0.00    +0.007 A 
ATOM     20  C   UNL     1      -4.286 -11.472  18.675  0.00  0.00    +0.033 A 
ATOM     21  C   UNL     1      -6.085 -10.405  17.466  0.00  0.00    +0.033 A 
ATOM     23  C   UNL     1      -5.589 -10.976  18.638  0.00  0.00    +0.126 A 
BRANCH  23   7
ATOM      2  O   UNL     1      -7.638 -10.816  19.682  0.00  0.00    -0.126 OA
ATOM      3  O   UNL     1      -5.889 -11.357  20.893  0.00  0.00    -0.126 OA
ATOM      7  N   UNL     1      -6.412 -11.053  19.793  0.00  0.00    +0.056 N 
ENDBRANCH  23   7
ENDBRANCH  14  16
ENDBRANCH   4  14
TORSDOF 6
ENDMDL
MODEL 10
REMARK VINA RESULT:      -6.3     31.093     32.394
REMARK  Name = 45783776
REMARK  7 active torsions:
REMARK  status: ('A' for Active; 'I' for Inactive)
REMARK    1  A    between atoms: N_4  and  C_14
REMARK    2  A    between atoms: N_7  and  C_23
REMARK    3  A    between atoms: N_9  and  C_27
REMARK    4  A    between atoms: N_9  and  C_28
REMARK    5  A    between atoms: C_10  and  C_15
REMARK    6  A    between atoms: C_14  and  C_16
REMARK    7  A    between atoms: C_19  and  C_22
REMARK                            x       y       z     vdW  Elec       q    Type
REMARK                         _______ _______ _______ _____ _____    ______ ____
ROOT
ATOM      4  N   UNL     1     -15.489   1.632  29.620  0.00  0.00    -0.287 NA
ATOM     10  C   UNL     1     -15.521   1.613  31.096  0.00  0.00    +0.146 C 
ATOM     11  C   UNL     1     -14.322   0.736  31.502  0.00  0.00    +0.030 C 
ATOM     12  C   UNL     1     -13.715   0.261  30.189  0.00  0.00    +0.017 C 
ATOM     13  C   UNL     1     -14.860   0.380  29.202  0.00  0.00    +0.085 C 
ENDROOT
BRANCH  10  15
ATOM      1  O   UNL     1     -16.556   3.786  31.519  0.00  0.00    -0.336 OA
ATOM      5  N   UNL     1     -14.499   3.569  32.381  0.00  0.00    -0.190 NA
ATOM      6  N   UNL     1     -16.270   5.001  32.155  0.00  0.00    -0.056 NA
ATOM     15  C   UNL     1     -15.462   3.000  31.699  0.00  0.00    +0.245 A 
ATOM     19  C   UNL     1     -15.041   4.795  32.639  0.00  0.00    +0.204 A 
BRANCH  19  22
ATOM      8  N   UNL     1     -13.443   6.545  35.504  0.00  0.00    -0.240 NA
ATOM     22  C   UNL     1     -14.328   5.791  33.384  0.00  0.00    +0.041 A 
ATOM     24  C   UNL     1     -13.837   6.934  32.763  0.00  0.00    +0.016 A 
ATOM     25  C   UNL     1     -14.106   5.646  34.744  0.00  0.00    +0.124 A 
ATOM     26  C   UNL     1     -13.149   7.883  33.512  0.00  0.00    +0.044 A 
ATOM     27  C   UNL     1     -12.980   7.644  34.866  0.00  0.00    +0.118 A 
BRANCH  27   9
ATOM      9  N   UNL     1     -12.277   8.619  35.615  0.00  0.00    -0.332 N 
ATOM     28  C   UNL     1     -12.074   8.512  37.024  0.00  0.00    +0.127 C 
ATOM     29  H   UNL     1     -12.112   9.515  35.169  0.00  0.00    +0.147 HD
ENDBRANCH  27   9
ENDBRANCH  19  22
ENDBRANCH  10  15
BRANCH   4  14
ATOM     14  C   UNL     1     -16.805   1.812  29.020  0.00  0.00    +0.120 C 
BRANCH  14  16
ATOM     16  C   UNL     1     -16.717   2.057  27.537  0.00  0.00    -0.033 A 
ATOM     17  C   UNL     1     -16.191   3.257  27.057  0.00  0.00    +0.007 A 
ATOM     18  C   UNL     1     -17.161   1.082  26.643  0.00  0.00    +0.007 A 
ATOM     20  C   UNL     1     -16.111   3.482  25.683  0.00  0.00    +0.033 A 
ATOM     21  C   UNL     1     -17.080   1.308  25.268  0.00  0.00    +0.033 A 
ATOM     23  C   UNL     1     -16.555   2.508  24.789  0.00  0.00    +0.126 A 
BRANCH  23   7
ATOM      2  O   UNL     1     -15.815   3.722  22.974  0.00  0.00    -0.126 OA
ATOM      3  O   UNL     1     -17.061   1.952  22.609  0.00  0.00    -0.126 OA
ATOM      7  N   UNL     1     -16.473   2.739  23.390  0.00  0.00    +0.056 N 
ENDBRANCH  23   7
ENDBRANCH  14  16
ENDBRANCH   4  14
TORSDOF 6
ENDMDL
