MODEL 1
REMARK VINA RESULT:      -6.2      0.000      0.000
REMARK  Name = 75368415
REMARK  2 active torsions:
REMARK  status: ('A' for Active; 'I' for Inactive)
REMARK    1  A    between atoms: S_1  and  N_6
REMARK    2  A    between atoms: S_1  and  C_14
REMARK                            x       y       z     vdW  Elec       q    Type
REMARK                         _______ _______ _______ _____ _____    ______ ____
ROOT
ATOM      2  O   UNL     1      13.191  11.081  14.097  0.00  0.00    -0.253 OA
ATOM      5  N   UNL     1      14.141  10.277  16.094  0.00  0.00    -0.279 N 
ATOM      6  N   UNL     1      14.436   8.701  18.383  0.00  0.00    -0.173 NA
ATOM      7  N   UNL     1      13.953  12.498  15.805  0.00  0.00    -0.297 N 
ATOM      8  C   UNL     1      14.800  10.853  17.250  0.00  0.00    +0.110 C 
ATOM      9  C   UNL     1      14.307  10.189  18.530  0.00  0.00    +0.133 C 
ATOM     10  C   UNL     1      14.101   8.836  15.934  0.00  0.00    +0.127 C 
ATOM     11  C   UNL     1      14.481  12.342  17.141  0.00  0.00    +0.129 C 
ATOM     12  C   UNL     1      13.628   8.181  17.229  0.00  0.00    +0.128 C 
ATOM     13  C   UNL     1      13.701  11.255  15.195  0.00  0.00    +0.303 C 
ATOM     20  H   UNL     1      13.718  13.390  15.383  0.00  0.00    +0.150 HD
ENDROOT
BRANCH   6   1
ATOM      1  S   UNL     1      14.285   7.808  19.839  0.00  0.00    +0.061 S 
ATOM      3  O   UNL     1      13.361   6.715  19.628  0.00  0.00    -0.153 OA
ATOM      4  O   UNL     1      14.110   8.731  20.939  0.00  0.00    -0.153 OA
BRANCH   1  14
ATOM     14  C   UNL     1      15.911   7.129  19.952  0.00  0.00    +0.105 A 
ATOM     15  C   UNL     1      16.356   6.223  18.990  0.00  0.00    +0.028 A 
ATOM     16  C   UNL     1      16.748   7.496  21.006  0.00  0.00    +0.028 A 
ATOM     17  C   UNL     1      17.640   5.683  19.081  0.00  0.00    +0.002 A 
ATOM     18  C   UNL     1      18.030   6.956  21.097  0.00  0.00    +0.002 A 
ATOM     19  C   UNL     1      18.477   6.050  20.135  0.00  0.00    +0.000 A 
ENDBRANCH   1  14
ENDBRANCH   6   1
TORSDOF 2
ENDMDL
MODEL 2
REMARK VINA RESULT:      -6.0      1.389      2.057
REMARK  Name = 75368415
REMARK  2 active torsions:
REMARK  status: ('A' for Active; 'I' for Inactive)
REMARK    1  A    between atoms: S_1  and  N_6
REMARK    2  A    between atoms: S_1  and  C_14
REMARK                            x       y       z     vdW  Elec       q    Type
REMARK                         _______ _______ _______ _____ _____    ______ ____
ROOT
ATOM      2  O   UNL     1      13.834  10.621  14.959  0.00  0.00    -0.253 OA
ATOM      5  N   UNL     1      13.349   9.968  17.168  0.00  0.00    -0.279 N 
ATOM      6  N   UNL     1      13.777   8.919  19.722  0.00  0.00    -0.173 NA
ATOM      7  N   UNL     1      11.898   9.429  15.538  0.00  0.00    -0.297 N 
ATOM      8  C   UNL     1      12.230   9.360  17.861  0.00  0.00    +0.110 C 
ATOM      9  C   UNL     1      12.724   8.306  18.846  0.00  0.00    +0.133 C 
ATOM     10  C   UNL     1      14.476  10.474  17.927  0.00  0.00    +0.127 C 
ATOM     11  C   UNL     1      11.358   8.817  16.731  0.00  0.00    +0.129 C 
ATOM     12  C   UNL     1      14.946   9.419  18.925  0.00  0.00    +0.128 C 
ATOM     13  C   UNL     1      13.120  10.078  15.791  0.00  0.00    +0.303 C 
ATOM     20  H   UNL     1      11.488   9.339  14.615  0.00  0.00    +0.150 HD
ENDROOT
BRANCH   6   1
ATOM      1  S   UNL     1      14.181   8.013  21.120  0.00  0.00    +0.061 S 
ATOM      3  O   UNL     1      13.227   6.937  21.276  0.00  0.00    -0.153 OA
ATOM      4  O   UNL     1      14.460   8.927  22.207  0.00  0.00    -0.153 OA
BRANCH   1  14
ATOM     14  C   UNL     1      15.712   7.307  20.596  0.00  0.00    +0.105 A 
ATOM     15  C   UNL     1      15.738   6.414  19.527  0.00  0.00    +0.028 A 
ATOM     16  C   UNL     1      16.895   7.641  21.255  0.00  0.00    +0.028 A 
ATOM     17  C   UNL     1      16.948   5.853  19.114  0.00  0.00    +0.002 A 
ATOM     18  C   UNL     1      18.104   7.080  20.844  0.00  0.00    +0.002 A 
ATOM     19  C   UNL     1      18.131   6.187  19.773  0.00  0.00    +0.000 A 
ENDBRANCH   1  14
ENDBRANCH   6   1
TORSDOF 2
ENDMDL
MODEL 3
REMARK VINA RESULT:      -5.5     26.538     28.350
REMARK  Name = 75368415
REMARK  2 active torsions:
REMARK  status: ('A' for Active; 'I' for Inactive)
REMARK    1  A    between atoms: S_1  and  N_6
REMARK    2  A    between atoms: S_1  and  C_14
REMARK                            x       y       z     vdW  Elec       q    Type
REMARK                         _______ _______ _______ _____ _____    ______ ____
ROOT
ATOM      2  O   UNL     1      -7.231 -13.570  17.959  0.00  0.00    -0.253 OA
ATOM      5  N   UNL     1      -5.722 -12.158  16.832  0.00  0.00    -0.279 N 
ATOM      6  N   UNL     1      -3.543 -11.417  15.247  0.00  0.00    -0.173 NA
ATOM      7  N   UNL     1      -6.281 -11.669  18.954  0.00  0.00    -0.297 N 
ATOM      8  C   UNL     1      -5.075 -10.888  17.098  0.00  0.00    +0.110 C 
ATOM      9  C   UNL     1      -3.613 -10.935  16.667  0.00  0.00    +0.133 C 
ATOM     10  C   UNL     1      -5.600 -12.767  15.522  0.00  0.00    +0.127 C 
ATOM     11  C   UNL     1      -5.292 -10.678  18.594  0.00  0.00    +0.129 C 
ATOM     12  C   UNL     1      -4.136 -12.787  15.092  0.00  0.00    +0.128 C 
ATOM     13  C   UNL     1      -6.502 -12.588  17.912  0.00  0.00    +0.303 C 
ATOM     20  H   UNL     1      -6.709 -11.743  19.870  0.00  0.00    +0.150 HD
ENDROOT
BRANCH   6   1
ATOM      1  S   UNL     1      -2.032 -11.183  14.471  0.00  0.00    +0.061 S 
ATOM      3  O   UNL     1      -1.445 -12.475  14.187  0.00  0.00    -0.153 OA
ATOM      4  O   UNL     1      -1.291 -10.167  15.186  0.00  0.00    -0.153 OA
BRANCH   1  14
ATOM     14  C   UNL     1      -2.577 -10.487  12.943  0.00  0.00    +0.105 A 
ATOM     15  C   UNL     1      -3.940 -10.400  12.663  0.00  0.00    +0.028 A 
ATOM     16  C   UNL     1      -1.643 -10.028  12.014  0.00  0.00    +0.028 A 
ATOM     17  C   UNL     1      -4.370  -9.854  11.453  0.00  0.00    +0.002 A 
ATOM     18  C   UNL     1      -2.073  -9.482  10.805  0.00  0.00    +0.002 A 
ATOM     19  C   UNL     1      -3.436  -9.394  10.525  0.00  0.00    +0.000 A 
ENDBRANCH   1  14
ENDBRANCH   6   1
TORSDOF 2
ENDMDL
MODEL 4
REMARK VINA RESULT:      -5.5      2.122      2.807
REMARK  Name = 75368415
REMARK  2 active torsions:
REMARK  status: ('A' for Active; 'I' for Inactive)
REMARK    1  A    between atoms: S_1  and  N_6
REMARK    2  A    between atoms: S_1  and  C_14
REMARK                            x       y       z     vdW  Elec       q    Type
REMARK                         _______ _______ _______ _____ _____    ______ ____
ROOT
ATOM      2  O   UNL     1      16.030  13.345  16.979  0.00  0.00    -0.253 OA
ATOM      5  N   UNL     1      14.426  11.623  16.953  0.00  0.00    -0.279 N 
ATOM      6  N   UNL     1      12.863   9.511  17.905  0.00  0.00    -0.173 NA
ATOM      7  N   UNL     1      15.874  11.777  15.240  0.00  0.00    -0.297 N 
ATOM      8  C   UNL     1      13.991  10.608  16.014  0.00  0.00    +0.110 C 
ATOM      9  C   UNL     1      13.769   9.280  16.731  0.00  0.00    +0.133 C 
ATOM     10  C   UNL     1      13.686  11.830  18.182  0.00  0.00    +0.127 C 
ATOM     11  C   UNL     1      15.101  10.588  14.965  0.00  0.00    +0.129 C 
ATOM     12  C   UNL     1      13.450  10.493  18.878  0.00  0.00    +0.128 C 
ATOM     13  C   UNL     1      15.502  12.371  16.460  0.00  0.00    +0.303 C 
ATOM     20  H   UNL     1      16.643  12.105  14.666  0.00  0.00    +0.150 HD
ENDROOT
BRANCH   6   1
ATOM      1  S   UNL     1      12.203   8.093  18.607  0.00  0.00    +0.061 S 
ATOM      3  O   UNL     1      12.104   7.067  17.591  0.00  0.00    -0.153 OA
ATOM      4  O   UNL     1      11.058   8.459  19.412  0.00  0.00    -0.153 OA
BRANCH   1  14
ATOM     14  C   UNL     1      13.518   7.650  19.698  0.00  0.00    +0.105 A 
ATOM     15  C   UNL     1      14.621   6.950  19.211  0.00  0.00    +0.028 A 
ATOM     16  C   UNL     1      13.451   7.997  21.047  0.00  0.00    +0.028 A 
ATOM     17  C   UNL     1      15.659   6.596  20.075  0.00  0.00    +0.002 A 
ATOM     18  C   UNL     1      14.488   7.643  21.910  0.00  0.00    +0.002 A 
ATOM     19  C   UNL     1      15.592   6.943  21.424  0.00  0.00    +0.000 A 
ENDBRANCH   1  14
ENDBRANCH   6   1
TORSDOF 2
ENDMDL
MODEL 5
REMARK VINA RESULT:      -5.5      2.971      4.300
REMARK  Name = 75368415
REMARK  2 active torsions:
REMARK  status: ('A' for Active; 'I' for Inactive)
REMARK    1  A    between atoms: S_1  and  N_6
REMARK    2  A    between atoms: S_1  and  C_14
REMARK                            x       y       z     vdW  Elec       q    Type
REMARK                         _______ _______ _______ _____ _____    ______ ____
ROOT
ATOM      2  O   UNL     1      16.737  12.682  16.556  0.00  0.00    -0.253 OA
ATOM      5  N   UNL     1      14.946  11.275  17.145  0.00  0.00    -0.279 N 
ATOM      6  N   UNL     1      13.613   9.110  18.306  0.00  0.00    -0.173 NA
ATOM      7  N   UNL     1      15.109  11.982  15.018  0.00  0.00    -0.297 N 
ATOM      8  C   UNL     1      13.746  10.775  16.501  0.00  0.00    +0.110 C 
ATOM      9  C   UNL     1      13.548   9.297  16.818  0.00  0.00    +0.133 C 
ATOM     10  C   UNL     1      15.158  11.027  18.558  0.00  0.00    +0.127 C 
ATOM     11  C   UNL     1      13.977  11.085  15.023  0.00  0.00    +0.129 C 
ATOM     12  C   UNL     1      14.933   9.550  18.868  0.00  0.00    +0.128 C 
ATOM     13  C   UNL     1      15.722  12.057  16.283  0.00  0.00    +0.303 C 
ATOM     20  H   UNL     1      15.469  12.444  14.190  0.00  0.00    +0.150 HD
ENDROOT
BRANCH   6   1
ATOM      1  S   UNL     1      13.046   7.595  18.875  0.00  0.00    +0.061 S 
ATOM      3  O   UNL     1      14.164   6.840  19.398  0.00  0.00    -0.153 OA
ATOM      4  O   UNL     1      12.157   7.025  17.886  0.00  0.00    -0.153 OA
BRANCH   1  14
ATOM     14  C   UNL     1      12.066   8.129  20.243  0.00  0.00    +0.105 A 
ATOM     15  C   UNL     1      11.387   7.193  21.022  0.00  0.00    +0.028 A 
ATOM     16  C   UNL     1      11.968   9.488  20.543  0.00  0.00    +0.028 A 
ATOM     17  C   UNL     1      10.609   7.615  22.101  0.00  0.00    +0.002 A 
ATOM     18  C   UNL     1      11.191   9.910  21.621  0.00  0.00    +0.002 A 
ATOM     19  C   UNL     1      10.512   8.974  22.401  0.00  0.00    +0.000 A 
ENDBRANCH   1  14
ENDBRANCH   6   1
TORSDOF 2
ENDMDL
MODEL 6
REMARK VINA RESULT:      -5.3     25.746     27.023
REMARK  Name = 75368415
REMARK  2 active torsions:
REMARK  status: ('A' for Active; 'I' for Inactive)
REMARK    1  A    between atoms: S_1  and  N_6
REMARK    2  A    between atoms: S_1  and  C_14
REMARK                            x       y       z     vdW  Elec       q    Type
REMARK                         _______ _______ _______ _____ _____    ______ ____
ROOT
ATOM      2  O   UNL     1     -11.990   9.984  12.421  0.00  0.00    -0.253 OA
ATOM      5  N   UNL     1     -11.821   9.322  14.673  0.00  0.00    -0.279 N 
ATOM      6  N   UNL     1     -11.548   9.572  17.444  0.00  0.00    -0.173 NA
ATOM      7  N   UNL     1     -10.609   8.225  13.131  0.00  0.00    -0.297 N 
ATOM      8  C   UNL     1     -11.188   8.243  15.406  0.00  0.00    +0.110 C 
ATOM      9  C   UNL     1     -10.535   8.773  16.677  0.00  0.00    +0.133 C 
ATOM     10  C   UNL     1     -12.718  10.229  15.363  0.00  0.00    +0.127 C 
ATOM     11  C   UNL     1     -10.215   7.642  14.393  0.00  0.00    +0.129 C 
ATOM     12  C   UNL     1     -12.063  10.735  16.645  0.00  0.00    +0.128 C 
ATOM     13  C   UNL     1     -11.537   9.269  13.304  0.00  0.00    +0.303 C 
ATOM     20  H   UNL     1     -10.212   7.968  12.234  0.00  0.00    +0.150 HD
ENDROOT
BRANCH   6   1
ATOM      1  S   UNL     1     -11.119   9.933  19.064  0.00  0.00    +0.061 S 
ATOM      3  O   UNL     1     -11.698  11.207  19.431  0.00  0.00    -0.153 OA
ATOM      4  O   UNL     1      -9.707   9.675  19.243  0.00  0.00    -0.153 OA
BRANCH   1  14
ATOM     14  C   UNL     1     -12.016   8.668  19.907  0.00  0.00    +0.105 A 
ATOM     15  C   UNL     1     -11.357   7.517  20.339  0.00  0.00    +0.028 A 
ATOM     16  C   UNL     1     -13.383   8.818  20.139  0.00  0.00    +0.028 A 
ATOM     17  C   UNL     1     -12.066   6.515  21.003  0.00  0.00    +0.002 A 
ATOM     18  C   UNL     1     -14.091   7.816  20.801  0.00  0.00    +0.002 A 
ATOM     19  C   UNL     1     -13.433   6.665  21.234  0.00  0.00    +0.000 A 
ENDBRANCH   1  14
ENDBRANCH   6   1
TORSDOF 2
ENDMDL
MODEL 7
REMARK VINA RESULT:      -5.2     25.700     27.083
REMARK  Name = 75368415
REMARK  2 active torsions:
REMARK  status: ('A' for Active; 'I' for Inactive)
REMARK    1  A    between atoms: S_1  and  N_6
REMARK    2  A    between atoms: S_1  and  C_14
REMARK                            x       y       z     vdW  Elec       q    Type
REMARK                         _______ _______ _______ _____ _____    ______ ____
ROOT
ATOM      2  O   UNL     1     -10.300  15.021  17.723  0.00  0.00    -0.253 OA
ATOM      5  N   UNL     1     -10.796  12.779  18.236  0.00  0.00    -0.279 N 
ATOM      6  N   UNL     1     -11.224  10.049  17.818  0.00  0.00    -0.173 NA
ATOM      7  N   UNL     1     -12.100  14.397  19.093  0.00  0.00    -0.297 N 
ATOM      8  C   UNL     1     -11.717  12.081  19.114  0.00  0.00    +0.110 C 
ATOM      9  C   UNL     1     -12.329  10.883  18.397  0.00  0.00    +0.133 C 
ATOM     10  C   UNL     1      -9.773  12.034  17.529  0.00  0.00    +0.127 C 
ATOM     11  C   UNL     1     -12.716  13.161  19.519  0.00  0.00    +0.129 C 
ATOM     12  C   UNL     1     -10.395  10.825  16.836  0.00  0.00    +0.128 C 
ATOM     13  C   UNL     1     -10.975  14.166  18.280  0.00  0.00    +0.303 C 
ATOM     20  H   UNL     1     -12.473  15.319  19.290  0.00  0.00    +0.150 HD
ENDROOT
BRANCH   6   1
ATOM      1  S   UNL     1     -11.687   8.480  17.303  0.00  0.00    +0.061 S 
ATOM      3  O   UNL     1     -10.503   7.741  16.924  0.00  0.00    -0.153 OA
ATOM      4  O   UNL     1     -12.815   8.596  16.403  0.00  0.00    -0.153 OA
BRANCH   1  14
ATOM     14  C   UNL     1     -12.275   7.817  18.830  0.00  0.00    +0.105 A 
ATOM     15  C   UNL     1     -11.370   7.328  19.771  0.00  0.00    +0.028 A 
ATOM     16  C   UNL     1     -13.644   7.780  19.092  0.00  0.00    +0.028 A 
ATOM     17  C   UNL     1     -11.835   6.800  20.977  0.00  0.00    +0.002 A 
ATOM     18  C   UNL     1     -14.108   7.252  20.297  0.00  0.00    +0.002 A 
ATOM     19  C   UNL     1     -13.204   6.763  21.239  0.00  0.00    +0.000 A 
ENDBRANCH   1  14
ENDBRANCH   6   1
TORSDOF 2
ENDMDL
MODEL 8
REMARK VINA RESULT:      -5.1     27.632     29.296
REMARK  Name = 75368415
REMARK  2 active torsions:
REMARK  status: ('A' for Active; 'I' for Inactive)
REMARK    1  A    between atoms: S_1  and  N_6
REMARK    2  A    between atoms: S_1  and  C_14
REMARK                            x       y       z     vdW  Elec       q    Type
REMARK                         _______ _______ _______ _____ _____    ______ ____
ROOT
ATOM      2  O   UNL     1      -9.505 -10.541  20.047  0.00  0.00    -0.253 OA
ATOM      5  N   UNL     1      -7.783 -10.980  18.503  0.00  0.00    -0.279 N 
ATOM      6  N   UNL     1      -6.344 -10.863  16.110  0.00  0.00    -0.173 NA
ATOM      7  N   UNL     1      -8.674 -12.699  19.646  0.00  0.00    -0.297 N 
ATOM      8  C   UNL     1      -6.983 -12.127  18.121  0.00  0.00    +0.110 C 
ATOM      9  C   UNL     1      -6.835 -12.192  16.605  0.00  0.00    +0.133 C 
ATOM     10  C   UNL     1      -7.463  -9.671  17.969  0.00  0.00    +0.127 C 
ATOM     11  C   UNL     1      -7.727 -13.308  18.740  0.00  0.00    +0.129 C 
ATOM     12  C   UNL     1      -7.295  -9.753  16.455  0.00  0.00    +0.128 C 
ATOM     13  C   UNL     1      -8.744 -11.305  19.468  0.00  0.00    +0.303 C 
ATOM     20  H   UNL     1      -9.272 -13.216  20.281  0.00  0.00    +0.150 HD
ENDROOT
BRANCH   6   1
ATOM      1  S   UNL     1      -5.766 -10.853  14.496  0.00  0.00    +0.061 S 
ATOM      3  O   UNL     1      -6.181  -9.625  13.855  0.00  0.00    -0.153 OA
ATOM      4  O   UNL     1      -6.039 -12.140  13.893  0.00  0.00    -0.153 OA
BRANCH   1  14
ATOM     14  C   UNL     1      -4.029 -10.749  14.794  0.00  0.00    +0.105 A 
ATOM     15  C   UNL     1      -3.142 -10.669  13.721  0.00  0.00    +0.028 A 
ATOM     16  C   UNL     1      -3.544 -10.750  16.102  0.00  0.00    +0.028 A 
ATOM     17  C   UNL     1      -1.768 -10.591  13.956  0.00  0.00    +0.002 A 
ATOM     18  C   UNL     1      -2.172 -10.671  16.336  0.00  0.00    +0.002 A 
ATOM     19  C   UNL     1      -1.284 -10.592  15.263  0.00  0.00    +0.000 A 
ENDBRANCH   1  14
ENDBRANCH   6   1
TORSDOF 2
ENDMDL
MODEL 9
REMARK VINA RESULT:      -5.0     26.622     28.016
REMARK  Name = 75368415
REMARK  2 active torsions:
REMARK  status: ('A' for Active; 'I' for Inactive)
REMARK    1  A    between atoms: S_1  and  N_6
REMARK    2  A    between atoms: S_1  and  C_14
REMARK                            x       y       z     vdW  Elec       q    Type
REMARK                         _______ _______ _______ _____ _____    ______ ____
ROOT
ATOM      2  O   UNL     1      -7.495  -7.731   8.589  0.00  0.00    -0.253 OA
ATOM      5  N   UNL     1      -6.253  -8.811  10.271  0.00  0.00    -0.279 N 
ATOM      6  N   UNL     1      -4.048  -9.971  11.535  0.00  0.00    -0.173 NA
ATOM      7  N   UNL     1      -8.286  -9.613   9.745  0.00  0.00    -0.297 N 
ATOM      8  C   UNL     1      -6.486  -9.874  11.229  0.00  0.00    +0.110 C 
ATOM      9  C   UNL     1      -5.277 -10.800  11.302  0.00  0.00    +0.133 C 
ATOM     10  C   UNL     1      -5.028  -8.039  10.337  0.00  0.00    +0.127 C 
ATOM     11  C   UNL     1      -7.768 -10.536  10.728  0.00  0.00    +0.129 C 
ATOM     12  C   UNL     1      -3.827  -8.976  10.433  0.00  0.00    +0.128 C 
ATOM     13  C   UNL     1      -7.356  -8.604   9.433  0.00  0.00    +0.303 C 
ATOM     20  H   UNL     1      -9.180  -9.718   9.278  0.00  0.00    +0.150 HD
ENDROOT
BRANCH   6   1
ATOM      1  S   UNL     1      -2.656 -10.851  12.013  0.00  0.00    +0.061 S 
ATOM      3  O   UNL     1      -1.475 -10.096  11.652  0.00  0.00    -0.153 OA
ATOM      4  O   UNL     1      -2.812 -12.231  11.608  0.00  0.00    -0.153 OA
BRANCH   1  14
ATOM     14  C   UNL     1      -2.833 -10.775  13.768  0.00  0.00    +0.105 A 
ATOM     15  C   UNL     1      -4.104 -10.750  14.339  0.00  0.00    +0.028 A 
ATOM     16  C   UNL     1      -1.701 -10.736  14.581  0.00  0.00    +0.028 A 
ATOM     17  C   UNL     1      -4.244 -10.686  15.726  0.00  0.00    +0.002 A 
ATOM     18  C   UNL     1      -1.841 -10.671  15.967  0.00  0.00    +0.002 A 
ATOM     19  C   UNL     1      -3.112 -10.647  16.540  0.00  0.00    +0.000 A 
ENDBRANCH   1  14
ENDBRANCH   6   1
TORSDOF 2
ENDMDL
MODEL 10
REMARK VINA RESULT:      -4.9     27.227     28.822
REMARK  Name = 75368415
REMARK  2 active torsions:
REMARK  status: ('A' for Active; 'I' for Inactive)
REMARK    1  A    between atoms: S_1  and  N_6
REMARK    2  A    between atoms: S_1  and  C_14
REMARK                            x       y       z     vdW  Elec       q    Type
REMARK                         _______ _______ _______ _____ _____    ______ ____
ROOT
ATOM      2  O   UNL     1      -2.290 -16.786  11.139  0.00  0.00    -0.253 OA
ATOM      5  N   UNL     1      -2.348 -14.950  12.611  0.00  0.00    -0.279 N 
ATOM      6  N   UNL     1      -2.868 -12.357  13.514  0.00  0.00    -0.173 NA
ATOM      7  N   UNL     1      -0.446 -16.135  12.436  0.00  0.00    -0.297 N 
ATOM      8  C   UNL     1      -1.467 -14.377  13.610  0.00  0.00    +0.110 C 
ATOM      9  C   UNL     1      -1.453 -12.857  13.497  0.00  0.00    +0.133 C 
ATOM     10  C   UNL     1      -3.698 -14.441  12.466  0.00  0.00    +0.127 C 
ATOM     11  C   UNL     1      -0.125 -15.049  13.335  0.00  0.00    +0.129 C 
ATOM     12  C   UNL     1      -3.672 -12.918  12.377  0.00  0.00    +0.128 C 
ATOM     13  C   UNL     1      -1.768 -16.046  11.962  0.00  0.00    +0.303 C 
ATOM     20  H   UNL     1       0.219 -16.833  12.123  0.00  0.00    +0.150 HD
ENDROOT
BRANCH   6   1
ATOM      1  S   UNL     1      -3.044 -10.671  13.771  0.00  0.00    +0.061 S 
ATOM      3  O   UNL     1      -3.945 -10.134  12.774  0.00  0.00    -0.153 OA
ATOM      4  O   UNL     1      -1.736 -10.091  13.985  0.00  0.00    -0.153 OA
BRANCH   1  14
ATOM     14  C   UNL     1      -3.894 -10.684  15.319  0.00  0.00    +0.105 A 
ATOM     15  C   UNL     1      -3.237 -11.116  16.470  0.00  0.00    +0.028 A 
ATOM     16  C   UNL     1      -5.222 -10.265  15.388  0.00  0.00    +0.028 A 
ATOM     17  C   UNL     1      -3.910 -11.129  17.693  0.00  0.00    +0.002 A 
ATOM     18  C   UNL     1      -5.894 -10.279  16.609  0.00  0.00    +0.002 A 
ATOM     19  C   UNL     1      -5.239 -10.710  17.762  0.00  0.00    +0.000 A 
ENDBRANCH   1  14
ENDBRANCH   6   1
TORSDOF 2
ENDMDL
