MODEL 1
REMARK VINA RESULT:      -6.9      0.000      0.000
REMARK  Name = 11866400
REMARK  7 active torsions:
REMARK  status: ('A' for Active; 'I' for Inactive)
REMARK    1  A    between atoms: S_1  and  C_23
REMARK    2  A    between atoms: S_1  and  C_29
REMARK    3  A    between atoms: O_5  and  C_30
REMARK    4  A    between atoms: O_5  and  C_31
REMARK    5  A    between atoms: N_7  and  C_10
REMARK    6  A    between atoms: C_18  and  C_23
REMARK    7  A    between atoms: C_21  and  C_24
REMARK                            x       y       z     vdW  Elec       q    Type
REMARK                         _______ _______ _______ _____ _____    ______ ____
ROOT
ATOM      2  O   UNL     1      14.194   8.401  19.521  0.00  0.00    -0.273 OA
ATOM      3  O   UNL     1      18.810   9.549  21.661  0.00  0.00    -0.270 OA
ATOM      6  N   UNL     1      16.521   9.164  21.680  0.00  0.00    -0.286 N 
ATOM      8  N   UNL     1      16.178   7.267  19.434  0.00  0.00    -0.283 N 
ATOM      9  C   UNL     1      15.433   8.199  21.583  0.00  0.00    +0.164 C 
ATOM     10  C   UNL     1      13.807  10.059  22.280  0.00  0.00    +0.077 C 
ATOM     11  C   UNL     1      14.170   8.577  22.364  0.00  0.00    +0.054 C 
ATOM     12  C   UNL     1      15.022  10.898  22.661  0.00  0.00    +0.041 C 
ATOM     13  C   UNL     1      16.190  10.589  21.740  0.00  0.00    +0.111 C 
ATOM     14  C   UNL     1      15.207   7.997  20.094  0.00  0.00    +0.238 C 
ATOM     15  C   UNL     1      17.853   8.793  21.488  0.00  0.00    +0.249 C 
ATOM     16  C   UNL     1      18.147   7.428  20.976  0.00  0.00    +0.059 A 
ATOM     17  C   UNL     1      17.413   6.809  19.947  0.00  0.00    +0.046 A 
ATOM     19  C   UNL     1      19.344   6.844  21.423  0.00  0.00    +0.023 A 
ATOM     20  C   UNL     1      17.934   5.653  19.344  0.00  0.00    +0.024 A 
ATOM     21  C   UNL     1      19.820   5.668  20.846  0.00  0.00    -0.017 A 
ATOM     22  C   UNL     1      19.122   5.080  19.797  0.00  0.00    +0.010 A 
ATOM     33  H   UNL     1      15.928   6.939  18.505  0.00  0.00    +0.155 HD
ENDROOT
BRANCH  21  24
ATOM     24  C   UNL     1      21.052   5.075  21.320  0.00  0.00    -0.018 A 
ATOM     25  C   UNL     1      21.881   5.789  22.187  0.00  0.00    +0.012 A 
ATOM     26  C   UNL     1      21.411   3.792  20.909  0.00  0.00    +0.012 A 
ATOM     27  C   UNL     1      23.069   5.217  22.641  0.00  0.00    +0.046 A 
ATOM     28  C   UNL     1      22.599   3.220  21.365  0.00  0.00    +0.046 A 
ATOM     30  C   UNL     1      23.428   3.933  22.231  0.00  0.00    +0.120 A 
BRANCH  30   5
ATOM      5  O   UNL     1      24.588   3.376  22.674  0.00  0.00    -0.495 OA
ATOM     31  C   UNL     1      25.770   3.656  21.925  0.00  0.00    +0.277 C 
ENDBRANCH  30   5
ENDBRANCH  21  24
BRANCH  10   7
ATOM      4  O   UNL     1      11.618  11.870  21.728  0.00  0.00    -0.275 OA
ATOM      7  N   UNL     1      12.685  10.360  23.137  0.00  0.00    -0.312 N 
ATOM     18  C   UNL     1      11.678  11.247  22.786  0.00  0.00    +0.223 C 
ATOM     32  H   UNL     1      12.675   9.951  24.067  0.00  0.00    +0.149 HD
BRANCH  18  23
ATOM     23  C   UNL     1      10.627  11.403  23.860  0.00  0.00    +0.164 C 
BRANCH  23   1
ATOM      1  S   UNL     1      10.651  13.109  24.460  0.00  0.00    -0.155 S 
ATOM     29  C   UNL     1      12.126  13.009  25.502  0.00  0.00    +0.085 C 
ENDBRANCH  23   1
ENDBRANCH  18  23
ENDBRANCH  10   7
TORSDOF 5
ENDMDL
MODEL 2
REMARK VINA RESULT:      -6.8      4.514     10.505
REMARK  Name = 11866400
REMARK  7 active torsions:
REMARK  status: ('A' for Active; 'I' for Inactive)
REMARK    1  A    between atoms: S_1  and  C_23
REMARK    2  A    between atoms: S_1  and  C_29
REMARK    3  A    between atoms: O_5  and  C_30
REMARK    4  A    between atoms: O_5  and  C_31
REMARK    5  A    between atoms: N_7  and  C_10
REMARK    6  A    between atoms: C_18  and  C_23
REMARK    7  A    between atoms: C_21  and  C_24
REMARK                            x       y       z     vdW  Elec       q    Type
REMARK                         _______ _______ _______ _____ _____    ______ ____
ROOT
ATOM      2  O   UNL     1      22.836   7.565  21.822  0.00  0.00    -0.273 OA
ATOM      3  O   UNL     1      18.987   4.846  19.587  0.00  0.00    -0.270 OA
ATOM      6  N   UNL     1      20.667   5.222  21.145  0.00  0.00    -0.286 N 
ATOM      8  N   UNL     1      20.680   8.173  21.363  0.00  0.00    -0.283 N 
ATOM      9  C   UNL     1      21.111   5.953  22.325  0.00  0.00    +0.164 C 
ATOM     10  C   UNL     1      23.150   4.398  22.440  0.00  0.00    +0.077 C 
ATOM     11  C   UNL     1      22.100   5.192  23.215  0.00  0.00    +0.054 C 
ATOM     12  C   UNL     1      22.456   3.506  21.417  0.00  0.00    +0.041 C 
ATOM     13  C   UNL     1      21.620   4.344  20.463  0.00  0.00    +0.111 C 
ATOM     14  C   UNL     1      21.638   7.277  21.800  0.00  0.00    +0.238 C 
ATOM     15  C   UNL     1      19.451   5.503  20.520  0.00  0.00    +0.249 C 
ATOM     16  C   UNL     1      18.691   6.707  20.947  0.00  0.00    +0.059 A 
ATOM     17  C   UNL     1      19.292   7.951  21.218  0.00  0.00    +0.046 A 
ATOM     19  C   UNL     1      17.290   6.616  20.869  0.00  0.00    +0.023 A 
ATOM     20  C   UNL     1      18.475   9.087  21.336  0.00  0.00    +0.024 A 
ATOM     21  C   UNL     1      16.494   7.747  21.040  0.00  0.00    -0.017 A 
ATOM     22  C   UNL     1      17.087   8.985  21.259  0.00  0.00    +0.010 A 
ATOM     33  H   UNL     1      20.999   9.129  21.226  0.00  0.00    +0.155 HD
ENDROOT
BRANCH  21  24
ATOM     24  C   UNL     1      15.053   7.637  20.961  0.00  0.00    -0.018 A 
ATOM     25  C   UNL     1      14.460   7.014  19.862  0.00  0.00    +0.012 A 
ATOM     26  C   UNL     1      14.258   8.155  21.982  0.00  0.00    +0.012 A 
ATOM     27  C   UNL     1      13.072   6.909  19.786  0.00  0.00    +0.046 A 
ATOM     28  C   UNL     1      12.868   8.050  21.906  0.00  0.00    +0.046 A 
ATOM     30  C   UNL     1      12.276   7.428  20.808  0.00  0.00    +0.120 A 
BRANCH  30   5
ATOM      5  O   UNL     1      10.921   7.327  20.733  0.00  0.00    -0.495 OA
ATOM     31  C   UNL     1      10.200   7.331  21.963  0.00  0.00    +0.277 C 
ENDBRANCH  30   5
ENDBRANCH  21  24
BRANCH  10   7
ATOM      4  O   UNL     1      25.967   3.785  22.172  0.00  0.00    -0.275 OA
ATOM      7  N   UNL     1      23.963   3.613  23.338  0.00  0.00    -0.312 N 
ATOM     18  C   UNL     1      25.312   3.370  23.127  0.00  0.00    +0.223 C 
ATOM     32  H   UNL     1      23.503   3.162  24.125  0.00  0.00    +0.149 HD
BRANCH  18  23
ATOM     23  C   UNL     1      25.933   2.507  24.200  0.00  0.00    +0.164 C 
BRANCH  23   1
ATOM      1  S   UNL     1      25.071   0.918  24.245  0.00  0.00    -0.155 S 
ATOM     29  C   UNL     1      25.541   0.309  22.608  0.00  0.00    +0.085 C 
ENDBRANCH  23   1
ENDBRANCH  18  23
ENDBRANCH  10   7
TORSDOF 5
ENDMDL
MODEL 3
REMARK VINA RESULT:      -6.6     16.450     18.819
REMARK  Name = 11866400
REMARK  7 active torsions:
REMARK  status: ('A' for Active; 'I' for Inactive)
REMARK    1  A    between atoms: S_1  and  C_23
REMARK    2  A    between atoms: S_1  and  C_29
REMARK    3  A    between atoms: O_5  and  C_30
REMARK    4  A    between atoms: O_5  and  C_31
REMARK    5  A    between atoms: N_7  and  C_10
REMARK    6  A    between atoms: C_18  and  C_23
REMARK    7  A    between atoms: C_21  and  C_24
REMARK                            x       y       z     vdW  Elec       q    Type
REMARK                         _______ _______ _______ _____ _____    ______ ____
ROOT
ATOM      2  O   UNL     1       8.670   7.490   8.480  0.00  0.00    -0.273 OA
ATOM      3  O   UNL     1       8.731   8.456   3.355  0.00  0.00    -0.270 OA
ATOM      6  N   UNL     1       9.344   8.799   5.567  0.00  0.00    -0.286 N 
ATOM      8  N   UNL     1       9.093   6.087   6.724  0.00  0.00    -0.283 N 
ATOM      9  C   UNL     1      10.097   8.330   6.724  0.00  0.00    +0.164 C 
ATOM     10  C   UNL     1       9.559  10.551   7.893  0.00  0.00    +0.077 C 
ATOM     11  C   UNL     1      10.580   9.438   7.666  0.00  0.00    +0.054 C 
ATOM     12  C   UNL     1       9.077  11.077   6.546  0.00  0.00    +0.041 C 
ATOM     13  C   UNL     1       8.459   9.955   5.728  0.00  0.00    +0.111 C 
ATOM     14  C   UNL     1       9.206   7.294   7.388  0.00  0.00    +0.238 C 
ATOM     15  C   UNL     1       9.266   8.055   4.389  0.00  0.00    +0.249 C 
ATOM     16  C   UNL     1       9.793   6.664   4.388  0.00  0.00    +0.059 A 
ATOM     17  C   UNL     1       9.591   5.755   5.443  0.00  0.00    +0.046 A 
ATOM     19  C   UNL     1      10.336   6.209   3.174  0.00  0.00    +0.023 A 
ATOM     20  C   UNL     1       9.876   4.396   5.232  0.00  0.00    +0.024 A 
ATOM     21  C   UNL     1      10.660   4.865   3.001  0.00  0.00    -0.017 A 
ATOM     22  C   UNL     1      10.417   3.956   4.024  0.00  0.00    +0.010 A 
ATOM     33  H   UNL     1       8.691   5.323   7.262  0.00  0.00    +0.155 HD
ENDROOT
BRANCH  21  24
ATOM     24  C   UNL     1      11.223   4.411   1.747  0.00  0.00    -0.018 A 
ATOM     25  C   UNL     1      10.577   4.706   0.546  0.00  0.00    +0.012 A 
ATOM     26  C   UNL     1      12.409   3.678   1.740  0.00  0.00    +0.012 A 
ATOM     27  C   UNL     1      11.120   4.267  -0.662  0.00  0.00    +0.046 A 
ATOM     28  C   UNL     1      12.952   3.240   0.532  0.00  0.00    +0.046 A 
ATOM     30  C   UNL     1      12.307   3.534  -0.669  0.00  0.00    +0.120 A 
BRANCH  30   5
ATOM      5  O   UNL     1      12.835   3.105  -1.847  0.00  0.00    -0.495 OA
ATOM     31  C   UNL     1      12.108   2.104  -2.558  0.00  0.00    +0.277 C 
ENDBRANCH  30   5
ENDBRANCH  21  24
BRANCH  10   7
ATOM      4  O   UNL     1       8.687  11.451  10.502  0.00  0.00    -0.275 OA
ATOM      7  N   UNL     1      10.129  11.615   8.685  0.00  0.00    -0.312 N 
ATOM     18  C   UNL     1       9.641  11.978   9.932  0.00  0.00    +0.223 C 
ATOM     32  H   UNL     1      10.879  12.163   8.275  0.00  0.00    +0.149 HD
BRANCH  18  23
ATOM     23  C   UNL     1      10.398  13.130  10.550  0.00  0.00    +0.164 C 
BRANCH  23   1
ATOM      1  S   UNL     1      11.943  12.506  11.254  0.00  0.00    -0.155 S 
ATOM     29  C   UNL     1      11.305  11.950  12.853  0.00  0.00    +0.085 C 
ENDBRANCH  23   1
ENDBRANCH  18  23
ENDBRANCH  10   7
TORSDOF 5
ENDMDL
MODEL 4
REMARK VINA RESULT:      -6.6     19.940     22.261
REMARK  Name = 11866400
REMARK  7 active torsions:
REMARK  status: ('A' for Active; 'I' for Inactive)
REMARK    1  A    between atoms: S_1  and  C_23
REMARK    2  A    between atoms: S_1  and  C_29
REMARK    3  A    between atoms: O_5  and  C_30
REMARK    4  A    between atoms: O_5  and  C_31
REMARK    5  A    between atoms: N_7  and  C_10
REMARK    6  A    between atoms: C_18  and  C_23
REMARK    7  A    between atoms: C_21  and  C_24
REMARK                            x       y       z     vdW  Elec       q    Type
REMARK                         _______ _______ _______ _____ _____    ______ ____
ROOT
ATOM      2  O   UNL     1       6.304  10.536  -0.508  0.00  0.00    -0.273 OA
ATOM      3  O   UNL     1       6.281  10.779   4.702  0.00  0.00    -0.270 OA
ATOM      6  N   UNL     1       5.338  10.439   2.609  0.00  0.00    -0.286 N 
ATOM      8  N   UNL     1       7.646   9.489   1.020  0.00  0.00    -0.283 N 
ATOM      9  C   UNL     1       5.226   9.586   1.432  0.00  0.00    +0.164 C 
ATOM     10  C   UNL     1       3.310  11.085   0.610  0.00  0.00    +0.077 C 
ATOM     11  C   UNL     1       3.878   9.669   0.707  0.00  0.00    +0.054 C 
ATOM     12  C   UNL     1       3.285  11.715   1.997  0.00  0.00    +0.041 C 
ATOM     13  C   UNL     1       4.683  11.749   2.591  0.00  0.00    +0.111 C 
ATOM     14  C   UNL     1       6.421   9.940   0.565  0.00  0.00    +0.238 C 
ATOM     15  C   UNL     1       6.225  10.148   3.646  0.00  0.00    +0.249 C 
ATOM     16  C   UNL     1       7.218   9.058   3.451  0.00  0.00    +0.059 A 
ATOM     17  C   UNL     1       7.932   8.862   2.254  0.00  0.00    +0.046 A 
ATOM     19  C   UNL     1       7.582   8.339   4.602  0.00  0.00    +0.023 A 
ATOM     20  C   UNL     1       9.039   7.997   2.258  0.00  0.00    +0.024 A 
ATOM     21  C   UNL     1       8.652   7.446   4.573  0.00  0.00    -0.017 A 
ATOM     22  C   UNL     1       9.389   7.286   3.406  0.00  0.00    +0.010 A 
ATOM     33  H   UNL     1       8.407   9.523   0.346  0.00  0.00    +0.155 HD
ENDROOT
BRANCH  21  24
ATOM     24  C   UNL     1       9.012   6.709   5.765  0.00  0.00    -0.018 A 
ATOM     25  C   UNL     1       8.787   7.265   7.025  0.00  0.00    +0.012 A 
ATOM     26  C   UNL     1       9.587   5.443   5.654  0.00  0.00    +0.012 A 
ATOM     27  C   UNL     1       9.136   6.555   8.173  0.00  0.00    +0.046 A 
ATOM     28  C   UNL     1       9.935   4.732   6.803  0.00  0.00    +0.046 A 
ATOM     30  C   UNL     1       9.710   5.288   8.062  0.00  0.00    +0.120 A 
BRANCH  30   5
ATOM      5  O   UNL     1      10.051   4.595   9.182  0.00  0.00    -0.495 OA
ATOM     31  C   UNL     1       9.109   4.587  10.253  0.00  0.00    +0.277 C 
ENDBRANCH  30   5
ENDBRANCH  21  24
BRANCH  10   7
ATOM      4  O   UNL     1       2.631  10.796  -2.190  0.00  0.00    -0.275 OA
ATOM      7  N   UNL     1       1.989  11.067   0.029  0.00  0.00    -0.312 N 
ATOM     18  C   UNL     1       1.759  10.923  -1.332  0.00  0.00    +0.223 C 
ATOM     32  H   UNL     1       1.198  11.236   0.643  0.00  0.00    +0.149 HD
BRANCH  18  23
ATOM     23  C   UNL     1       0.292  10.954  -1.690  0.00  0.00    +0.164 C 
BRANCH  23   1
ATOM      1  S   UNL     1      -0.683  10.997  -0.166  0.00  0.00    -0.155 S 
ATOM     29  C   UNL     1      -1.406   9.342  -0.262  0.00  0.00    +0.085 C 
ENDBRANCH  23   1
ENDBRANCH  18  23
ENDBRANCH  10   7
TORSDOF 5
ENDMDL
MODEL 5
REMARK VINA RESULT:      -6.3     26.584     32.294
REMARK  Name = 11866400
REMARK  7 active torsions:
REMARK  status: ('A' for Active; 'I' for Inactive)
REMARK    1  A    between atoms: S_1  and  C_23
REMARK    2  A    between atoms: S_1  and  C_29
REMARK    3  A    between atoms: O_5  and  C_30
REMARK    4  A    between atoms: O_5  and  C_31
REMARK    5  A    between atoms: N_7  and  C_10
REMARK    6  A    between atoms: C_18  and  C_23
REMARK    7  A    between atoms: C_21  and  C_24
REMARK                            x       y       z     vdW  Elec       q    Type
REMARK                         _______ _______ _______ _____ _____    ______ ____
ROOT
ATOM      2  O   UNL     1     -11.466  10.785  35.628  0.00  0.00    -0.273 OA
ATOM      3  O   UNL     1     -13.722   8.933  31.306  0.00  0.00    -0.270 OA
ATOM      6  N   UNL     1     -11.958   9.758  32.570  0.00  0.00    -0.286 N 
ATOM      8  N   UNL     1     -12.661   8.864  35.301  0.00  0.00    -0.283 N 
ATOM      9  C   UNL     1     -10.985   9.522  33.629  0.00  0.00    +0.164 C 
ATOM     10  C   UNL     1      -9.844  11.729  32.985  0.00  0.00    +0.077 C 
ATOM     11  C   UNL     1      -9.669  10.293  33.474  0.00  0.00    +0.054 C 
ATOM     12  C   UNL     1     -10.693  11.732  31.719  0.00  0.00    +0.041 C 
ATOM     13  C   UNL     1     -12.048  11.099  31.987  0.00  0.00    +0.111 C 
ATOM     14  C   UNL     1     -11.726   9.808  34.924  0.00  0.00    +0.238 C 
ATOM     15  C   UNL     1     -12.946   8.824  32.256  0.00  0.00    +0.249 C 
ATOM     16  C   UNL     1     -13.134   7.656  33.157  0.00  0.00    +0.059 A 
ATOM     17  C   UNL     1     -13.105   7.744  34.561  0.00  0.00    +0.046 A 
ATOM     19  C   UNL     1     -13.561   6.464  32.545  0.00  0.00    +0.023 A 
ATOM     20  C   UNL     1     -13.570   6.656  35.319  0.00  0.00    +0.024 A 
ATOM     21  C   UNL     1     -13.971   5.377  33.315  0.00  0.00    -0.017 A 
ATOM     22  C   UNL     1     -13.988   5.478  34.701  0.00  0.00    +0.010 A 
ATOM     33  H   UNL     1     -12.993   8.929  36.260  0.00  0.00    +0.155 HD
ENDROOT
BRANCH  21  24
ATOM     24  C   UNL     1     -14.403   4.156  32.671  0.00  0.00    -0.018 A 
ATOM     25  C   UNL     1     -14.419   2.958  33.387  0.00  0.00    +0.012 A 
ATOM     26  C   UNL     1     -14.801   4.175  31.335  0.00  0.00    +0.012 A 
ATOM     27  C   UNL     1     -14.834   1.781  32.765  0.00  0.00    +0.046 A 
ATOM     28  C   UNL     1     -15.216   2.997  30.713  0.00  0.00    +0.046 A 
ATOM     30  C   UNL     1     -15.233   1.800  31.428  0.00  0.00    +0.120 A 
BRANCH  30   5
ATOM      5  O   UNL     1     -15.636   0.651  30.822  0.00  0.00    -0.495 OA
ATOM     31  C   UNL     1     -14.639  -0.339  30.578  0.00  0.00    +0.277 C 
ENDBRANCH  30   5
ENDBRANCH  21  24
BRANCH  10   7
ATOM      4  O   UNL     1      -9.096  14.474  33.519  0.00  0.00    -0.275 OA
ATOM      7  N   UNL     1      -8.562  12.348  32.745  0.00  0.00    -0.312 N 
ATOM     18  C   UNL     1      -8.294  13.678  33.034  0.00  0.00    +0.223 C 
ATOM     32  H   UNL     1      -7.848  11.795  32.280  0.00  0.00    +0.149 HD
BRANCH  18  23
ATOM     23  C   UNL     1      -6.885  14.088  32.675  0.00  0.00    +0.164 C 
BRANCH  23   1
ATOM      1  S   UNL     1      -6.129  12.780  31.680  0.00  0.00    -0.155 S 
ATOM     29  C   UNL     1      -4.694  12.440  32.729  0.00  0.00    +0.085 C 
ENDBRANCH  23   1
ENDBRANCH  18  23
ENDBRANCH  10   7
TORSDOF 5
ENDMDL
MODEL 6
REMARK VINA RESULT:      -6.2      7.660     10.794
REMARK  Name = 11866400
REMARK  7 active torsions:
REMARK  status: ('A' for Active; 'I' for Inactive)
REMARK    1  A    between atoms: S_1  and  C_23
REMARK    2  A    between atoms: S_1  and  C_29
REMARK    3  A    between atoms: O_5  and  C_30
REMARK    4  A    between atoms: O_5  and  C_31
REMARK    5  A    between atoms: N_7  and  C_10
REMARK    6  A    between atoms: C_18  and  C_23
REMARK    7  A    between atoms: C_21  and  C_24
REMARK                            x       y       z     vdW  Elec       q    Type
REMARK                         _______ _______ _______ _____ _____    ______ ____
ROOT
ATOM      2  O   UNL     1      14.624   8.873  14.772  0.00  0.00    -0.273 OA
ATOM      3  O   UNL     1      15.563  12.243  18.640  0.00  0.00    -0.270 OA
ATOM      6  N   UNL     1      14.913  11.628  16.499  0.00  0.00    -0.286 N 
ATOM      8  N   UNL     1      13.839   8.903  16.920  0.00  0.00    -0.283 N 
ATOM      9  C   UNL     1      13.907  11.005  15.649  0.00  0.00    +0.164 C 
ATOM     10  C   UNL     1      15.214  11.839  13.602  0.00  0.00    +0.077 C 
ATOM     11  C   UNL     1      13.845  11.556  14.219  0.00  0.00    +0.054 C 
ATOM     12  C   UNL     1      16.023  12.717  14.549  0.00  0.00    +0.041 C 
ATOM     13  C   UNL     1      16.185  12.035  15.898  0.00  0.00    +0.111 C 
ATOM     14  C   UNL     1      14.183   9.513  15.728  0.00  0.00    +0.238 C 
ATOM     15  C   UNL     1      14.795  11.641  17.889  0.00  0.00    +0.249 C 
ATOM     16  C   UNL     1      13.724  10.826  18.522  0.00  0.00    +0.059 A 
ATOM     17  C   UNL     1      13.394   9.522  18.110  0.00  0.00    +0.046 A 
ATOM     19  C   UNL     1      13.178  11.337  19.712  0.00  0.00    +0.023 A 
ATOM     20  C   UNL     1      12.577   8.735  18.939  0.00  0.00    +0.024 A 
ATOM     21  C   UNL     1      12.328  10.559  20.496  0.00  0.00    -0.017 A 
ATOM     22  C   UNL     1      12.039   9.253  20.117  0.00  0.00    +0.010 A 
ATOM     33  H   UNL     1      13.809   7.887  16.903  0.00  0.00    +0.155 HD
ENDROOT
BRANCH  21  24
ATOM     24  C   UNL     1      11.770  11.100  21.716  0.00  0.00    -0.018 A 
ATOM     25  C   UNL     1      11.512  12.468  21.818  0.00  0.00    +0.012 A 
ATOM     26  C   UNL     1      11.492  10.256  22.790  0.00  0.00    +0.012 A 
ATOM     27  C   UNL     1      10.975  12.989  22.995  0.00  0.00    +0.046 A 
ATOM     28  C   UNL     1      10.955  10.777  23.968  0.00  0.00    +0.046 A 
ATOM     30  C   UNL     1      10.697  12.144  24.070  0.00  0.00    +0.120 A 
BRANCH  30   5
ATOM      5  O   UNL     1      10.175  12.653  25.219  0.00  0.00    -0.495 OA
ATOM     31  C   UNL     1      10.691  13.905  25.668  0.00  0.00    +0.277 C 
ENDBRANCH  30   5
ENDBRANCH  21  24
BRANCH  10   7
ATOM      4  O   UNL     1      17.144  11.866  11.445  0.00  0.00    -0.275 OA
ATOM      7  N   UNL     1      15.072  12.469  12.311  0.00  0.00    -0.312 N 
ATOM     18  C   UNL     1      16.056  12.430  11.334  0.00  0.00    +0.223 C 
ATOM     32  H   UNL     1      14.237  13.024  12.142  0.00  0.00    +0.149 HD
BRANCH  18  23
ATOM     23  C   UNL     1      15.674  13.180  10.080  0.00  0.00    +0.164 C 
BRANCH  23   1
ATOM      1  S   UNL     1      13.911  13.577  10.148  0.00  0.00    -0.155 S 
ATOM     29  C   UNL     1      13.387  12.740   8.632  0.00  0.00    +0.085 C 
ENDBRANCH  23   1
ENDBRANCH  18  23
ENDBRANCH  10   7
TORSDOF 5
ENDMDL
MODEL 7
REMARK VINA RESULT:      -6.1     30.062     32.176
REMARK  Name = 11866400
REMARK  7 active torsions:
REMARK  status: ('A' for Active; 'I' for Inactive)
REMARK    1  A    between atoms: S_1  and  C_23
REMARK    2  A    between atoms: S_1  and  C_29
REMARK    3  A    between atoms: O_5  and  C_30
REMARK    4  A    between atoms: O_5  and  C_31
REMARK    5  A    between atoms: N_7  and  C_10
REMARK    6  A    between atoms: C_18  and  C_23
REMARK    7  A    between atoms: C_21  and  C_24
REMARK                            x       y       z     vdW  Elec       q    Type
REMARK                         _______ _______ _______ _____ _____    ______ ____
ROOT
ATOM      2  O   UNL     1      -9.732 -10.754  20.463  0.00  0.00    -0.273 OA
ATOM      3  O   UNL     1      -8.669 -12.701  15.742  0.00  0.00    -0.270 OA
ATOM      6  N   UNL     1      -9.782 -11.332  17.251  0.00  0.00    -0.286 N 
ATOM      8  N   UNL     1      -7.740 -10.909  19.350  0.00  0.00    -0.283 N 
ATOM      9  C   UNL     1      -9.734 -10.165  18.122  0.00  0.00    +0.164 C 
ATOM     10  C   UNL     1     -12.266 -10.403  18.472  0.00  0.00    +0.077 C 
ATOM     11  C   UNL     1     -11.079  -9.455  18.316  0.00  0.00    +0.054 C 
ATOM     12  C   UNL     1     -12.274 -11.397  17.316  0.00  0.00    +0.041 C 
ATOM     13  C   UNL     1     -10.974 -12.183  17.283  0.00  0.00    +0.111 C 
ATOM     14  C   UNL     1      -9.097 -10.653  19.412  0.00  0.00    +0.238 C 
ATOM     15  C   UNL     1      -8.653 -11.786  16.566  0.00  0.00    +0.249 C 
ATOM     16  C   UNL     1      -7.332 -11.187  16.893  0.00  0.00    +0.059 A 
ATOM     17  C   UNL     1      -6.911 -10.902  18.205  0.00  0.00    +0.046 A 
ATOM     19  C   UNL     1      -6.411 -11.104  15.835  0.00  0.00    +0.023 A 
ATOM     20  C   UNL     1      -5.556 -10.607  18.434  0.00  0.00    +0.024 A 
ATOM     21  C   UNL     1      -5.082 -10.760  16.075  0.00  0.00    -0.017 A 
ATOM     22  C   UNL     1      -4.652 -10.526  17.376  0.00  0.00    +0.010 A 
ATOM     33  H   UNL     1      -7.270 -11.015  20.245  0.00  0.00    +0.155 HD
ENDROOT
BRANCH  21  24
ATOM     24  C   UNL     1      -4.146 -10.674  14.975  0.00  0.00    -0.018 A 
ATOM     25  C   UNL     1      -4.616 -10.628  13.661  0.00  0.00    +0.012 A 
ATOM     26  C   UNL     1      -2.775 -10.638  15.227  0.00  0.00    +0.012 A 
ATOM     27  C   UNL     1      -3.713 -10.547  12.602  0.00  0.00    +0.046 A 
ATOM     28  C   UNL     1      -1.872 -10.557  14.167  0.00  0.00    +0.046 A 
ATOM     30  C   UNL     1      -2.341 -10.511  12.854  0.00  0.00    +0.120 A 
BRANCH  30   5
ATOM      5  O   UNL     1      -1.461 -10.433  11.820  0.00  0.00    -0.495 OA
ATOM     31  C   UNL     1      -1.169  -9.132  11.312  0.00  0.00    +0.277 C 
ENDBRANCH  30   5
ENDBRANCH  21  24
BRANCH  10   7
ATOM      4  O   UNL     1     -14.171 -10.332  20.651  0.00  0.00    -0.275 OA
ATOM      7  N   UNL     1     -13.506  -9.666  18.525  0.00  0.00    -0.312 N 
ATOM     18  C   UNL     1     -14.361  -9.693  19.617  0.00  0.00    +0.223 C 
ATOM     32  H   UNL     1     -13.794  -9.160  17.692  0.00  0.00    +0.149 HD
BRANCH  18  23
ATOM     23  C   UNL     1     -15.600  -8.853  19.419  0.00  0.00    +0.164 C 
BRANCH  23   1
ATOM      1  S   UNL     1     -16.107  -8.171  21.016  0.00  0.00    -0.155 S 
ATOM     29  C   UNL     1     -17.412  -7.062  20.434  0.00  0.00    +0.085 C 
ENDBRANCH  23   1
ENDBRANCH  18  23
ENDBRANCH  10   7
TORSDOF 5
ENDMDL
MODEL 8
REMARK VINA RESULT:      -6.1      5.463     11.189
REMARK  Name = 11866400
REMARK  7 active torsions:
REMARK  status: ('A' for Active; 'I' for Inactive)
REMARK    1  A    between atoms: S_1  and  C_23
REMARK    2  A    between atoms: S_1  and  C_29
REMARK    3  A    between atoms: O_5  and  C_30
REMARK    4  A    between atoms: O_5  and  C_31
REMARK    5  A    between atoms: N_7  and  C_10
REMARK    6  A    between atoms: C_18  and  C_23
REMARK    7  A    between atoms: C_21  and  C_24
REMARK                            x       y       z     vdW  Elec       q    Type
REMARK                         _______ _______ _______ _____ _____    ______ ____
ROOT
ATOM      2  O   UNL     1      24.167   4.641  24.488  0.00  0.00    -0.273 OA
ATOM      3  O   UNL     1      22.072   4.755  19.713  0.00  0.00    -0.270 OA
ATOM      6  N   UNL     1      22.771   3.738  21.679  0.00  0.00    -0.286 N 
ATOM      8  N   UNL     1      22.450   5.908  23.665  0.00  0.00    -0.283 N 
ATOM      9  C   UNL     1      22.541   3.518  23.101  0.00  0.00    +0.164 C 
ATOM     10  C   UNL     1      24.393   1.740  23.059  0.00  0.00    +0.077 C 
ATOM     11  C   UNL     1      23.042   2.169  23.630  0.00  0.00    +0.054 C 
ATOM     12  C   UNL     1      24.341   1.806  21.537  0.00  0.00    +0.041 C 
ATOM     13  C   UNL     1      23.999   3.213  21.078  0.00  0.00    +0.111 C 
ATOM     14  C   UNL     1      23.150   4.723  23.797  0.00  0.00    +0.238 C 
ATOM     15  C   UNL     1      21.982   4.615  20.933  0.00  0.00    +0.249 C 
ATOM     16  C   UNL     1      21.020   5.493  21.650  0.00  0.00    +0.059 A 
ATOM     17  C   UNL     1      21.321   6.158  22.853  0.00  0.00    +0.046 A 
ATOM     19  C   UNL     1      19.838   5.810  20.959  0.00  0.00    +0.023 A 
ATOM     20  C   UNL     1      20.461   7.176  23.298  0.00  0.00    +0.024 A 
ATOM     21  C   UNL     1      18.971   6.788  21.443  0.00  0.00    -0.017 A 
ATOM     22  C   UNL     1      19.290   7.480  22.606  0.00  0.00    +0.010 A 
ATOM     33  H   UNL     1      22.721   6.654  24.301  0.00  0.00    +0.155 HD
ENDROOT
BRANCH  21  24
ATOM     24  C   UNL     1      17.756   7.100  20.723  0.00  0.00    -0.018 A 
ATOM     25  C   UNL     1      17.053   8.270  21.015  0.00  0.00    +0.012 A 
ATOM     26  C   UNL     1      17.285   6.231  19.740  0.00  0.00    +0.012 A 
ATOM     27  C   UNL     1      15.881   8.570  20.322  0.00  0.00    +0.046 A 
ATOM     28  C   UNL     1      16.112   6.531  19.046  0.00  0.00    +0.046 A 
ATOM     30  C   UNL     1      15.410   7.700  19.337  0.00  0.00    +0.120 A 
BRANCH  30   5
ATOM      5  O   UNL     1      14.266   7.992  18.662  0.00  0.00    -0.495 OA
ATOM     31  C   UNL     1      13.090   7.278  19.039  0.00  0.00    +0.277 C 
ENDBRANCH  30   5
ENDBRANCH  21  24
BRANCH  10   7
ATOM      4  O   UNL     1      26.478   1.005  24.928  0.00  0.00    -0.275 OA
ATOM      7  N   UNL     1      24.737   0.411  23.505  0.00  0.00    -0.312 N 
ATOM     18  C   UNL     1      25.758   0.153  24.408  0.00  0.00    +0.223 C 
ATOM     32  H   UNL     1      24.250  -0.374  23.081  0.00  0.00    +0.149 HD
BRANCH  18  23
ATOM     23  C   UNL     1      25.932  -1.319  24.700  0.00  0.00    +0.164 C 
BRANCH  23   1
ATOM      1  S   UNL     1      25.384  -1.650  26.392  0.00  0.00    -0.155 S 
ATOM     29  C   UNL     1      23.603  -1.735  26.086  0.00  0.00    +0.085 C 
ENDBRANCH  23   1
ENDBRANCH  18  23
ENDBRANCH  10   7
TORSDOF 5
ENDMDL
MODEL 9
REMARK VINA RESULT:      -6.0     30.121     33.478
REMARK  Name = 11866400
REMARK  7 active torsions:
REMARK  status: ('A' for Active; 'I' for Inactive)
REMARK    1  A    between atoms: S_1  and  C_23
REMARK    2  A    between atoms: S_1  and  C_29
REMARK    3  A    between atoms: O_5  and  C_30
REMARK    4  A    between atoms: O_5  and  C_31
REMARK    5  A    between atoms: N_7  and  C_10
REMARK    6  A    between atoms: C_18  and  C_23
REMARK    7  A    between atoms: C_21  and  C_24
REMARK                            x       y       z     vdW  Elec       q    Type
REMARK                         _______ _______ _______ _____ _____    ______ ____
ROOT
ATOM      2  O   UNL     1      -4.842 -10.017   8.193  0.00  0.00    -0.273 OA
ATOM      3  O   UNL     1      -9.502  -9.795  10.526  0.00  0.00    -0.270 OA
ATOM      6  N   UNL     1      -7.183  -9.725  10.449  0.00  0.00    -0.286 N 
ATOM      8  N   UNL     1      -6.668  -8.727   7.712  0.00  0.00    -0.283 N 
ATOM      9  C   UNL     1      -5.985  -8.994  10.057  0.00  0.00    +0.164 C 
ATOM     10  C   UNL     1      -4.588 -10.719  11.348  0.00  0.00    +0.077 C 
ATOM     11  C   UNL     1      -4.757  -9.257  10.936  0.00  0.00    +0.054 C 
ATOM     12  C   UNL     1      -5.888 -11.223  11.966  0.00  0.00    +0.041 C 
ATOM     13  C   UNL     1      -7.034 -11.083  10.978  0.00  0.00    +0.111 C 
ATOM     14  C   UNL     1      -5.779  -9.321   8.588  0.00  0.00    +0.238 C 
ATOM     15  C   UNL     1      -8.462  -9.268  10.129  0.00  0.00    +0.249 C 
ATOM     16  C   UNL     1      -8.595  -8.119   9.194  0.00  0.00    +0.059 A 
ATOM     17  C   UNL     1      -7.819  -7.970   8.030  0.00  0.00    +0.046 A 
ATOM     19  C   UNL     1      -9.695  -7.271   9.408  0.00  0.00    +0.023 A 
ATOM     20  C   UNL     1      -8.207  -7.017   7.074  0.00  0.00    +0.024 A 
ATOM     21  C   UNL     1     -10.034  -6.296   8.472  0.00  0.00    -0.017 A 
ATOM     22  C   UNL     1      -9.299  -6.179   7.298  0.00  0.00    +0.010 A 
ATOM     33  H   UNL     1      -6.406  -8.756   6.730  0.00  0.00    +0.155 HD
ENDROOT
BRANCH  21  24
ATOM     24  C   UNL     1     -11.166  -5.427   8.708  0.00  0.00    -0.018 A 
ATOM     25  C   UNL     1     -12.461  -5.887   8.466  0.00  0.00    +0.012 A 
ATOM     26  C   UNL     1     -10.963  -4.129   9.175  0.00  0.00    +0.012 A 
ATOM     27  C   UNL     1     -13.552  -5.048   8.693  0.00  0.00    +0.046 A 
ATOM     28  C   UNL     1     -12.054  -3.290   9.402  0.00  0.00    +0.046 A 
ATOM     30  C   UNL     1     -13.349  -3.749   9.161  0.00  0.00    +0.120 A 
BRANCH  30   5
ATOM      5  O   UNL     1     -14.413  -2.931   9.380  0.00  0.00    -0.495 OA
ATOM     31  C   UNL     1     -14.866  -2.801  10.726  0.00  0.00    +0.277 C 
ENDBRANCH  30   5
ENDBRANCH  21  24
BRANCH  10   7
ATOM      4  O   UNL     1      -2.943 -13.066  11.752  0.00  0.00    -0.275 OA
ATOM      7  N   UNL     1      -3.489 -10.867  12.271  0.00  0.00    -0.312 N 
ATOM     18  C   UNL     1      -2.754 -12.036  12.397  0.00  0.00    +0.223 C 
ATOM     32  H   UNL     1      -3.293 -10.096  12.904  0.00  0.00    +0.149 HD
BRANCH  18  23
ATOM     23  C   UNL     1      -1.669 -11.943  13.444  0.00  0.00    +0.164 C 
BRANCH  23   1
ATOM      1  S   UNL     1      -2.409 -11.421  15.010  0.00  0.00    -0.155 S 
ATOM     29  C   UNL     1      -1.083 -10.333  15.585  0.00  0.00    +0.085 C 
ENDBRANCH  23   1
ENDBRANCH  18  23
ENDBRANCH  10   7
TORSDOF 5
ENDMDL
MODEL 10
REMARK VINA RESULT:      -6.0     19.125     22.484
REMARK  Name = 11866400
REMARK  7 active torsions:
REMARK  status: ('A' for Active; 'I' for Inactive)
REMARK    1  A    between atoms: S_1  and  C_23
REMARK    2  A    between atoms: S_1  and  C_29
REMARK    3  A    between atoms: O_5  and  C_30
REMARK    4  A    between atoms: O_5  and  C_31
REMARK    5  A    between atoms: N_7  and  C_10
REMARK    6  A    between atoms: C_18  and  C_23
REMARK    7  A    between atoms: C_21  and  C_24
REMARK                            x       y       z     vdW  Elec       q    Type
REMARK                         _______ _______ _______ _____ _____    ______ ____
ROOT
ATOM      2  O   UNL     1      12.474   6.631  -1.821  0.00  0.00    -0.273 OA
ATOM      3  O   UNL     1      12.378   3.309   2.199  0.00  0.00    -0.270 OA
ATOM      6  N   UNL     1      13.378   4.797   0.723  0.00  0.00    -0.286 N 
ATOM      8  N   UNL     1      11.141   6.608   0.037  0.00  0.00    -0.283 N 
ATOM      9  C   UNL     1      13.547   6.179   0.294  0.00  0.00    +0.164 C 
ATOM     10  C   UNL     1      15.420   5.393  -1.276  0.00  0.00    +0.077 C 
ATOM     11  C   UNL     1      14.905   6.490  -0.344  0.00  0.00    +0.054 C 
ATOM     12  C   UNL     1      15.393   4.056  -0.545  0.00  0.00    +0.041 C 
ATOM     13  C   UNL     1      13.982   3.733  -0.082  0.00  0.00    +0.111 C 
ATOM     14  C   UNL     1      12.357   6.468  -0.605  0.00  0.00    +0.238 C 
ATOM     15  C   UNL     1      12.480   4.444   1.733  0.00  0.00    +0.249 C 
ATOM     16  C   UNL     1      11.534   5.474   2.237  0.00  0.00    +0.059 A 
ATOM     17  C   UNL     1      10.853   6.380   1.402  0.00  0.00    +0.046 A 
ATOM     19  C   UNL     1      11.173   5.374   3.592  0.00  0.00    +0.023 A 
ATOM     20  C   UNL     1       9.780   7.116   1.932  0.00  0.00    +0.024 A 
ATOM     21  C   UNL     1      10.139   6.150   4.111  0.00  0.00    -0.017 A 
ATOM     22  C   UNL     1       9.433   7.010   3.278  0.00  0.00    +0.010 A 
ATOM     33  H   UNL     1      10.394   7.019  -0.517  0.00  0.00    +0.155 HD
ENDROOT
BRANCH  21  24
ATOM     24  C   UNL     1       9.782   6.039   5.509  0.00  0.00    -0.018 A 
ATOM     25  C   UNL     1       9.088   7.075   6.136  0.00  0.00    +0.012 A 
ATOM     26  C   UNL     1      10.134   4.899   6.230  0.00  0.00    +0.012 A 
ATOM     27  C   UNL     1       8.746   6.968   7.484  0.00  0.00    +0.046 A 
ATOM     28  C   UNL     1       9.792   4.793   7.579  0.00  0.00    +0.046 A 
ATOM     30  C   UNL     1       9.098   5.827   8.205  0.00  0.00    +0.120 A 
BRANCH  30   5
ATOM      5  O   UNL     1       8.765   5.724   9.520  0.00  0.00    -0.495 OA
ATOM     31  C   UNL     1       9.242   4.578  10.223  0.00  0.00    +0.277 C 
ENDBRANCH  30   5
ENDBRANCH  21  24
BRANCH  10   7
ATOM      4  O   UNL     1      16.555   4.797  -3.871  0.00  0.00    -0.275 OA
ATOM      7  N   UNL     1      16.753   5.699  -1.738  0.00  0.00    -0.312 N 
ATOM     18  C   UNL     1      17.212   5.373  -3.006  0.00  0.00    +0.223 C 
ATOM     32  H   UNL     1      17.403   6.113  -1.075  0.00  0.00    +0.149 HD
BRANCH  18  23
ATOM     23  C   UNL     1      18.646   5.784  -3.240  0.00  0.00    +0.164 C 
BRANCH  23   1
ATOM      1  S   UNL     1      19.739   4.523  -2.540  0.00  0.00    -0.155 S 
ATOM     29  C   UNL     1      19.981   3.521  -4.027  0.00  0.00    +0.085 C 
ENDBRANCH  23   1
ENDBRANCH  18  23
ENDBRANCH  10   7
TORSDOF 5
ENDMDL
