MODEL 1
REMARK VINA RESULT:      -6.8      0.000      0.000
REMARK  Name = 40467589
REMARK  3 active torsions:
REMARK  status: ('A' for Active; 'I' for Inactive)
REMARK    1  A    between atoms: S_1  and  N_5
REMARK    2  A    between atoms: S_1  and  C_19
REMARK    3  A    between atoms: C_15  and  C_20
REMARK                            x       y       z     vdW  Elec       q    Type
REMARK                         _______ _______ _______ _____ _____    ______ ____
ROOT
ATOM      4  O   UNL     1      -4.092 -12.848  19.130  0.00  0.00    -0.268 OA
ATOM      5  N   UNL     1      -6.029 -11.905  14.670  0.00  0.00    -0.176 NA
ATOM      6  N   UNL     1      -5.963 -12.534  17.755  0.00  0.00    -0.311 N 
ATOM      8  C   UNL     1      -6.456 -14.094  15.780  0.00  0.00    +0.025 C 
ATOM      9  C   UNL     1      -7.939 -12.193  16.239  0.00  0.00    +0.053 C 
ATOM     10  C   UNL     1      -7.903 -13.704  16.022  0.00  0.00    +0.017 C 
ATOM     11  C   UNL     1      -5.897 -13.383  14.538  0.00  0.00    +0.114 C 
ATOM     12  C   UNL     1      -7.428 -11.482  14.971  0.00  0.00    +0.119 C 
ATOM     13  C   UNL     1      -5.648 -13.780  17.041  0.00  0.00    +0.130 C 
ATOM     14  C   UNL     1      -7.116 -11.779  17.463  0.00  0.00    +0.034 A 
ATOM     15  C   UNL     1      -7.447 -10.719  18.245  0.00  0.00    +0.003 A 
ATOM     16  C   UNL     1      -5.103 -12.217  18.822  0.00  0.00    +0.252 A 
ATOM     17  C   UNL     1      -6.581 -10.358  19.353  0.00  0.00    +0.015 A 
ATOM     18  C   UNL     1      -5.469 -11.035  19.637  0.00  0.00    +0.071 A 
ENDROOT
BRANCH  15  20
ATOM      7  N   UNL     1     -11.012  -9.578  18.249  0.00  0.00    -0.263 NA
ATOM     20  C   UNL     1      -8.637  -9.922  17.957  0.00  0.00    +0.002 A 
ATOM     23  C   UNL     1      -8.564  -8.791  17.152  0.00  0.00    +0.011 A 
ATOM     24  C   UNL     1      -9.873 -10.270  18.477  0.00  0.00    +0.119 A 
ATOM     27  C   UNL     1      -9.714  -8.053  16.895  0.00  0.00    +0.020 A 
ATOM     29  C   UNL     1     -10.902  -8.484  17.462  0.00  0.00    +0.111 A 
ENDBRANCH  15  20
BRANCH   5   1
ATOM      1  S   UNL     1      -5.214 -10.980  13.483  0.00  0.00    +0.061 S 
ATOM      2  O   UNL     1      -5.877  -9.702  13.341  0.00  0.00    -0.153 OA
ATOM      3  O   UNL     1      -4.956 -11.817  12.330  0.00  0.00    -0.153 OA
BRANCH   1  19
ATOM     19  C   UNL     1      -3.677 -10.703  14.306  0.00  0.00    +0.105 A 
ATOM     21  C   UNL     1      -2.559 -10.297  13.578  0.00  0.00    +0.028 A 
ATOM     22  C   UNL     1      -3.580 -10.891  15.685  0.00  0.00    +0.028 A 
ATOM     25  C   UNL     1      -1.344 -10.078  14.228  0.00  0.00    +0.002 A 
ATOM     26  C   UNL     1      -2.366 -10.672  16.335  0.00  0.00    +0.002 A 
ATOM     28  C   UNL     1      -1.248 -10.266  15.607  0.00  0.00    +0.000 A 
ENDBRANCH   1  19
ENDBRANCH   5   1
TORSDOF 3
ENDMDL
MODEL 2
REMARK VINA RESULT:      -6.8      2.532      4.186
REMARK  Name = 40467589
REMARK  3 active torsions:
REMARK  status: ('A' for Active; 'I' for Inactive)
REMARK    1  A    between atoms: S_1  and  N_5
REMARK    2  A    between atoms: S_1  and  C_19
REMARK    3  A    between atoms: C_15  and  C_20
REMARK                            x       y       z     vdW  Elec       q    Type
REMARK                         _______ _______ _______ _____ _____    ______ ____
ROOT
ATOM      4  O   UNL     1      -0.762 -12.618  13.806  0.00  0.00    -0.268 OA
ATOM      5  N   UNL     1      -5.583 -12.773  12.682  0.00  0.00    -0.176 NA
ATOM      6  N   UNL     1      -2.993 -12.885  14.470  0.00  0.00    -0.311 N 
ATOM      8  C   UNL     1      -4.441 -14.801  13.571  0.00  0.00    +0.025 C 
ATOM      9  C   UNL     1      -5.402 -13.168  15.132  0.00  0.00    +0.053 C 
ATOM     10  C   UNL     1      -5.187 -14.659  14.886  0.00  0.00    +0.017 C 
ATOM     11  C   UNL     1      -5.255 -14.201  12.413  0.00  0.00    +0.114 C 
ATOM     12  C   UNL     1      -6.262 -12.581  13.996  0.00  0.00    +0.119 C 
ATOM     13  C   UNL     1      -3.067 -14.145  13.716  0.00  0.00    +0.130 C 
ATOM     14  C   UNL     1      -4.071 -12.419  15.248  0.00  0.00    +0.034 A 
ATOM     15  C   UNL     1      -3.908 -11.331  16.045  0.00  0.00    +0.003 A 
ATOM     16  C   UNL     1      -1.740 -12.247  14.455  0.00  0.00    +0.252 A 
ATOM     17  C   UNL     1      -2.631 -10.642  16.054  0.00  0.00    +0.015 A 
ATOM     18  C   UNL     1      -1.601 -11.043  15.307  0.00  0.00    +0.071 A 
ENDROOT
BRANCH  15  20
ATOM      7  N   UNL     1      -6.978  -9.430  17.034  0.00  0.00    -0.263 NA
ATOM     20  C   UNL     1      -5.015 -10.830  16.858  0.00  0.00    +0.002 A 
ATOM     23  C   UNL     1      -5.178 -11.238  18.176  0.00  0.00    +0.011 A 
ATOM     24  C   UNL     1      -5.934  -9.933  16.338  0.00  0.00    +0.119 A 
ATOM     27  C   UNL     1      -6.240 -10.743  18.925  0.00  0.00    +0.020 A 
ATOM     29  C   UNL     1      -7.104  -9.850  18.314  0.00  0.00    +0.111 A 
ENDBRANCH  15  20
BRANCH   5   1
ATOM      1  S   UNL     1      -6.256 -11.909  11.367  0.00  0.00    +0.061 S 
ATOM      2  O   UNL     1      -7.329 -11.068  11.852  0.00  0.00    -0.153 OA
ATOM      3  O   UNL     1      -6.466 -12.820  10.262  0.00  0.00    -0.153 OA
BRANCH   1  19
ATOM     19  C   UNL     1      -4.895 -10.862  10.954  0.00  0.00    +0.105 A 
ATOM     21  C   UNL     1      -4.988  -9.993   9.867  0.00  0.00    +0.028 A 
ATOM     22  C   UNL     1      -3.726 -10.906  11.714  0.00  0.00    +0.028 A 
ATOM     25  C   UNL     1      -3.912  -9.167   9.541  0.00  0.00    +0.002 A 
ATOM     26  C   UNL     1      -2.651 -10.079  11.387  0.00  0.00    +0.002 A 
ATOM     28  C   UNL     1      -2.744  -9.210  10.300  0.00  0.00    +0.000 A 
ENDBRANCH   1  19
ENDBRANCH   5   1
TORSDOF 3
ENDMDL
MODEL 3
REMARK VINA RESULT:      -6.6     25.867     28.592
REMARK  Name = 40467589
REMARK  3 active torsions:
REMARK  status: ('A' for Active; 'I' for Inactive)
REMARK    1  A    between atoms: S_1  and  N_5
REMARK    2  A    between atoms: S_1  and  C_19
REMARK    3  A    between atoms: C_15  and  C_20
REMARK                            x       y       z     vdW  Elec       q    Type
REMARK                         _______ _______ _______ _____ _____    ______ ____
ROOT
ATOM      4  O   UNL     1      13.326   3.520   2.053  0.00  0.00    -0.268 OA
ATOM      5  N   UNL     1      13.172   7.576   4.892  0.00  0.00    -0.176 NA
ATOM      6  N   UNL     1      12.799   5.786   2.328  0.00  0.00    -0.311 N 
ATOM      8  C   UNL     1      14.603   7.531   2.854  0.00  0.00    +0.025 C 
ATOM      9  C   UNL     1      12.253   8.217   2.670  0.00  0.00    +0.053 C 
ATOM     10  C   UNL     1      13.663   8.500   2.157  0.00  0.00    +0.017 C 
ATOM     11  C   UNL     1      14.562   7.728   4.377  0.00  0.00    +0.114 C 
ATOM     12  C   UNL     1      12.202   8.466   4.190  0.00  0.00    +0.119 C 
ATOM     13  C   UNL     1      14.229   6.106   2.442  0.00  0.00    +0.130 C 
ATOM     14  C   UNL     1      11.809   6.789   2.339  0.00  0.00    +0.034 A 
ATOM     15  C   UNL     1      10.515   6.464   2.081  0.00  0.00    +0.003 A 
ATOM     16  C   UNL     1      12.501   4.433   2.088  0.00  0.00    +0.252 A 
ATOM     17  C   UNL     1      10.168   5.077   1.834  0.00  0.00    +0.015 A 
ATOM     18  C   UNL     1      11.078   4.103   1.844  0.00  0.00    +0.071 A 
ENDROOT
BRANCH  15  20
ATOM      7  N   UNL     1       8.271   9.222   0.911  0.00  0.00    -0.263 NA
ATOM     20  C   UNL     1       9.473   7.489   2.091  0.00  0.00    +0.002 A 
ATOM     23  C   UNL     1       8.707   7.720   3.228  0.00  0.00    +0.011 A 
ATOM     24  C   UNL     1       9.218   8.259   0.968  0.00  0.00    +0.119 A 
ATOM     27  C   UNL     1       7.723   8.703   3.207  0.00  0.00    +0.020 A 
ATOM     29  C   UNL     1       7.546   9.420   2.035  0.00  0.00    +0.111 A 
ENDBRANCH  15  20
BRANCH   5   1
ATOM      1  S   UNL     1      13.018   7.509   6.595  0.00  0.00    +0.061 S 
ATOM      2  O   UNL     1      13.123   8.848   7.134  0.00  0.00    -0.153 OA
ATOM      3  O   UNL     1      13.847   6.436   7.102  0.00  0.00    -0.153 OA
BRANCH   1  19
ATOM     19  C   UNL     1      11.332   7.002   6.735  0.00  0.00    +0.105 A 
ATOM     21  C   UNL     1      10.869   5.911   6.000  0.00  0.00    +0.028 A 
ATOM     22  C   UNL     1      10.463   7.695   7.578  0.00  0.00    +0.028 A 
ATOM     25  C   UNL     1       9.536   5.511   6.110  0.00  0.00    +0.002 A 
ATOM     26  C   UNL     1       9.131   7.295   7.688  0.00  0.00    +0.002 A 
ATOM     28  C   UNL     1       8.668   6.203   6.954  0.00  0.00    +0.000 A 
ENDBRANCH   1  19
ENDBRANCH   5   1
TORSDOF 3
ENDMDL
MODEL 4
REMARK VINA RESULT:      -6.5     25.131     27.776
REMARK  Name = 40467589
REMARK  3 active torsions:
REMARK  status: ('A' for Active; 'I' for Inactive)
REMARK    1  A    between atoms: S_1  and  N_5
REMARK    2  A    between atoms: S_1  and  C_19
REMARK    3  A    between atoms: C_15  and  C_20
REMARK                            x       y       z     vdW  Elec       q    Type
REMARK                         _______ _______ _______ _____ _____    ______ ____
ROOT
ATOM      4  O   UNL     1      22.098  -6.835  23.563  0.00  0.00    -0.268 OA
ATOM      5  N   UNL     1      19.633  -4.400  27.103  0.00  0.00    -0.176 NA
ATOM      6  N   UNL     1      20.965  -4.920  24.297  0.00  0.00    -0.311 N 
ATOM      8  C   UNL     1      21.817  -3.532  26.279  0.00  0.00    +0.025 C 
ATOM      9  C   UNL     1      19.745  -2.886  25.131  0.00  0.00    +0.053 C 
ATOM     10  C   UNL     1      21.112  -2.379  25.586  0.00  0.00    +0.017 C 
ATOM     11  C   UNL     1      21.015  -4.010  27.499  0.00  0.00    +0.114 C 
ATOM     12  C   UNL     1      18.924  -3.316  26.363  0.00  0.00    +0.119 C 
ATOM     13  C   UNL     1      22.044  -4.649  25.258  0.00  0.00    +0.130 C 
ATOM     14  C   UNL     1      19.876  -4.042  24.135  0.00  0.00    +0.034 A 
ATOM     15  C   UNL     1      18.981  -4.252  23.134  0.00  0.00    +0.003 A 
ATOM     16  C   UNL     1      21.158  -6.044  23.475  0.00  0.00    +0.252 A 
ATOM     17  C   UNL     1      19.144  -5.405  22.268  0.00  0.00    +0.015 A 
ATOM     18  C   UNL     1      20.149  -6.269  22.415  0.00  0.00    +0.071 A 
ENDROOT
BRANCH  15  20
ATOM      7  N   UNL     1      17.000  -1.212  22.214  0.00  0.00    -0.263 NA
ATOM     20  C   UNL     1      17.842  -3.354  22.951  0.00  0.00    +0.002 A 
ATOM     23  C   UNL     1      16.558  -3.743  23.315  0.00  0.00    +0.011 A 
ATOM     24  C   UNL     1      18.009  -2.090  22.409  0.00  0.00    +0.119 A 
ATOM     27  C   UNL     1      15.495  -2.867  23.129  0.00  0.00    +0.020 A 
ATOM     29  C   UNL     1      15.765  -1.624  22.581  0.00  0.00    +0.111 A 
ENDBRANCH  15  20
BRANCH   5   1
ATOM      1  S   UNL     1      18.715  -5.197  28.308  0.00  0.00    +0.061 S 
ATOM      2  O   UNL     1      17.897  -4.225  29.000  0.00  0.00    -0.153 OA
ATOM      3  O   UNL     1      19.580  -6.098  29.040  0.00  0.00    -0.153 OA
BRANCH   1  19
ATOM     19  C   UNL     1      17.651  -6.173  27.293  0.00  0.00    +0.105 A 
ATOM     21  C   UNL     1      16.347  -6.446  27.709  0.00  0.00    +0.028 A 
ATOM     22  C   UNL     1      18.113  -6.674  26.076  0.00  0.00    +0.028 A 
ATOM     25  C   UNL     1      15.507  -7.219  26.907  0.00  0.00    +0.002 A 
ATOM     26  C   UNL     1      17.273  -7.446  25.274  0.00  0.00    +0.002 A 
ATOM     28  C   UNL     1      15.970  -7.719  25.690  0.00  0.00    +0.000 A 
ENDBRANCH   1  19
ENDBRANCH   5   1
TORSDOF 3
ENDMDL
MODEL 5
REMARK VINA RESULT:      -6.4     25.317     27.843
REMARK  Name = 40467589
REMARK  3 active torsions:
REMARK  status: ('A' for Active; 'I' for Inactive)
REMARK    1  A    between atoms: S_1  and  N_5
REMARK    2  A    between atoms: S_1  and  C_19
REMARK    3  A    between atoms: C_15  and  C_20
REMARK                            x       y       z     vdW  Elec       q    Type
REMARK                         _______ _______ _______ _____ _____    ______ ____
ROOT
ATOM      4  O   UNL     1      19.500  -5.041  21.258  0.00  0.00    -0.268 OA
ATOM      5  N   UNL     1      18.952  -2.098  25.204  0.00  0.00    -0.176 NA
ATOM      6  N   UNL     1      18.246  -4.340  23.108  0.00  0.00    -0.311 N 
ATOM      8  C   UNL     1      17.357  -1.942  23.298  0.00  0.00    +0.025 C 
ATOM      9  C   UNL     1      16.934  -3.551  25.103  0.00  0.00    +0.053 C 
ATOM     10  C   UNL     1      16.263  -2.569  24.144  0.00  0.00    +0.017 C 
ATOM     11  C   UNL     1      18.367  -1.190  24.178  0.00  0.00    +0.114 C 
ATOM     12  C   UNL     1      17.908  -2.785  26.020  0.00  0.00    +0.119 C 
ATOM     13  C   UNL     1      18.018  -3.040  22.462  0.00  0.00    +0.130 C 
ATOM     14  C   UNL     1      17.662  -4.667  24.348  0.00  0.00    +0.034 A 
ATOM     15  C   UNL     1      17.776  -5.929  24.837  0.00  0.00    +0.003 A 
ATOM     16  C   UNL     1      18.982  -5.269  22.352  0.00  0.00    +0.252 A 
ATOM     17  C   UNL     1      18.532  -6.915  24.087  0.00  0.00    +0.015 A 
ATOM     18  C   UNL     1      19.120  -6.627  22.925  0.00  0.00    +0.071 A 
ENDROOT
BRANCH  15  20
ATOM      7  N   UNL     1      17.418  -6.510  28.518  0.00  0.00    -0.263 NA
ATOM     20  C   UNL     1      17.180  -6.288  26.123  0.00  0.00    +0.002 A 
ATOM     23  C   UNL     1      15.867  -6.735  26.204  0.00  0.00    +0.011 A 
ATOM     24  C   UNL     1      17.907  -6.193  27.299  0.00  0.00    +0.119 A 
ATOM     27  C   UNL     1      15.327  -7.069  27.441  0.00  0.00    +0.020 A 
ATOM     29  C   UNL     1      16.137  -6.941  28.558  0.00  0.00    +0.111 A 
ENDBRANCH  15  20
BRANCH   5   1
ATOM      1  S   UNL     1      20.279  -1.467  26.081  0.00  0.00    +0.061 S 
ATOM      2  O   UNL     1      19.978  -1.512  27.495  0.00  0.00    -0.153 OA
ATOM      3  O   UNL     1      20.717  -0.238  25.452  0.00  0.00    -0.153 OA
BRANCH   1  19
ATOM     19  C   UNL     1      21.491  -2.707  25.747  0.00  0.00    +0.105 A 
ATOM     21  C   UNL     1      21.110  -3.914  25.161  0.00  0.00    +0.028 A 
ATOM     22  C   UNL     1      22.828  -2.481  26.072  0.00  0.00    +0.028 A 
ATOM     25  C   UNL     1      22.067  -4.895  24.898  0.00  0.00    +0.002 A 
ATOM     26  C   UNL     1      23.785  -3.461  25.808  0.00  0.00    +0.002 A 
ATOM     28  C   UNL     1      23.404  -4.668  25.222  0.00  0.00    +0.000 A 
ENDBRANCH   1  19
ENDBRANCH   5   1
TORSDOF 3
ENDMDL
MODEL 6
REMARK VINA RESULT:      -6.3     24.778     28.156
REMARK  Name = 40467589
REMARK  3 active torsions:
REMARK  status: ('A' for Active; 'I' for Inactive)
REMARK    1  A    between atoms: S_1  and  N_5
REMARK    2  A    between atoms: S_1  and  C_19
REMARK    3  A    between atoms: C_15  and  C_20
REMARK                            x       y       z     vdW  Elec       q    Type
REMARK                         _______ _______ _______ _____ _____    ______ ____
ROOT
ATOM      4  O   UNL     1       8.605  10.477   2.979  0.00  0.00    -0.268 OA
ATOM      5  N   UNL     1      12.863   8.163   4.001  0.00  0.00    -0.176 NA
ATOM      6  N   UNL     1      10.027   9.429   4.518  0.00  0.00    -0.311 N 
ATOM      8  C   UNL     1      12.355  10.365   5.049  0.00  0.00    +0.025 C 
ATOM      9  C   UNL     1      11.588   8.300   6.134  0.00  0.00    +0.053 C 
ATOM     10  C   UNL     1      12.158   9.692   6.397  0.00  0.00    +0.017 C 
ATOM     11  C   UNL     1      13.335   9.565   4.177  0.00  0.00    +0.114 C 
ATOM     12  C   UNL     1      12.597   7.483   5.303  0.00  0.00    +0.119 C 
ATOM     13  C   UNL     1      10.988  10.533   4.383  0.00  0.00    +0.130 C 
ATOM     14  C   UNL     1      10.232   8.371   5.426  0.00  0.00    +0.034 A 
ATOM     15  C   UNL     1       9.251   7.453   5.627  0.00  0.00    +0.003 A 
ATOM     16  C   UNL     1       8.842   9.566   3.773  0.00  0.00    +0.252 A 
ATOM     17  C   UNL     1       8.016   7.558   4.872  0.00  0.00    +0.015 A 
ATOM     18  C   UNL     1       7.803   8.532   3.986  0.00  0.00    +0.071 A 
ENDROOT
BRANCH  15  20
ATOM      7  N   UNL     1       9.455   5.547   8.842  0.00  0.00    -0.263 NA
ATOM     20  C   UNL     1       9.445   6.346   6.561  0.00  0.00    +0.002 A 
ATOM     23  C   UNL     1       9.792   5.079   6.108  0.00  0.00    +0.011 A 
ATOM     24  C   UNL     1       9.289   6.527   7.926  0.00  0.00    +0.119 A 
ATOM     27  C   UNL     1       9.971   4.045   7.021  0.00  0.00    +0.020 A 
ATOM     29  C   UNL     1       9.792   4.328   8.365  0.00  0.00    +0.111 A 
ENDBRANCH  15  20
BRANCH   5   1
ATOM      1  S   UNL     1      13.715   7.235   2.842  0.00  0.00    +0.061 S 
ATOM      2  O   UNL     1      14.814   6.556   3.494  0.00  0.00    -0.153 OA
ATOM      3  O   UNL     1      13.935   8.044   1.661  0.00  0.00    -0.153 OA
BRANCH   1  19
ATOM     19  C   UNL     1      12.490   6.026   2.450  0.00  0.00    +0.105 A 
ATOM     21  C   UNL     1      12.874   4.735   2.088  0.00  0.00    +0.028 A 
ATOM     22  C   UNL     1      11.137   6.363   2.500  0.00  0.00    +0.028 A 
ATOM     25  C   UNL     1      11.905   3.780   1.778  0.00  0.00    +0.002 A 
ATOM     26  C   UNL     1      10.168   5.408   2.190  0.00  0.00    +0.002 A 
ATOM     28  C   UNL     1      10.553   4.117   1.828  0.00  0.00    +0.000 A 
ENDBRANCH   1  19
ENDBRANCH   5   1
TORSDOF 3
ENDMDL
MODEL 7
REMARK VINA RESULT:      -6.3     25.888     28.853
REMARK  Name = 40467589
REMARK  3 active torsions:
REMARK  status: ('A' for Active; 'I' for Inactive)
REMARK    1  A    between atoms: S_1  and  N_5
REMARK    2  A    between atoms: S_1  and  C_19
REMARK    3  A    between atoms: C_15  and  C_20
REMARK                            x       y       z     vdW  Elec       q    Type
REMARK                         _______ _______ _______ _____ _____    ______ ____
ROOT
ATOM      4  O   UNL     1       7.648   8.859   2.599  0.00  0.00    -0.268 OA
ATOM      5  N   UNL     1      10.984   7.514   6.004  0.00  0.00    -0.176 NA
ATOM      6  N   UNL     1       9.037   7.227   3.546  0.00  0.00    -0.311 N 
ATOM      8  C   UNL     1       8.734   6.447   5.970  0.00  0.00    +0.025 C 
ATOM      9  C   UNL     1      10.541   5.509   4.598  0.00  0.00    +0.053 C 
ATOM     10  C   UNL     1       9.343   5.147   5.474  0.00  0.00    +0.017 C 
ATOM     11  C   UNL     1       9.751   7.248   6.797  0.00  0.00    +0.114 C 
ATOM     12  C   UNL     1      11.582   6.267   5.444  0.00  0.00    +0.119 C 
ATOM     13  C   UNL     1       8.215   7.234   4.765  0.00  0.00    +0.130 C 
ATOM     14  C   UNL     1      10.119   6.340   3.382  0.00  0.00    +0.034 A 
ATOM     15  C   UNL     1      10.756   6.264   2.185  0.00  0.00    +0.003 A 
ATOM     16  C   UNL     1       8.595   8.077   2.516  0.00  0.00    +0.252 A 
ATOM     17  C   UNL     1      10.332   7.129   1.100  0.00  0.00    +0.015 A 
ATOM     18  C   UNL     1       9.329   7.998   1.232  0.00  0.00    +0.071 A 
ENDROOT
BRANCH  15  20
ATOM      7  N   UNL     1      14.273   5.029   1.842  0.00  0.00    -0.263 NA
ATOM     20  C   UNL     1      11.883   5.352   1.997  0.00  0.00    +0.002 A 
ATOM     23  C   UNL     1      11.679   3.992   1.797  0.00  0.00    +0.011 A 
ATOM     24  C   UNL     1      13.188   5.817   2.011  0.00  0.00    +0.119 A 
ATOM     27  C   UNL     1      12.771   3.150   1.620  0.00  0.00    +0.020 A 
ATOM     29  C   UNL     1      14.036   3.712   1.650  0.00  0.00    +0.111 A 
ENDBRANCH  15  20
BRANCH   5   1
ATOM      1  S   UNL     1      12.090   8.616   6.703  0.00  0.00    +0.061 S 
ATOM      2  O   UNL     1      13.270   7.896   7.133  0.00  0.00    -0.153 OA
ATOM      3  O   UNL     1      11.376   9.486   7.615  0.00  0.00    -0.153 OA
BRANCH   1  19
ATOM     19  C   UNL     1      12.526   9.565   5.280  0.00  0.00    +0.105 A 
ATOM     21  C   UNL     1      13.729  10.271   5.253  0.00  0.00    +0.028 A 
ATOM     22  C   UNL     1      11.667   9.610   4.182  0.00  0.00    +0.028 A 
ATOM     25  C   UNL     1      14.072  11.022   4.128  0.00  0.00    +0.002 A 
ATOM     26  C   UNL     1      12.012  10.359   3.057  0.00  0.00    +0.002 A 
ATOM     28  C   UNL     1      13.214  11.066   3.030  0.00  0.00    +0.000 A 
ENDBRANCH   1  19
ENDBRANCH   5   1
TORSDOF 3
ENDMDL
MODEL 8
REMARK VINA RESULT:      -6.3     25.438     28.453
REMARK  Name = 40467589
REMARK  3 active torsions:
REMARK  status: ('A' for Active; 'I' for Inactive)
REMARK    1  A    between atoms: S_1  and  N_5
REMARK    2  A    between atoms: S_1  and  C_19
REMARK    3  A    between atoms: C_15  and  C_20
REMARK                            x       y       z     vdW  Elec       q    Type
REMARK                         _______ _______ _______ _____ _____    ______ ____
ROOT
ATOM      4  O   UNL     1      10.905   5.703   8.651  0.00  0.00    -0.268 OA
ATOM      5  N   UNL     1      12.016   9.406   5.555  0.00  0.00    -0.176 NA
ATOM      6  N   UNL     1      11.810   6.451   6.624  0.00  0.00    -0.311 N 
ATOM      8  C   UNL     1      13.833   8.027   6.556  0.00  0.00    +0.025 C 
ATOM      9  C   UNL     1      12.774   7.302   4.463  0.00  0.00    +0.053 C 
ATOM     10  C   UNL     1      14.105   7.383   5.207  0.00  0.00    +0.017 C 
ATOM     11  C   UNL     1      13.255   9.440   6.382  0.00  0.00    +0.114 C 
ATOM     12  C   UNL     1      12.223   8.725   4.244  0.00  0.00    +0.119 C 
ATOM     13  C   UNL     1      12.901   7.112   7.354  0.00  0.00    +0.130 C 
ATOM     14  C   UNL     1      11.759   6.437   5.216  0.00  0.00    +0.034 A 
ATOM     15  C   UNL     1      10.819   5.689   4.581  0.00  0.00    +0.003 A 
ATOM     16  C   UNL     1      10.897   5.737   7.420  0.00  0.00    +0.252 A 
ATOM     17  C   UNL     1       9.856   4.943   5.369  0.00  0.00    +0.015 A 
ATOM     18  C   UNL     1       9.862   4.958   6.702  0.00  0.00    +0.071 A 
ENDROOT
BRANCH  15  20
ATOM      7  N   UNL     1      11.441   4.655   1.038  0.00  0.00    -0.263 NA
ATOM     20  C   UNL     1      10.747   5.664   3.122  0.00  0.00    +0.002 A 
ATOM     23  C   UNL     1       9.958   6.574   2.427  0.00  0.00    +0.011 A 
ATOM     24  C   UNL     1      11.462   4.732   2.387  0.00  0.00    +0.119 A 
ATOM     27  C   UNL     1       9.910   6.525   1.038  0.00  0.00    +0.020 A 
ATOM     29  C   UNL     1      10.663   5.556   0.396  0.00  0.00    +0.111 A 
ENDBRANCH  15  20
BRANCH   5   1
ATOM      1  S   UNL     1      11.125  10.865   5.498  0.00  0.00    +0.061 S 
ATOM      2  O   UNL     1      11.705  11.737   4.499  0.00  0.00    -0.153 OA
ATOM      3  O   UNL     1      10.897  11.331   6.850  0.00  0.00    -0.153 OA
BRANCH   1  19
ATOM     19  C   UNL     1       9.589  10.267   4.866  0.00  0.00    +0.105 A 
ATOM     21  C   UNL     1       8.870  11.028   3.944  0.00  0.00    +0.028 A 
ATOM     22  C   UNL     1       9.093   9.034   5.290  0.00  0.00    +0.028 A 
ATOM     25  C   UNL     1       7.655  10.555   3.445  0.00  0.00    +0.002 A 
ATOM     26  C   UNL     1       7.879   8.561   4.790  0.00  0.00    +0.002 A 
ATOM     28  C   UNL     1       7.160   9.322   3.869  0.00  0.00    +0.000 A 
ENDBRANCH   1  19
ENDBRANCH   5   1
TORSDOF 3
ENDMDL
MODEL 9
REMARK VINA RESULT:      -6.2      3.360      5.588
REMARK  Name = 40467589
REMARK  3 active torsions:
REMARK  status: ('A' for Active; 'I' for Inactive)
REMARK    1  A    between atoms: S_1  and  N_5
REMARK    2  A    between atoms: S_1  and  C_19
REMARK    3  A    between atoms: C_15  and  C_20
REMARK                            x       y       z     vdW  Elec       q    Type
REMARK                         _______ _______ _______ _____ _____    ______ ____
ROOT
ATOM      4  O   UNL     1      -0.807 -10.480  15.582  0.00  0.00    -0.268 OA
ATOM      5  N   UNL     1      -4.839 -13.337  15.915  0.00  0.00    -0.176 NA
ATOM      6  N   UNL     1      -3.119 -10.764  15.335  0.00  0.00    -0.311 N 
ATOM      8  C   UNL     1      -4.628 -11.303  17.338  0.00  0.00    +0.025 C 
ATOM      9  C   UNL     1      -5.597 -11.115  15.090  0.00  0.00    +0.053 C 
ATOM     10  C   UNL     1      -5.707 -10.608  16.526  0.00  0.00    +0.017 C 
ATOM     11  C   UNL     1      -4.822 -12.827  17.315  0.00  0.00    +0.114 C 
ATOM     12  C   UNL     1      -5.845 -12.636  15.064  0.00  0.00    +0.119 C 
ATOM     13  C   UNL     1      -3.261 -10.884  16.793  0.00  0.00    +0.130 C 
ATOM     14  C   UNL     1      -4.236 -10.776  14.475  0.00  0.00    +0.034 A 
ATOM     15  C   UNL     1      -4.073 -10.512  13.153  0.00  0.00    +0.003 A 
ATOM     16  C   UNL     1      -1.814 -10.517  14.874  0.00  0.00    +0.252 A 
ATOM     17  C   UNL     1      -2.740 -10.258  12.638  0.00  0.00    +0.015 A 
ATOM     18  C   UNL     1      -1.662 -10.267  13.422  0.00  0.00    +0.071 A 
ENDROOT
BRANCH  15  20
ATOM      7  N   UNL     1      -7.087  -9.345  11.263  0.00  0.00    -0.263 NA
ATOM     20  C   UNL     1      -5.218 -10.523  12.244  0.00  0.00    +0.002 A 
ATOM     23  C   UNL     1      -5.540 -11.660  11.512  0.00  0.00    +0.011 A 
ATOM     24  C   UNL     1      -6.015  -9.401  12.085  0.00  0.00    +0.119 A 
ATOM     27  C   UNL     1      -6.636 -11.641  10.656  0.00  0.00    +0.020 A 
ATOM     29  C   UNL     1      -7.370 -10.470  10.568  0.00  0.00    +0.111 A 
ENDBRANCH  15  20
BRANCH   5   1
ATOM      1  S   UNL     1      -4.785 -15.039  15.747  0.00  0.00    +0.061 S 
ATOM      2  O   UNL     1      -5.837 -15.460  14.846  0.00  0.00    -0.153 OA
ATOM      3  O   UNL     1      -4.645 -15.638  17.058  0.00  0.00    -0.153 OA
BRANCH   1  19
ATOM     19  C   UNL     1      -3.246 -15.219  14.902  0.00  0.00    +0.105 A 
ATOM     21  C   UNL     1      -2.746 -14.170  14.131  0.00  0.00    +0.028 A 
ATOM     22  C   UNL     1      -2.530 -16.412  15.004  0.00  0.00    +0.028 A 
ATOM     25  C   UNL     1      -1.530 -14.313  13.462  0.00  0.00    +0.002 A 
ATOM     26  C   UNL     1      -1.314 -16.555  14.336  0.00  0.00    +0.002 A 
ATOM     28  C   UNL     1      -0.814 -15.506  13.564  0.00  0.00    +0.000 A 
ENDBRANCH   1  19
ENDBRANCH   5   1
TORSDOF 3
ENDMDL
MODEL 10
REMARK VINA RESULT:      -5.9     25.811     28.896
REMARK  Name = 40467589
REMARK  3 active torsions:
REMARK  status: ('A' for Active; 'I' for Inactive)
REMARK    1  A    between atoms: S_1  and  N_5
REMARK    2  A    between atoms: S_1  and  C_19
REMARK    3  A    between atoms: C_15  and  C_20
REMARK                            x       y       z     vdW  Elec       q    Type
REMARK                         _______ _______ _______ _____ _____    ______ ____
ROOT
ATOM      4  O   UNL     1      15.571   6.781   1.534  0.00  0.00    -0.268 OA
ATOM      5  N   UNL     1      11.387   4.758  -0.179  0.00  0.00    -0.176 NA
ATOM      6  N   UNL     1      13.615   5.545   1.903  0.00  0.00    -0.311 N 
ATOM      8  C   UNL     1      13.199   3.306   0.723  0.00  0.00    +0.025 C 
ATOM      9  C   UNL     1      11.506   4.221   2.248  0.00  0.00    +0.053 C 
ATOM     10  C   UNL     1      12.353   2.987   1.944  0.00  0.00    +0.017 C 
ATOM     11  C   UNL     1      12.311   3.631  -0.488  0.00  0.00    +0.114 C 
ATOM     12  C   UNL     1      10.580   4.513   1.052  0.00  0.00    +0.119 C 
ATOM     13  C   UNL     1      14.148   4.454   1.073  0.00  0.00    +0.130 C 
ATOM     14  C   UNL     1      12.379   5.438   2.569  0.00  0.00    +0.034 A 
ATOM     15  C   UNL     1      11.995   6.405   3.442  0.00  0.00    +0.003 A 
ATOM     16  C   UNL     1      14.476   6.643   2.079  0.00  0.00    +0.252 A 
ATOM     17  C   UNL     1      12.854   7.557   3.647  0.00  0.00    +0.015 A 
ATOM     18  C   UNL     1      14.017   7.700   3.010  0.00  0.00    +0.071 A 
ENDROOT
BRANCH  15  20
ATOM      7  N   UNL     1       8.415   7.032   4.339  0.00  0.00    -0.263 NA
ATOM     20  C   UNL     1      10.715   6.314   4.141  0.00  0.00    +0.002 A 
ATOM     23  C   UNL     1      10.553   5.470   5.233  0.00  0.00    +0.011 A 
ATOM     24  C   UNL     1       9.625   7.068   3.737  0.00  0.00    +0.119 A 
ATOM     27  C   UNL     1       9.323   5.405   5.878  0.00  0.00    +0.020 A 
ATOM     29  C   UNL     1       8.296   6.199   5.397  0.00  0.00    +0.111 A 
ENDBRANCH  15  20
BRANCH   5   1
ATOM      1  S   UNL     1      10.528   5.398  -1.513  0.00  0.00    +0.061 S 
ATOM      2  O   UNL     1       9.262   4.707  -1.636  0.00  0.00    -0.153 OA
ATOM      3  O   UNL     1      11.427   5.510  -2.643  0.00  0.00    -0.153 OA
BRANCH   1  19
ATOM     19  C   UNL     1      10.198   7.027  -0.919  0.00  0.00    +0.105 A 
ATOM     21  C   UNL     1       9.027   7.683  -1.295  0.00  0.00    +0.028 A 
ATOM     22  C   UNL     1      11.111   7.659  -0.075  0.00  0.00    +0.028 A 
ATOM     25  C   UNL     1       8.767   8.972  -0.826  0.00  0.00    +0.002 A 
ATOM     26  C   UNL     1      10.851   8.947   0.395  0.00  0.00    +0.002 A 
ATOM     28  C   UNL     1       9.679   9.603   0.018  0.00  0.00    +0.000 A 
ENDBRANCH   1  19
ENDBRANCH   5   1
TORSDOF 3
ENDMDL
