MODEL 1
REMARK VINA RESULT:      -7.3      0.000      0.000
REMARK  Name = 45784343
REMARK  4 active torsions:
REMARK  status: ('A' for Active; 'I' for Inactive)
REMARK    1  A    between atoms: N_3  and  C_9
REMARK    2  A    between atoms: C_5  and  C_10
REMARK    3  A    between atoms: C_9  and  C_11
REMARK    4  A    between atoms: C_12  and  C_17
REMARK                            x       y       z     vdW  Elec       q    Type
REMARK                         _______ _______ _______ _____ _____    ______ ____
ROOT
ATOM      3  N   UNL     1      12.015   4.202   1.736  0.00  0.00    -0.297 NA
ATOM      5  C   UNL     1      10.501   5.148   3.255  0.00  0.00    +0.090 C 
ATOM      6  C   UNL     1      11.166   3.821   2.866  0.00  0.00    +0.097 C 
ATOM      7  C   UNL     1      11.469   6.232   2.752  0.00  0.00    +0.029 C 
ATOM      8  C   UNL     1      12.633   5.466   2.137  0.00  0.00    +0.085 C 
ENDROOT
BRANCH   5  10
ATOM      1  F   UNL     1       9.038   4.921  10.328  0.00  0.00    -0.205 F 
ATOM      2  O   UNL     1       9.769   6.452   5.180  0.00  0.00    -0.439 OA
ATOM      4  N   UNL     1      10.205   4.273   5.629  0.00  0.00    -0.213 NA
ATOM     10  C   UNL     1      10.165   5.229   4.727  0.00  0.00    +0.201 A 
ATOM     13  C   UNL     1       9.803   4.907   6.779  0.00  0.00    +0.112 A 
ATOM     14  C   UNL     1       9.536   6.242   6.509  0.00  0.00    +0.156 A 
ATOM     18  C   UNL     1       9.637   4.436   8.089  0.00  0.00    +0.070 A 
ATOM     19  C   UNL     1       9.107   7.170   7.450  0.00  0.00    +0.051 A 
ATOM     22  C   UNL     1       9.206   5.343   9.067  0.00  0.00    +0.126 A 
ATOM     23  C   UNL     1       8.946   6.683   8.751  0.00  0.00    +0.042 A 
ENDBRANCH   5  10
BRANCH   3   9
ATOM      9  C   UNL     1      13.001   3.181   1.413  0.00  0.00    +0.119 C 
BRANCH   9  11
ATOM     11  C   UNL     1      13.958   3.643   0.346  0.00  0.00    -0.030 A 
ATOM     12  C   UNL     1      13.545   3.776  -0.979  0.00  0.00    -0.046 A 
ATOM     15  C   UNL     1      15.274   3.938   0.700  0.00  0.00    +0.005 A 
ATOM     16  C   UNL     1      14.449   4.205  -1.952  0.00  0.00    +0.003 A 
ATOM     17  C   UNL     1      12.141   3.465  -1.381  0.00  0.00    +0.044 C 
ATOM     20  C   UNL     1      16.178   4.368  -0.273  0.00  0.00    +0.000 A 
ATOM     21  C   UNL     1      15.765   4.501  -1.598  0.00  0.00    +0.000 A 
ENDBRANCH   9  11
ENDBRANCH   3   9
TORSDOF 3
ENDMDL
MODEL 2
REMARK VINA RESULT:      -7.2     22.627     25.455
REMARK  Name = 45784343
REMARK  4 active torsions:
REMARK  status: ('A' for Active; 'I' for Inactive)
REMARK    1  A    between atoms: N_3  and  C_9
REMARK    2  A    between atoms: C_5  and  C_10
REMARK    3  A    between atoms: C_9  and  C_11
REMARK    4  A    between atoms: C_12  and  C_17
REMARK                            x       y       z     vdW  Elec       q    Type
REMARK                         _______ _______ _______ _____ _____    ______ ____
ROOT
ATOM      3  N   UNL     1      -2.128 -10.971  13.755  0.00  0.00    -0.297 NA
ATOM      5  C   UNL     1      -3.306 -10.301  15.669  0.00  0.00    +0.090 C 
ATOM      6  C   UNL     1      -3.502 -10.850  14.249  0.00  0.00    +0.097 C 
ATOM      7  C   UNL     1      -1.888 -10.745  16.067  0.00  0.00    +0.029 C 
ATOM      8  C   UNL     1      -1.374 -11.539  14.873  0.00  0.00    +0.085 C 
ENDROOT
BRANCH   5  10
ATOM      1  F   UNL     1      -8.172 -12.873  20.352  0.00  0.00    -0.205 F 
ATOM      2  O   UNL     1      -5.466  -9.891  16.722  0.00  0.00    -0.439 OA
ATOM      4  N   UNL     1      -4.451 -11.812  17.370  0.00  0.00    -0.213 NA
ATOM     10  C   UNL     1      -4.397 -10.732  16.622  0.00  0.00    +0.201 A 
ATOM     13  C   UNL     1      -5.653 -11.686  18.022  0.00  0.00    +0.112 A 
ATOM     14  C   UNL     1      -6.277 -10.511  17.629  0.00  0.00    +0.156 A 
ATOM     18  C   UNL     1      -6.291 -12.511  18.960  0.00  0.00    +0.070 A 
ATOM     19  C   UNL     1      -7.511 -10.076  18.097  0.00  0.00    +0.051 A 
ATOM     22  C   UNL     1      -7.537 -12.104  19.456  0.00  0.00    +0.126 A 
ATOM     23  C   UNL     1      -8.134 -10.910  19.031  0.00  0.00    +0.042 A 
ENDBRANCH   5  10
BRANCH   3   9
ATOM      9  C   UNL     1      -2.040 -11.788  12.555  0.00  0.00    +0.119 C 
BRANCH   9  11
ATOM     11  C   UNL     1      -2.765 -11.161  11.394  0.00  0.00    -0.030 A 
ATOM     12  C   UNL     1      -3.626 -11.913  10.595  0.00  0.00    -0.046 A 
ATOM     15  C   UNL     1      -2.566  -9.808  11.123  0.00  0.00    +0.005 A 
ATOM     16  C   UNL     1      -4.287 -11.312   9.524  0.00  0.00    +0.003 A 
ATOM     17  C   UNL     1      -3.853 -13.364  10.865  0.00  0.00    +0.044 C 
ATOM     20  C   UNL     1      -3.229  -9.206  10.053  0.00  0.00    +0.000 A 
ATOM     21  C   UNL     1      -4.088  -9.958   9.253  0.00  0.00    +0.000 A 
ENDBRANCH   9  11
ENDBRANCH   3   9
TORSDOF 3
ENDMDL
MODEL 3
REMARK VINA RESULT:      -7.0     16.609     20.450
REMARK  Name = 45784343
REMARK  4 active torsions:
REMARK  status: ('A' for Active; 'I' for Inactive)
REMARK    1  A    between atoms: N_3  and  C_9
REMARK    2  A    between atoms: C_5  and  C_10
REMARK    3  A    between atoms: C_9  and  C_11
REMARK    4  A    between atoms: C_12  and  C_17
REMARK                            x       y       z     vdW  Elec       q    Type
REMARK                         _______ _______ _______ _____ _____    ______ ____
ROOT
ATOM      3  N   UNL     1      11.329  11.387  22.158  0.00  0.00    -0.297 NA
ATOM      5  C   UNL     1      12.027   9.578  20.839  0.00  0.00    +0.090 C 
ATOM      6  C   UNL     1      12.378  11.027  21.201  0.00  0.00    +0.097 C 
ATOM      7  C   UNL     1      11.229   9.056  22.047  0.00  0.00    +0.029 C 
ATOM      8  C   UNL     1      11.198  10.219  23.030  0.00  0.00    +0.085 C 
ENDROOT
BRANCH   5  10
ATOM      1  F   UNL     1      17.527   5.488  18.550  0.00  0.00    -0.205 F 
ATOM      2  O   UNL     1      14.241   8.724  21.398  0.00  0.00    -0.439 OA
ATOM      4  N   UNL     1      13.454   8.054  19.381  0.00  0.00    -0.213 NA
ATOM     10  C   UNL     1      13.239   8.751  20.475  0.00  0.00    +0.201 A 
ATOM     13  C   UNL     1      14.701   7.516  19.589  0.00  0.00    +0.112 A 
ATOM     14  C   UNL     1      15.186   7.924  20.823  0.00  0.00    +0.156 A 
ATOM     18  C   UNL     1      15.494   6.677  18.793  0.00  0.00    +0.070 A 
ATOM     19  C   UNL     1      16.421   7.562  21.347  0.00  0.00    +0.051 A 
ATOM     22  C   UNL     1      16.747   6.290  19.288  0.00  0.00    +0.126 A 
ATOM     23  C   UNL     1      17.199   6.725  20.541  0.00  0.00    +0.042 A 
ENDBRANCH   5  10
BRANCH   3   9
ATOM      9  C   UNL     1      11.645  12.599  22.898  0.00  0.00    +0.119 C 
BRANCH   9  11
ATOM     11  C   UNL     1      10.572  13.645  22.746  0.00  0.00    -0.030 A 
ATOM     12  C   UNL     1       9.993  14.247  23.862  0.00  0.00    -0.046 A 
ATOM     15  C   UNL     1      10.160  14.009  21.464  0.00  0.00    +0.005 A 
ATOM     16  C   UNL     1       9.001  15.213  23.698  0.00  0.00    +0.003 A 
ATOM     17  C   UNL     1      10.419  13.873  25.244  0.00  0.00    +0.044 C 
ATOM     20  C   UNL     1       9.167  14.976  21.299  0.00  0.00    +0.000 A 
ATOM     21  C   UNL     1       8.588  15.578  22.416  0.00  0.00    +0.000 A 
ENDBRANCH   9  11
ENDBRANCH   3   9
TORSDOF 3
ENDMDL
MODEL 4
REMARK VINA RESULT:      -6.9     23.477     26.478
REMARK  Name = 45784343
REMARK  4 active torsions:
REMARK  status: ('A' for Active; 'I' for Inactive)
REMARK    1  A    between atoms: N_3  and  C_9
REMARK    2  A    between atoms: C_5  and  C_10
REMARK    3  A    between atoms: C_9  and  C_11
REMARK    4  A    between atoms: C_12  and  C_17
REMARK                            x       y       z     vdW  Elec       q    Type
REMARK                         _______ _______ _______ _____ _____    ______ ____
ROOT
ATOM      3  N   UNL     1      -4.680 -10.466  14.542  0.00  0.00    -0.297 NA
ATOM      5  C   UNL     1      -5.925  -9.527  16.293  0.00  0.00    +0.090 C 
ATOM      6  C   UNL     1      -6.033  -9.986  14.833  0.00  0.00    +0.097 C 
ATOM      7  C   UNL     1      -4.755 -10.340  16.873  0.00  0.00    +0.029 C 
ATOM      8  C   UNL     1      -4.288 -11.229  15.728  0.00  0.00    +0.085 C 
ENDROOT
BRANCH   5  10
ATOM      1  F   UNL     1     -12.381  -9.703  19.533  0.00  0.00    -0.205 F 
ATOM      2  O   UNL     1      -7.242 -10.584  18.051  0.00  0.00    -0.439 OA
ATOM      4  N   UNL     1      -8.349  -8.997  16.868  0.00  0.00    -0.213 NA
ATOM     10  C   UNL     1      -7.227  -9.658  17.050  0.00  0.00    +0.201 A 
ATOM     13  C   UNL     1      -9.183  -9.520  17.826  0.00  0.00    +0.112 A 
ATOM     14  C   UNL     1      -8.509 -10.492  18.551  0.00  0.00    +0.156 A 
ATOM     18  C   UNL     1     -10.517  -9.236  18.151  0.00  0.00    +0.070 A 
ATOM     19  C   UNL     1      -9.060 -11.223  19.597  0.00  0.00    +0.051 A 
ATOM     22  C   UNL     1     -11.108  -9.954  19.200  0.00  0.00    +0.126 A 
ATOM     23  C   UNL     1     -10.391 -10.927  19.908  0.00  0.00    +0.042 A 
ENDBRANCH   5  10
BRANCH   3   9
ATOM      9  C   UNL     1      -4.622 -11.263  13.326  0.00  0.00    +0.119 C 
BRANCH   9  11
ATOM     11  C   UNL     1      -4.314 -10.421  12.117  0.00  0.00    -0.030 A 
ATOM     12  C   UNL     1      -3.010 -10.306  11.636  0.00  0.00    -0.046 A 
ATOM     15  C   UNL     1      -5.356  -9.749  11.477  0.00  0.00    +0.005 A 
ATOM     16  C   UNL     1      -2.748  -9.520  10.514  0.00  0.00    +0.003 A 
ATOM     17  C   UNL     1      -1.880 -11.015  12.305  0.00  0.00    +0.044 C 
ATOM     20  C   UNL     1      -5.093  -8.963  10.354  0.00  0.00    +0.000 A 
ATOM     21  C   UNL     1      -3.789  -8.849   9.874  0.00  0.00    +0.000 A 
ENDBRANCH   9  11
ENDBRANCH   3   9
TORSDOF 3
ENDMDL
MODEL 5
REMARK VINA RESULT:      -6.9      3.808      8.767
REMARK  Name = 45784343
REMARK  4 active torsions:
REMARK  status: ('A' for Active; 'I' for Inactive)
REMARK    1  A    between atoms: N_3  and  C_9
REMARK    2  A    between atoms: C_5  and  C_10
REMARK    3  A    between atoms: C_9  and  C_11
REMARK    4  A    between atoms: C_12  and  C_17
REMARK                            x       y       z     vdW  Elec       q    Type
REMARK                         _______ _______ _______ _____ _____    ______ ____
ROOT
ATOM      3  N   UNL     1      10.741   5.464   4.149  0.00  0.00    -0.297 NA
ATOM      5  C   UNL     1      11.972   4.503   2.400  0.00  0.00    +0.090 C 
ATOM      6  C   UNL     1      10.594   4.479   3.075  0.00  0.00    +0.097 C 
ATOM      7  C   UNL     1      12.544   5.894   2.728  0.00  0.00    +0.029 C 
ATOM      8  C   UNL     1      11.455   6.585   3.539  0.00  0.00    +0.085 C 
ENDROOT
BRANCH   5  10
ATOM      1  F   UNL     1      12.224   2.596  -4.565  0.00  0.00    -0.205 F 
ATOM      2  O   UNL     1      10.851   4.688   0.244  0.00  0.00    -0.439 OA
ATOM      4  N   UNL     1      12.751   3.452   0.215  0.00  0.00    -0.213 NA
ATOM     10  C   UNL     1      11.913   4.173   0.927  0.00  0.00    +0.201 A 
ATOM     13  C   UNL     1      12.209   3.488  -1.046  0.00  0.00    +0.112 A 
ATOM     14  C   UNL     1      11.045   4.243  -1.033  0.00  0.00    +0.156 A 
ATOM     18  C   UNL     1      12.629   2.913  -2.254  0.00  0.00    +0.070 A 
ATOM     19  C   UNL     1      10.245   4.484  -2.143  0.00  0.00    +0.051 A 
ATOM     22  C   UNL     1      11.847   3.132  -3.396  0.00  0.00    +0.126 A 
ATOM     23  C   UNL     1      10.679   3.904  -3.339  0.00  0.00    +0.042 A 
ENDBRANCH   5  10
BRANCH   3   9
ATOM      9  C   UNL     1       9.462   5.863   4.716  0.00  0.00    +0.119 C 
BRANCH   9  11
ATOM     11  C   UNL     1       9.440   5.717   6.214  0.00  0.00    -0.030 A 
ATOM     12  C   UNL     1       8.972   6.747   7.029  0.00  0.00    -0.046 A 
ATOM     15  C   UNL     1       9.897   4.529   6.784  0.00  0.00    +0.005 A 
ATOM     16  C   UNL     1       8.962   6.590   8.415  0.00  0.00    +0.003 A 
ATOM     17  C   UNL     1       8.479   8.027   6.441  0.00  0.00    +0.044 C 
ATOM     20  C   UNL     1       9.886   4.371   8.170  0.00  0.00    +0.000 A 
ATOM     21  C   UNL     1       9.419   5.402   8.985  0.00  0.00    +0.000 A 
ENDBRANCH   9  11
ENDBRANCH   3   9
TORSDOF 3
ENDMDL
MODEL 6
REMARK VINA RESULT:      -6.7     29.519     33.637
REMARK  Name = 45784343
REMARK  4 active torsions:
REMARK  status: ('A' for Active; 'I' for Inactive)
REMARK    1  A    between atoms: N_3  and  C_9
REMARK    2  A    between atoms: C_5  and  C_10
REMARK    3  A    between atoms: C_9  and  C_11
REMARK    4  A    between atoms: C_12  and  C_17
REMARK                            x       y       z     vdW  Elec       q    Type
REMARK                         _______ _______ _______ _____ _____    ______ ____
ROOT
ATOM      3  N   UNL     1     -15.194   5.872  21.996  0.00  0.00    -0.297 NA
ATOM      5  C   UNL     1     -15.887   3.905  23.067  0.00  0.00    +0.090 C 
ATOM      6  C   UNL     1     -14.763   4.949  23.048  0.00  0.00    +0.097 C 
ATOM      7  C   UNL     1     -17.113   4.640  22.499  0.00  0.00    +0.029 C 
ATOM      8  C   UNL     1     -16.628   6.057  22.221  0.00  0.00    +0.085 C 
ENDROOT
BRANCH   5  10
ATOM      1  F   UNL     1     -16.946   0.385  29.288  0.00  0.00    -0.205 F 
ATOM      2  O   UNL     1     -16.024   4.140  25.489  0.00  0.00    -0.439 OA
ATOM      4  N   UNL     1     -16.330   2.026  24.728  0.00  0.00    -0.213 NA
ATOM     10  C   UNL     1     -16.093   3.285  24.430  0.00  0.00    +0.201 A 
ATOM     13  C   UNL     1     -16.429   2.039  26.098  0.00  0.00    +0.112 A 
ATOM     14  C   UNL     1     -16.241   3.332  26.568  0.00  0.00    +0.156 A 
ATOM     18  C   UNL     1     -16.672   1.012  27.021  0.00  0.00    +0.070 A 
ATOM     19  C   UNL     1     -16.277   3.700  27.907  0.00  0.00    +0.051 A 
ATOM     22  C   UNL     1     -16.715   1.345  28.382  0.00  0.00    +0.126 A 
ATOM     23  C   UNL     1     -16.521   2.664  28.814  0.00  0.00    +0.042 A 
ENDBRANCH   5  10
BRANCH   3   9
ATOM      9  C   UNL     1     -14.462   7.129  22.026  0.00  0.00    +0.119 C 
BRANCH   9  11
ATOM     11  C   UNL     1     -13.547   7.274  20.839  0.00  0.00    -0.030 A 
ATOM     12  C   UNL     1     -14.008   7.814  19.639  0.00  0.00    -0.046 A 
ATOM     15  C   UNL     1     -12.220   6.859  20.952  0.00  0.00    +0.005 A 
ATOM     16  C   UNL     1     -13.143   7.939  18.552  0.00  0.00    +0.003 A 
ATOM     17  C   UNL     1     -15.424   8.265  19.494  0.00  0.00    +0.044 C 
ATOM     20  C   UNL     1     -11.355   6.984  19.865  0.00  0.00    +0.000 A 
ATOM     21  C   UNL     1     -11.817   7.524  18.665  0.00  0.00    +0.000 A 
ENDBRANCH   9  11
ENDBRANCH   3   9
TORSDOF 3
ENDMDL
MODEL 7
REMARK VINA RESULT:      -6.6     28.036     32.212
REMARK  Name = 45784343
REMARK  4 active torsions:
REMARK  status: ('A' for Active; 'I' for Inactive)
REMARK    1  A    between atoms: N_3  and  C_9
REMARK    2  A    between atoms: C_5  and  C_10
REMARK    3  A    between atoms: C_9  and  C_11
REMARK    4  A    between atoms: C_12  and  C_17
REMARK                            x       y       z     vdW  Elec       q    Type
REMARK                         _______ _______ _______ _____ _____    ______ ____
ROOT
ATOM      3  N   UNL     1     -13.672   6.944  20.972  0.00  0.00    -0.297 NA
ATOM      5  C   UNL     1     -14.913   5.082  21.673  0.00  0.00    +0.090 C 
ATOM      6  C   UNL     1     -13.602   5.839  21.930  0.00  0.00    +0.097 C 
ATOM      7  C   UNL     1     -15.860   6.136  21.073  0.00  0.00    +0.029 C 
ATOM      8  C   UNL     1     -15.051   7.426  21.050  0.00  0.00    +0.085 C 
ENDROOT
BRANCH   5  10
ATOM      1  F   UNL     1     -17.100   2.150  27.904  0.00  0.00    -0.205 F 
ATOM      2  O   UNL     1     -16.272   3.326  22.678  0.00  0.00    -0.439 OA
ATOM      4  N   UNL     1     -15.201   4.658  24.167  0.00  0.00    -0.213 NA
ATOM     10  C   UNL     1     -15.440   4.382  22.904  0.00  0.00    +0.201 A 
ATOM     13  C   UNL     1     -15.931   3.711  24.842  0.00  0.00    +0.112 A 
ATOM     14  C   UNL     1     -16.588   2.893  23.934  0.00  0.00    +0.156 A 
ATOM     18  C   UNL     1     -16.097   3.469  26.213  0.00  0.00    +0.070 A 
ATOM     19  C   UNL     1     -17.414   1.830  24.278  0.00  0.00    +0.051 A 
ATOM     22  C   UNL     1     -16.924   2.406  26.601  0.00  0.00    +0.126 A 
ATOM     23  C   UNL     1     -17.568   1.603  25.650  0.00  0.00    +0.042 A 
ENDBRANCH   5  10
BRANCH   3   9
ATOM      9  C   UNL     1     -12.702   7.991  21.259  0.00  0.00    +0.119 C 
BRANCH   9  11
ATOM     11  C   UNL     1     -11.877   8.339  20.049  0.00  0.00    -0.030 A 
ATOM     12  C   UNL     1     -11.411   9.638  19.848  0.00  0.00    -0.046 A 
ATOM     15  C   UNL     1     -11.580   7.340  19.122  0.00  0.00    +0.005 A 
ATOM     16  C   UNL     1     -10.648   9.939  18.720  0.00  0.00    +0.003 A 
ATOM     17  C   UNL     1     -11.717  10.723  20.827  0.00  0.00    +0.044 C 
ATOM     20  C   UNL     1     -10.817   7.641  17.993  0.00  0.00    +0.000 A 
ATOM     21  C   UNL     1     -10.352   8.940  17.793  0.00  0.00    +0.000 A 
ENDBRANCH   9  11
ENDBRANCH   3   9
TORSDOF 3
ENDMDL
MODEL 8
REMARK VINA RESULT:      -6.6      0.983      2.048
REMARK  Name = 45784343
REMARK  4 active torsions:
REMARK  status: ('A' for Active; 'I' for Inactive)
REMARK    1  A    between atoms: N_3  and  C_9
REMARK    2  A    between atoms: C_5  and  C_10
REMARK    3  A    between atoms: C_9  and  C_11
REMARK    4  A    between atoms: C_12  and  C_17
REMARK                            x       y       z     vdW  Elec       q    Type
REMARK                         _______ _______ _______ _____ _____    ______ ____
ROOT
ATOM      3  N   UNL     1      11.657   5.314   1.216  0.00  0.00    -0.297 NA
ATOM      5  C   UNL     1      10.158   5.785   2.956  0.00  0.00    +0.090 C 
ATOM      6  C   UNL     1      11.017   4.662   2.361  0.00  0.00    +0.097 C 
ATOM      7  C   UNL     1      10.846   7.085   2.504  0.00  0.00    +0.029 C 
ATOM      8  C   UNL     1      12.063   6.630   1.710  0.00  0.00    +0.085 C 
ENDROOT
BRANCH   5  10
ATOM      1  F   UNL     1       9.467   4.562  10.044  0.00  0.00    -0.205 F 
ATOM      2  O   UNL     1       9.478   6.754   5.087  0.00  0.00    -0.439 OA
ATOM      4  N   UNL     1      10.214   4.614   5.217  0.00  0.00    -0.213 NA
ATOM     10  C   UNL     1       9.968   5.653   4.450  0.00  0.00    +0.201 A 
ATOM     13  C   UNL     1       9.859   5.054   6.469  0.00  0.00    +0.112 A 
ATOM     14  C   UNL     1       9.409   6.364   6.393  0.00  0.00    +0.156 A 
ATOM     18  C   UNL     1       9.886   4.418   7.718  0.00  0.00    +0.070 A 
ATOM     19  C   UNL     1       8.971   7.115   7.478  0.00  0.00    +0.051 A 
ATOM     22  C   UNL     1       9.454   5.144   8.837  0.00  0.00    +0.126 A 
ATOM     23  C   UNL     1       9.005   6.465   8.717  0.00  0.00    +0.042 A 
ENDBRANCH   5  10
BRANCH   3   9
ATOM      9  C   UNL     1      12.779   4.547   0.695  0.00  0.00    +0.119 C 
BRANCH   9  11
ATOM     11  C   UNL     1      12.535   4.084  -0.716  0.00  0.00    -0.030 A 
ATOM     12  C   UNL     1      13.589   3.946  -1.619  0.00  0.00    -0.046 A 
ATOM     15  C   UNL     1      11.232   3.790  -1.117  0.00  0.00    +0.005 A 
ATOM     16  C   UNL     1      13.340   3.516  -2.922  0.00  0.00    +0.003 A 
ATOM     17  C   UNL     1      14.993   4.256  -1.213  0.00  0.00    +0.044 C 
ATOM     20  C   UNL     1      10.983   3.358  -2.420  0.00  0.00    +0.000 A 
ATOM     21  C   UNL     1      12.037   3.222  -3.322  0.00  0.00    +0.000 A 
ENDBRANCH   9  11
ENDBRANCH   3   9
TORSDOF 3
ENDMDL
MODEL 9
REMARK VINA RESULT:      -6.5     16.835     19.877
REMARK  Name = 45784343
REMARK  4 active torsions:
REMARK  status: ('A' for Active; 'I' for Inactive)
REMARK    1  A    between atoms: N_3  and  C_9
REMARK    2  A    between atoms: C_5  and  C_10
REMARK    3  A    between atoms: C_9  and  C_11
REMARK    4  A    between atoms: C_12  and  C_17
REMARK                            x       y       z     vdW  Elec       q    Type
REMARK                         _______ _______ _______ _____ _____    ______ ____
ROOT
ATOM      3  N   UNL     1      15.797   7.704  20.720  0.00  0.00    -0.297 NA
ATOM      5  C   UNL     1      17.802   7.219  21.835  0.00  0.00    +0.090 C 
ATOM      6  C   UNL     1      16.730   6.595  20.932  0.00  0.00    +0.097 C 
ATOM      7  C   UNL     1      17.727   8.728  21.544  0.00  0.00    +0.029 C 
ATOM      8  C   UNL     1      16.646   8.871  20.480  0.00  0.00    +0.085 C 
ENDROOT
BRANCH   5  10
ATOM      1  F   UNL     1      24.243   4.334  20.282  0.00  0.00    -0.205 F 
ATOM      2  O   UNL     1      19.834   6.259  22.780  0.00  0.00    -0.439 OA
ATOM      4  N   UNL     1      19.801   6.354  20.515  0.00  0.00    -0.213 NA
ATOM     10  C   UNL     1      19.168   6.603  21.641  0.00  0.00    +0.201 A 
ATOM     13  C   UNL     1      20.985   5.798  20.934  0.00  0.00    +0.112 A 
ATOM     14  C   UNL     1      21.009   5.739  22.320  0.00  0.00    +0.156 A 
ATOM     18  C   UNL     1      22.091   5.319  20.216  0.00  0.00    +0.070 A 
ATOM     19  C   UNL     1      22.061   5.231  23.072  0.00  0.00    +0.051 A 
ATOM     22  C   UNL     1      23.173   4.800  20.941  0.00  0.00    +0.126 A 
ATOM     23  C   UNL     1      23.156   4.758  22.341  0.00  0.00    +0.042 A 
ENDBRANCH   5  10
BRANCH   3   9
ATOM      9  C   UNL     1      14.877   7.453  19.621  0.00  0.00    +0.119 C 
BRANCH   9  11
ATOM     11  C   UNL     1      13.442   7.642  20.036  0.00  0.00    -0.030 A 
ATOM     12  C   UNL     1      12.607   8.525  19.351  0.00  0.00    -0.046 A 
ATOM     15  C   UNL     1      12.951   6.919  21.123  0.00  0.00    +0.005 A 
ATOM     16  C   UNL     1      11.281   8.685  19.753  0.00  0.00    +0.003 A 
ATOM     17  C   UNL     1      13.111   9.310  18.185  0.00  0.00    +0.044 C 
ATOM     20  C   UNL     1      11.624   7.079  21.525  0.00  0.00    +0.000 A 
ATOM     21  C   UNL     1      10.790   7.962  20.840  0.00  0.00    +0.000 A 
ENDBRANCH   9  11
ENDBRANCH   3   9
TORSDOF 3
ENDMDL
MODEL 10
REMARK VINA RESULT:      -6.3      5.622      6.629
REMARK  Name = 45784343
REMARK  4 active torsions:
REMARK  status: ('A' for Active; 'I' for Inactive)
REMARK    1  A    between atoms: N_3  and  C_9
REMARK    2  A    between atoms: C_5  and  C_10
REMARK    3  A    between atoms: C_9  and  C_11
REMARK    4  A    between atoms: C_12  and  C_17
REMARK                            x       y       z     vdW  Elec       q    Type
REMARK                         _______ _______ _______ _____ _____    ______ ____
ROOT
ATOM      3  N   UNL     1      16.741   8.887   5.134  0.00  0.00    -0.297 NA
ATOM      5  C   UNL     1      14.651   7.907   4.723  0.00  0.00    +0.090 C 
ATOM      6  C   UNL     1      15.946   7.721   5.525  0.00  0.00    +0.097 C 
ATOM      7  C   UNL     1      14.571   9.420   4.456  0.00  0.00    +0.029 C 
ATOM      8  C   UNL     1      15.799  10.007   5.141  0.00  0.00    +0.085 C 
ENDROOT
BRANCH   5  10
ATOM      1  F   UNL     1       9.161   5.212   8.571  0.00  0.00    -0.205 F 
ATOM      2  O   UNL     1      12.443   6.883   4.594  0.00  0.00    -0.439 OA
ATOM      4  N   UNL     1      13.226   7.173   6.702  0.00  0.00    -0.213 NA
ATOM     10  C   UNL     1      13.442   7.319   5.413  0.00  0.00    +0.201 A 
ATOM     13  C   UNL     1      11.982   6.591   6.750  0.00  0.00    +0.112 A 
ATOM     14  C   UNL     1      11.500   6.412   5.461  0.00  0.00    +0.156 A 
ATOM     18  C   UNL     1      11.190   6.184   7.833  0.00  0.00    +0.070 A 
ATOM     19  C   UNL     1      10.269   5.849   5.148  0.00  0.00    +0.051 A 
ATOM     22  C   UNL     1       9.940   5.611   7.557  0.00  0.00    +0.126 A 
ATOM     23  C   UNL     1       9.491   5.448   6.240  0.00  0.00    +0.042 A 
ENDBRANCH   5  10
BRANCH   3   9
ATOM      9  C   UNL     1      17.874   9.110   6.020  0.00  0.00    +0.119 C 
BRANCH   9  11
ATOM     11  C   UNL     1      19.134   8.477   5.491  0.00  0.00    -0.030 A 
ATOM     12  C   UNL     1      20.281   8.394   6.280  0.00  0.00    -0.046 A 
ATOM     15  C   UNL     1      19.142   7.969   4.192  0.00  0.00    +0.005 A 
ATOM     16  C   UNL     1      21.437   7.804   5.769  0.00  0.00    +0.003 A 
ATOM     17  C   UNL     1      20.295   8.932   7.672  0.00  0.00    +0.044 C 
ATOM     20  C   UNL     1      20.298   7.378   3.682  0.00  0.00    +0.000 A 
ATOM     21  C   UNL     1      21.445   7.296   4.470  0.00  0.00    +0.000 A 
ENDBRANCH   9  11
ENDBRANCH   3   9
TORSDOF 3
ENDMDL
