MODEL 1
REMARK VINA RESULT:      -7.4      0.000      0.000
REMARK  Name = 28962329
REMARK  10 active torsions:
REMARK  status: ('A' for Active; 'I' for Inactive)
REMARK    1  A    between atoms: O_3  and  C_11
REMARK    2  A    between atoms: O_4  and  C_14
REMARK    3  A    between atoms: N_6  and  C_9
REMARK    4  A    between atoms: N_6  and  C_15
REMARK    5  A    between atoms: N_6  and  C_16
REMARK    6  A    between atoms: N_7  and  C_13
REMARK    7  A    between atoms: N_8  and  C_24
REMARK    8  A    between atoms: C_10  and  C_13
REMARK    9  A    between atoms: C_12  and  C_14
REMARK   10  A    between atoms: C_15  and  C_17
REMARK                            x       y       z     vdW  Elec       q    Type
REMARK                         _______ _______ _______ _____ _____    ______ ____
ROOT
ATOM      2  O   UNL     1      10.924   8.192  19.799  0.00  0.00    -0.365 OA
ATOM      9  C   UNL     1      12.019   9.684  21.274  0.00  0.00    +0.118 C 
ATOM     10  C   UNL     1      11.602   9.461  19.825  0.00  0.00    +0.155 C 
ATOM     11  C   UNL     1      10.847   9.063  22.010  0.00  0.00    +0.165 C 
ATOM     12  C   UNL     1      10.536   7.843  21.143  0.00  0.00    +0.174 C 
ENDROOT
BRANCH  11   3
ATOM      3  O   UNL     1      11.175   8.739  23.344  0.00  0.00    -0.388 OA
ATOM     30  H   UNL     1      10.604   8.000  23.615  0.00  0.00    +0.210 HD
ENDBRANCH  11   3
BRANCH   9   6
ATOM      6  N   UNL     1      12.214  11.088  21.600  0.00  0.00    -0.293 NA
ATOM     16  C   UNL     1      13.618  11.355  21.920  0.00  0.00    +0.105 C 
BRANCH   6  15
ATOM     15  C   UNL     1      11.356  11.483  22.721  0.00  0.00    +0.119 C 
BRANCH  15  17
ATOM     17  C   UNL     1      10.826  12.883  22.554  0.00  0.00    -0.033 A 
ATOM     19  C   UNL     1      10.876  13.504  21.307  0.00  0.00    +0.005 A 
ATOM     20  C   UNL     1      10.284  13.557  23.648  0.00  0.00    +0.005 A 
ATOM     21  C   UNL     1      10.385  14.800  21.152  0.00  0.00    +0.000 A 
ATOM     22  C   UNL     1       9.794  14.854  23.494  0.00  0.00    +0.000 A 
ATOM     23  C   UNL     1       9.843  15.476  22.247  0.00  0.00    +0.000 A 
ENDBRANCH  15  17
ENDBRANCH   6  15
ENDBRANCH   9   6
BRANCH  10  13
ATOM     13  C   UNL     1      12.762   9.443  18.845  0.00  0.00    +0.139 C 
BRANCH  13   7
ATOM      5  O   UNL     1      15.523   9.398  19.605  0.00  0.00    -0.253 OA
ATOM      7  N   UNL     1      13.582   8.281  19.027  0.00  0.00    -0.297 N 
ATOM      8  N   UNL     1      15.473   7.053  19.502  0.00  0.00    -0.269 N 
ATOM     18  C   UNL     1      14.935   8.338  19.402  0.00  0.00    +0.304 C 
ATOM     31  H   UNL     1      13.157   7.368  18.890  0.00  0.00    +0.150 HD
ATOM     33  H   UNL     1      14.845   6.279  19.301  0.00  0.00    +0.156 HD
BRANCH   8  24
ATOM      1 CL   UNL     1      19.505   7.704  22.614  0.00  0.00    -0.083 Cl
ATOM     24  C   UNL     1      16.795   6.690  19.853  0.00  0.00    +0.036 A 
ATOM     25  C   UNL     1      17.424   7.305  20.935  0.00  0.00    +0.043 A 
ATOM     26  C   UNL     1      17.467   5.714  19.117  0.00  0.00    +0.023 A 
ATOM     27  C   UNL     1      18.727   6.945  21.281  0.00  0.00    +0.043 A 
ATOM     28  C   UNL     1      18.769   5.354  19.462  0.00  0.00    +0.003 A 
ATOM     29  C   UNL     1      19.400   5.969  20.545  0.00  0.00    +0.020 A 
ENDBRANCH   8  24
ENDBRANCH  13   7
ENDBRANCH  10  13
BRANCH  12  14
ATOM     14  C   UNL     1      11.276   6.569  21.530  0.00  0.00    +0.190 C 
BRANCH  14   4
ATOM      4  O   UNL     1      11.828   5.992  20.359  0.00  0.00    -0.392 OA
ATOM     32  H   UNL     1      12.689   6.418  20.209  0.00  0.00    +0.210 HD
ENDBRANCH  14   4
ENDBRANCH  12  14
TORSDOF 9
ENDMDL
MODEL 2
REMARK VINA RESULT:      -7.2      4.053      7.478
REMARK  Name = 28962329
REMARK  10 active torsions:
REMARK  status: ('A' for Active; 'I' for Inactive)
REMARK    1  A    between atoms: O_3  and  C_11
REMARK    2  A    between atoms: O_4  and  C_14
REMARK    3  A    between atoms: N_6  and  C_9
REMARK    4  A    between atoms: N_6  and  C_15
REMARK    5  A    between atoms: N_6  and  C_16
REMARK    6  A    between atoms: N_7  and  C_13
REMARK    7  A    between atoms: N_8  and  C_24
REMARK    8  A    between atoms: C_10  and  C_13
REMARK    9  A    between atoms: C_12  and  C_14
REMARK   10  A    between atoms: C_15  and  C_17
REMARK                            x       y       z     vdW  Elec       q    Type
REMARK                         _______ _______ _______ _____ _____    ______ ____
ROOT
ATOM      2  O   UNL     1      12.602   9.252  21.693  0.00  0.00    -0.365 OA
ATOM      9  C   UNL     1      13.398   8.191  19.733  0.00  0.00    +0.118 C 
ATOM     10  C   UNL     1      13.645   9.338  20.705  0.00  0.00    +0.155 C 
ATOM     11  C   UNL     1      12.878   7.122  20.675  0.00  0.00    +0.165 C 
ATOM     12  C   UNL     1      12.015   7.937  21.639  0.00  0.00    +0.174 C 
ENDROOT
BRANCH  11   3
ATOM      3  O   UNL     1      12.163   6.117  19.988  0.00  0.00    -0.388 OA
ATOM     30  H   UNL     1      12.400   6.181  19.047  0.00  0.00    +0.210 HD
ENDBRANCH  11   3
BRANCH   9   6
ATOM      6  N   UNL     1      14.596   7.783  19.017  0.00  0.00    -0.293 NA
ATOM     16  C   UNL     1      14.299   7.547  17.603  0.00  0.00    +0.105 C 
BRANCH   6  15
ATOM     15  C   UNL     1      15.174   6.579  19.620  0.00  0.00    +0.119 C 
BRANCH  15  17
ATOM     17  C   UNL     1      16.574   6.820  20.120  0.00  0.00    -0.033 A 
ATOM     19  C   UNL     1      16.835   7.890  20.974  0.00  0.00    +0.005 A 
ATOM     20  C   UNL     1      17.609   5.971  19.729  0.00  0.00    +0.005 A 
ATOM     21  C   UNL     1      18.132   8.113  21.438  0.00  0.00    +0.000 A 
ATOM     22  C   UNL     1      18.906   6.194  20.191  0.00  0.00    +0.000 A 
ATOM     23  C   UNL     1      19.168   7.264  21.046  0.00  0.00    +0.000 A 
ENDBRANCH  15  17
ENDBRANCH   6  15
ENDBRANCH   9   6
BRANCH  10  13
ATOM     13  C   UNL     1      13.627  10.712  20.057  0.00  0.00    +0.139 C 
BRANCH  13   7
ATOM      5  O   UNL     1      15.164  11.839  17.919  0.00  0.00    -0.253 OA
ATOM      7  N   UNL     1      13.339  10.624  18.655  0.00  0.00    -0.297 N 
ATOM      8  N   UNL     1      13.616  10.956  16.392  0.00  0.00    -0.269 N 
ATOM     18  C   UNL     1      14.143  11.206  17.661  0.00  0.00    +0.304 C 
ATOM     31  H   UNL     1      12.516  10.102  18.366  0.00  0.00    +0.150 HD
ATOM     33  H   UNL     1      12.759  10.410  16.354  0.00  0.00    +0.156 HD
BRANCH   8  24
ATOM      1 CL   UNL     1      12.879  13.480  11.981  0.00  0.00    -0.083 Cl
ATOM     24  C   UNL     1      14.130  11.370  15.140  0.00  0.00    +0.036 A 
ATOM     25  C   UNL     1      13.342  12.132  14.279  0.00  0.00    +0.043 A 
ATOM     26  C   UNL     1      15.428  11.017  14.770  0.00  0.00    +0.023 A 
ATOM     27  C   UNL     1      13.851  12.541  13.046  0.00  0.00    +0.043 A 
ATOM     28  C   UNL     1      15.937  11.426  13.538  0.00  0.00    +0.003 A 
ATOM     29  C   UNL     1      15.149  12.188  12.676  0.00  0.00    +0.020 A 
ENDBRANCH   8  24
ENDBRANCH  13   7
ENDBRANCH  10  13
BRANCH  12  14
ATOM     14  C   UNL     1      10.556   8.090  21.229  0.00  0.00    +0.190 C 
BRANCH  14   4
ATOM      4  O   UNL     1       9.807   7.043  21.821  0.00  0.00    -0.392 OA
ATOM     32  H   UNL     1       9.616   6.396  21.121  0.00  0.00    +0.210 HD
ENDBRANCH  14   4
ENDBRANCH  12  14
TORSDOF 9
ENDMDL
MODEL 3
REMARK VINA RESULT:      -7.0     26.597     29.053
REMARK  Name = 28962329
REMARK  10 active torsions:
REMARK  status: ('A' for Active; 'I' for Inactive)
REMARK    1  A    between atoms: O_3  and  C_11
REMARK    2  A    between atoms: O_4  and  C_14
REMARK    3  A    between atoms: N_6  and  C_9
REMARK    4  A    between atoms: N_6  and  C_15
REMARK    5  A    between atoms: N_6  and  C_16
REMARK    6  A    between atoms: N_7  and  C_13
REMARK    7  A    between atoms: N_8  and  C_24
REMARK    8  A    between atoms: C_10  and  C_13
REMARK    9  A    between atoms: C_12  and  C_14
REMARK   10  A    between atoms: C_15  and  C_17
REMARK                            x       y       z     vdW  Elec       q    Type
REMARK                         _______ _______ _______ _____ _____    ______ ____
ROOT
ATOM      2  O   UNL     1      -7.698  -9.795  17.816  0.00  0.00    -0.365 OA
ATOM      9  C   UNL     1      -6.706 -11.728  16.879  0.00  0.00    +0.118 C 
ATOM     10  C   UNL     1      -7.092 -10.279  16.604  0.00  0.00    +0.155 C 
ATOM     11  C   UNL     1      -6.303 -11.647  18.339  0.00  0.00    +0.165 C 
ATOM     12  C   UNL     1      -7.336 -10.671  18.902  0.00  0.00    +0.174 C 
ENDROOT
BRANCH  11   3
ATOM      3  O   UNL     1      -6.324 -12.914  18.962  0.00  0.00    -0.388 OA
ATOM     30  H   UNL     1      -7.256 -13.165  19.083  0.00  0.00    +0.210 HD
ENDBRANCH  11   3
BRANCH   9   6
ATOM      6  N   UNL     1      -5.633 -12.204  16.020  0.00  0.00    -0.293 NA
ATOM     16  C   UNL     1      -5.856 -13.601  15.641  0.00  0.00    +0.105 C 
BRANCH   6  15
ATOM     15  C   UNL     1      -4.336 -12.061  16.685  0.00  0.00    +0.119 C 
BRANCH  15  17
ATOM     17  C   UNL     1      -3.338 -11.339  15.818  0.00  0.00    -0.033 A 
ATOM     19  C   UNL     1      -3.597 -11.159  14.459  0.00  0.00    +0.005 A 
ATOM     20  C   UNL     1      -2.156 -10.850  16.374  0.00  0.00    +0.005 A 
ATOM     21  C   UNL     1      -2.674 -10.490  13.656  0.00  0.00    +0.000 A 
ATOM     22  C   UNL     1      -1.232 -10.182  15.570  0.00  0.00    +0.000 A 
ATOM     23  C   UNL     1      -1.490 -10.001  14.211  0.00  0.00    +0.000 A 
ENDBRANCH  15  17
ENDBRANCH   6  15
ENDBRANCH   9   6
BRANCH  10  13
ATOM     13  C   UNL     1      -8.055 -10.107  15.443  0.00  0.00    +0.139 C 
BRANCH  13   7
ATOM      5  O   UNL     1      -6.957 -11.074  12.981  0.00  0.00    -0.253 OA
ATOM      7  N   UNL     1      -7.475  -9.318  14.395  0.00  0.00    -0.297 N 
ATOM      8  N   UNL     1      -6.458  -8.860  12.379  0.00  0.00    -0.269 N 
ATOM     18  C   UNL     1      -6.954  -9.867  13.211  0.00  0.00    +0.304 C 
ATOM     31  H   UNL     1      -7.451  -8.309  14.511  0.00  0.00    +0.150 HD
ATOM     33  H   UNL     1      -6.535  -7.906  12.722  0.00  0.00    +0.156 HD
BRANCH   8  24
ATOM      1 CL   UNL     1      -7.026  -9.149   7.284  0.00  0.00    -0.083 Cl
ATOM     24  C   UNL     1      -5.857  -9.004  11.106  0.00  0.00    +0.036 A 
ATOM     25  C   UNL     1      -6.647  -9.006   9.957  0.00  0.00    +0.043 A 
ATOM     26  C   UNL     1      -4.472  -9.142  11.002  0.00  0.00    +0.023 A 
ATOM     27  C   UNL     1      -6.052  -9.145   8.703  0.00  0.00    +0.043 A 
ATOM     28  C   UNL     1      -3.878  -9.281   9.748  0.00  0.00    +0.003 A 
ATOM     29  C   UNL     1      -4.668  -9.283   8.598  0.00  0.00    +0.020 A 
ENDBRANCH   8  24
ENDBRANCH  13   7
ENDBRANCH  10  13
BRANCH  12  14
ATOM     14  C   UNL     1      -8.612 -11.313  19.433  0.00  0.00    +0.190 C 
BRANCH  14   4
ATOM      4  O   UNL     1      -9.303 -10.363  20.224  0.00  0.00    -0.392 OA
ATOM     32  H   UNL     1     -10.244 -10.426  19.991  0.00  0.00    +0.210 HD
ENDBRANCH  14   4
ENDBRANCH  12  14
TORSDOF 9
ENDMDL
MODEL 4
REMARK VINA RESULT:      -7.0      2.827      3.784
REMARK  Name = 28962329
REMARK  10 active torsions:
REMARK  status: ('A' for Active; 'I' for Inactive)
REMARK    1  A    between atoms: O_3  and  C_11
REMARK    2  A    between atoms: O_4  and  C_14
REMARK    3  A    between atoms: N_6  and  C_9
REMARK    4  A    between atoms: N_6  and  C_15
REMARK    5  A    between atoms: N_6  and  C_16
REMARK    6  A    between atoms: N_7  and  C_13
REMARK    7  A    between atoms: N_8  and  C_24
REMARK    8  A    between atoms: C_10  and  C_13
REMARK    9  A    between atoms: C_12  and  C_14
REMARK   10  A    between atoms: C_15  and  C_17
REMARK                            x       y       z     vdW  Elec       q    Type
REMARK                         _______ _______ _______ _____ _____    ______ ____
ROOT
ATOM      2  O   UNL     1      11.509   7.462  19.746  0.00  0.00    -0.365 OA
ATOM      9  C   UNL     1      13.149   8.526  21.079  0.00  0.00    +0.118 C 
ATOM     10  C   UNL     1      12.814   8.061  19.666  0.00  0.00    +0.155 C 
ATOM     11  C   UNL     1      11.782   8.960  21.572  0.00  0.00    +0.165 C 
ATOM     12  C   UNL     1      10.870   7.894  20.964  0.00  0.00    +0.174 C 
ENDROOT
BRANCH  11   3
ATOM      3  O   UNL     1      11.724   9.017  22.981  0.00  0.00    -0.388 OA
ATOM     30  H   UNL     1      12.464   8.489  23.326  0.00  0.00    +0.210 HD
ENDBRANCH  11   3
BRANCH   9   6
ATOM      6  N   UNL     1      14.130   9.599  21.107  0.00  0.00    -0.293 NA
ATOM     16  C   UNL     1      14.660   9.780  22.460  0.00  0.00    +0.105 C 
BRANCH   6  15
ATOM     15  C   UNL     1      13.541  10.851  20.623  0.00  0.00    +0.119 C 
BRANCH  15  17
ATOM     17  C   UNL     1      14.257  11.373  19.405  0.00  0.00    -0.033 A 
ATOM     19  C   UNL     1      15.535  11.917  19.528  0.00  0.00    +0.005 A 
ATOM     20  C   UNL     1      13.642  11.312  18.155  0.00  0.00    +0.005 A 
ATOM     21  C   UNL     1      16.199  12.400  18.401  0.00  0.00    +0.000 A 
ATOM     22  C   UNL     1      14.305  11.796  17.028  0.00  0.00    +0.000 A 
ATOM     23  C   UNL     1      15.584  12.340  17.149  0.00  0.00    +0.000 A 
ENDBRANCH  15  17
ENDBRANCH   6  15
ENDBRANCH   9   6
BRANCH  10  13
ATOM     13  C   UNL     1      13.804   7.062  19.094  0.00  0.00    +0.139 C 
BRANCH  13   7
ATOM      5  O   UNL     1      15.755   5.924  20.855  0.00  0.00    -0.253 OA
ATOM      7  N   UNL     1      15.157   7.504  19.276  0.00  0.00    -0.297 N 
ATOM      8  N   UNL     1      17.297   7.536  20.127  0.00  0.00    -0.269 N 
ATOM     18  C   UNL     1      16.058   6.892  20.162  0.00  0.00    +0.304 C 
ATOM     31  H   UNL     1      15.481   8.293  18.724  0.00  0.00    +0.150 HD
ATOM     33  H   UNL     1      17.382   8.326  19.492  0.00  0.00    +0.156 HD
BRANCH   8  24
ATOM      1 CL   UNL     1      21.314   4.419  20.848  0.00  0.00    -0.083 Cl
ATOM     24  C   UNL     1      18.461   7.223  20.868  0.00  0.00    +0.036 A 
ATOM     25  C   UNL     1      19.224   6.105  20.531  0.00  0.00    +0.043 A 
ATOM     26  C   UNL     1      18.845   8.034  21.936  0.00  0.00    +0.023 A 
ATOM     27  C   UNL     1      20.372   5.798  21.262  0.00  0.00    +0.043 A 
ATOM     28  C   UNL     1      19.992   7.727  22.667  0.00  0.00    +0.003 A 
ATOM     29  C   UNL     1      20.756   6.609  22.330  0.00  0.00    +0.020 A 
ENDBRANCH   8  24
ENDBRANCH  13   7
ENDBRANCH  10  13
BRANCH  12  14
ATOM     14  C   UNL     1      10.642   6.665  21.836  0.00  0.00    +0.190 C 
BRANCH  14   4
ATOM      4  O   UNL     1      10.963   5.509  21.083  0.00  0.00    -0.392 OA
ATOM     32  H   UNL     1      11.671   5.043  21.560  0.00  0.00    +0.210 HD
ENDBRANCH  14   4
ENDBRANCH  12  14
TORSDOF 9
ENDMDL
MODEL 5
REMARK VINA RESULT:      -6.7     27.592     30.094
REMARK  Name = 28962329
REMARK  10 active torsions:
REMARK  status: ('A' for Active; 'I' for Inactive)
REMARK    1  A    between atoms: O_3  and  C_11
REMARK    2  A    between atoms: O_4  and  C_14
REMARK    3  A    between atoms: N_6  and  C_9
REMARK    4  A    between atoms: N_6  and  C_15
REMARK    5  A    between atoms: N_6  and  C_16
REMARK    6  A    between atoms: N_7  and  C_13
REMARK    7  A    between atoms: N_8  and  C_24
REMARK    8  A    between atoms: C_10  and  C_13
REMARK    9  A    between atoms: C_12  and  C_14
REMARK   10  A    between atoms: C_15  and  C_17
REMARK                            x       y       z     vdW  Elec       q    Type
REMARK                         _______ _______ _______ _____ _____    ______ ____
ROOT
ATOM      2  O   UNL     1      -5.327  -9.956  18.091  0.00  0.00    -0.365 OA
ATOM      9  C   UNL     1      -5.296 -11.808  16.618  0.00  0.00    +0.118 C 
ATOM     10  C   UNL     1      -5.287 -10.285  16.691  0.00  0.00    +0.155 C 
ATOM     11  C   UNL     1      -4.470 -12.160  17.841  0.00  0.00    +0.165 C 
ATOM     12  C   UNL     1      -4.941 -11.116  18.855  0.00  0.00    +0.174 C 
ENDROOT
BRANCH  11   3
ATOM      3  O   UNL     1      -4.688 -13.491  18.258  0.00  0.00    -0.388 OA
ATOM     30  H   UNL     1      -5.411 -13.852  17.717  0.00  0.00    +0.210 HD
ENDBRANCH  11   3
BRANCH   9   6
ATOM      6  N   UNL     1      -4.726 -12.321  15.382  0.00  0.00    -0.293 NA
ATOM     16  C   UNL     1      -4.685 -13.785  15.401  0.00  0.00    +0.105 C 
BRANCH   6  15
ATOM     15  C   UNL     1      -3.381 -11.780  15.169  0.00  0.00    +0.119 C 
BRANCH  15  17
ATOM     17  C   UNL     1      -3.233 -11.170  13.800  0.00  0.00    -0.033 A 
ATOM     19  C   UNL     1      -1.963 -10.951  13.267  0.00  0.00    +0.005 A 
ATOM     20  C   UNL     1      -4.367 -10.824  13.065  0.00  0.00    +0.005 A 
ATOM     21  C   UNL     1      -1.825 -10.387  12.000  0.00  0.00    +0.000 A 
ATOM     22  C   UNL     1      -4.230 -10.259  11.797  0.00  0.00    +0.000 A 
ATOM     23  C   UNL     1      -2.960 -10.040  11.264  0.00  0.00    +0.000 A 
ENDBRANCH  15  17
ENDBRANCH   6  15
ENDBRANCH   9   6
BRANCH  10  13
ATOM     13  C   UNL     1      -6.454  -9.627  15.975  0.00  0.00    +0.139 C 
BRANCH  13   7
ATOM      5  O   UNL     1      -8.988 -10.847  16.516  0.00  0.00    -0.253 OA
ATOM      7  N   UNL     1      -7.445  -9.168  16.904  0.00  0.00    -0.297 N 
ATOM      8  N   UNL     1      -9.430  -9.149  18.074  0.00  0.00    -0.269 N 
ATOM     18  C   UNL     1      -8.670  -9.823  17.115  0.00  0.00    +0.304 C 
ATOM     31  H   UNL     1      -7.244  -8.333  17.446  0.00  0.00    +0.150 HD
ATOM     33  H   UNL     1      -9.017  -8.312  18.477  0.00  0.00    +0.156 HD
BRANCH   8  24
ATOM      1 CL   UNL     1     -14.515  -9.165  17.357  0.00  0.00    -0.083 Cl
ATOM     24  C   UNL     1     -10.714  -9.489  18.561  0.00  0.00    +0.036 A 
ATOM     25  C   UNL     1     -11.849  -9.193  17.807  0.00  0.00    +0.043 A 
ATOM     26  C   UNL     1     -10.844 -10.124  19.797  0.00  0.00    +0.023 A 
ATOM     27  C   UNL     1     -13.114  -9.531  18.287  0.00  0.00    +0.043 A 
ATOM     28  C   UNL     1     -12.108 -10.461  20.278  0.00  0.00    +0.003 A 
ATOM     29  C   UNL     1     -13.244 -10.165  19.523  0.00  0.00    +0.020 A 
ENDBRANCH   8  24
ENDBRANCH  13   7
ENDBRANCH  10  13
BRANCH  12  14
ATOM     14  C   UNL     1      -6.132 -11.535  19.708  0.00  0.00    +0.190 C 
BRANCH  14   4
ATOM      4  O   UNL     1      -6.984 -10.415  19.878  0.00  0.00    -0.392 OA
ATOM     32  H   UNL     1      -7.237 -10.111  18.990  0.00  0.00    +0.210 HD
ENDBRANCH  14   4
ENDBRANCH  12  14
TORSDOF 9
ENDMDL
MODEL 6
REMARK VINA RESULT:      -6.5      3.697      7.486
REMARK  Name = 28962329
REMARK  10 active torsions:
REMARK  status: ('A' for Active; 'I' for Inactive)
REMARK    1  A    between atoms: O_3  and  C_11
REMARK    2  A    between atoms: O_4  and  C_14
REMARK    3  A    between atoms: N_6  and  C_9
REMARK    4  A    between atoms: N_6  and  C_15
REMARK    5  A    between atoms: N_6  and  C_16
REMARK    6  A    between atoms: N_7  and  C_13
REMARK    7  A    between atoms: N_8  and  C_24
REMARK    8  A    between atoms: C_10  and  C_13
REMARK    9  A    between atoms: C_12  and  C_14
REMARK   10  A    between atoms: C_15  and  C_17
REMARK                            x       y       z     vdW  Elec       q    Type
REMARK                         _______ _______ _______ _____ _____    ______ ____
ROOT
ATOM      2  O   UNL     1      12.091   8.255  22.030  0.00  0.00    -0.365 OA
ATOM      9  C   UNL     1      11.782   8.397  19.688  0.00  0.00    +0.118 C 
ATOM     10  C   UNL     1      12.048   9.207  20.951  0.00  0.00    +0.155 C 
ATOM     11  C   UNL     1      12.559   7.129  19.989  0.00  0.00    +0.165 C 
ATOM     12  C   UNL     1      12.290   6.937  21.481  0.00  0.00    +0.174 C 
ENDROOT
BRANCH  11   3
ATOM      3  O   UNL     1      12.128   6.046  19.193  0.00  0.00    -0.388 OA
ATOM     30  H   UNL     1      12.652   5.268  19.449  0.00  0.00    +0.210 HD
ENDBRANCH  11   3
BRANCH   9   6
ATOM      6  N   UNL     1      12.233   9.065  18.478  0.00  0.00    -0.293 NA
ATOM     16  C   UNL     1      11.387   8.701  17.339  0.00  0.00    +0.105 C 
BRANCH   6  15
ATOM     15  C   UNL     1      13.632   8.734  18.195  0.00  0.00    +0.119 C 
BRANCH  15  17
ATOM     17  C   UNL     1      14.340   9.854  17.481  0.00  0.00    -0.033 A 
ATOM     19  C   UNL     1      14.851  10.931  18.205  0.00  0.00    +0.005 A 
ATOM     20  C   UNL     1      14.486   9.815  16.094  0.00  0.00    +0.005 A 
ATOM     21  C   UNL     1      15.507  11.969  17.544  0.00  0.00    +0.000 A 
ATOM     22  C   UNL     1      15.142  10.853  15.432  0.00  0.00    +0.000 A 
ATOM     23  C   UNL     1      15.653  11.930  16.156  0.00  0.00    +0.000 A 
ENDBRANCH  15  17
ENDBRANCH   6  15
ENDBRANCH   9   6
BRANCH  10  13
ATOM     13  C   UNL     1      10.996  10.263  21.240  0.00  0.00    +0.139 C 
BRANCH  13   7
ATOM      5  O   UNL     1      11.890  12.711  22.428  0.00  0.00    -0.253 OA
ATOM      7  N   UNL     1      10.964  10.602  22.633  0.00  0.00    -0.297 N 
ATOM      8  N   UNL     1      11.267  11.873  24.530  0.00  0.00    -0.269 N 
ATOM     18  C   UNL     1      11.423  11.828  23.143  0.00  0.00    +0.304 C 
ATOM     31  H   UNL     1      10.577   9.923  23.283  0.00  0.00    +0.150 HD
ATOM     33  H   UNL     1      10.859  11.053  24.971  0.00  0.00    +0.156 HD
BRANCH   8  24
ATOM      1 CL   UNL     1      14.845  14.218  27.371  0.00  0.00    -0.083 Cl
ATOM     24  C   UNL     1      11.607  12.930  25.408  0.00  0.00    +0.036 A 
ATOM     25  C   UNL     1      12.907  13.039  25.900  0.00  0.00    +0.043 A 
ATOM     26  C   UNL     1      10.639  13.863  25.781  0.00  0.00    +0.023 A 
ATOM     27  C   UNL     1      13.241  14.082  26.763  0.00  0.00    +0.043 A 
ATOM     28  C   UNL     1      10.973  14.906  26.644  0.00  0.00    +0.003 A 
ATOM     29  C   UNL     1      12.274  15.016  27.136  0.00  0.00    +0.020 A 
ENDBRANCH   8  24
ENDBRANCH  13   7
ENDBRANCH  10  13
BRANCH  12  14
ATOM     14  C   UNL     1      11.062   6.098  21.815  0.00  0.00    +0.190 C 
BRANCH  14   4
ATOM      4  O   UNL     1      11.340   4.744  21.505  0.00  0.00    -0.392 OA
ATOM     32  H   UNL     1      11.433   4.685  20.539  0.00  0.00    +0.210 HD
ENDBRANCH  14   4
ENDBRANCH  12  14
TORSDOF 9
ENDMDL
MODEL 7
REMARK VINA RESULT:      -6.5     27.810     29.387
REMARK  Name = 28962329
REMARK  10 active torsions:
REMARK  status: ('A' for Active; 'I' for Inactive)
REMARK    1  A    between atoms: O_3  and  C_11
REMARK    2  A    between atoms: O_4  and  C_14
REMARK    3  A    between atoms: N_6  and  C_9
REMARK    4  A    between atoms: N_6  and  C_15
REMARK    5  A    between atoms: N_6  and  C_16
REMARK    6  A    between atoms: N_7  and  C_13
REMARK    7  A    between atoms: N_8  and  C_24
REMARK    8  A    between atoms: C_10  and  C_13
REMARK    9  A    between atoms: C_12  and  C_14
REMARK   10  A    between atoms: C_15  and  C_17
REMARK                            x       y       z     vdW  Elec       q    Type
REMARK                         _______ _______ _______ _____ _____    ______ ____
ROOT
ATOM      2  O   UNL     1      -5.209  -8.569  11.454  0.00  0.00    -0.365 OA
ATOM      9  C   UNL     1      -6.610  -9.409   9.741  0.00  0.00    +0.118 C 
ATOM     10  C   UNL     1      -6.595  -8.787  11.132  0.00  0.00    +0.155 C 
ATOM     11  C   UNL     1      -5.443  -8.689   9.091  0.00  0.00    +0.165 C 
ATOM     12  C   UNL     1      -4.436  -8.613  10.238  0.00  0.00    +0.174 C 
ENDROOT
BRANCH  11   3
ATOM      3  O   UNL     1      -4.961  -9.383   7.960  0.00  0.00    -0.388 OA
ATOM     30  H   UNL     1      -5.691  -9.445   7.321  0.00  0.00    +0.210 HD
ENDBRANCH  11   3
BRANCH   9   6
ATOM      6  N   UNL     1      -7.866  -9.203   9.039  0.00  0.00    -0.293 NA
ATOM     16  C   UNL     1      -8.154 -10.331   8.151  0.00  0.00    +0.105 C 
BRANCH   6  15
ATOM     15  C   UNL     1      -7.833  -7.953   8.274  0.00  0.00    +0.119 C 
BRANCH  15  17
ATOM     17  C   UNL     1      -8.974  -7.042   8.640  0.00  0.00    -0.033 A 
ATOM     19  C   UNL     1     -10.111  -7.562   9.259  0.00  0.00    +0.005 A 
ATOM     20  C   UNL     1      -8.894  -5.678   8.361  0.00  0.00    +0.005 A 
ATOM     21  C   UNL     1     -11.168  -6.718   9.598  0.00  0.00    +0.000 A 
ATOM     22  C   UNL     1      -9.952  -4.834   8.699  0.00  0.00    +0.000 A 
ATOM     23  C   UNL     1     -11.089  -5.353   9.318  0.00  0.00    +0.000 A 
ENDBRANCH  15  17
ENDBRANCH   6  15
ENDBRANCH   9   6
BRANCH  10  13
ATOM     13  C   UNL     1      -7.240  -9.652  12.202  0.00  0.00    +0.139 C 
BRANCH  13   7
ATOM      5  O   UNL     1      -7.309 -11.299  14.544  0.00  0.00    -0.253 OA
ATOM      7  N   UNL     1      -6.771  -9.301  13.511  0.00  0.00    -0.297 N 
ATOM      8  N   UNL     1      -6.309  -9.553  15.753  0.00  0.00    -0.269 N 
ATOM     18  C   UNL     1      -6.839 -10.166  14.615  0.00  0.00    +0.304 C 
ATOM     31  H   UNL     1      -6.357  -8.382  13.641  0.00  0.00    +0.150 HD
ATOM     33  H   UNL     1      -5.957  -8.606  15.640  0.00  0.00    +0.156 HD
BRANCH   8  24
ATOM      1 CL   UNL     1      -3.443 -12.009  19.236  0.00  0.00    -0.083 Cl
ATOM     24  C   UNL     1      -6.196 -10.092  17.057  0.00  0.00    +0.036 A 
ATOM     25  C   UNL     1      -5.013 -10.713  17.456  0.00  0.00    +0.043 A 
ATOM     26  C   UNL     1      -7.269 -10.000  17.943  0.00  0.00    +0.023 A 
ATOM     27  C   UNL     1      -4.902 -11.242  18.742  0.00  0.00    +0.043 A 
ATOM     28  C   UNL     1      -7.159 -10.529  19.228  0.00  0.00    +0.003 A 
ATOM     29  C   UNL     1      -5.976 -11.150  19.629  0.00  0.00    +0.020 A 
ENDBRANCH   8  24
ENDBRANCH  13   7
ENDBRANCH  10  13
BRANCH  12  14
ATOM     14  C   UNL     1      -3.475  -9.792  10.335  0.00  0.00    +0.190 C 
BRANCH  14   4
ATOM      4  O   UNL     1      -3.345 -10.160  11.697  0.00  0.00    -0.392 OA
ATOM     32  H   UNL     1      -3.355 -11.132  11.733  0.00  0.00    +0.210 HD
ENDBRANCH  14   4
ENDBRANCH  12  14
TORSDOF 9
ENDMDL
MODEL 8
REMARK VINA RESULT:      -6.5     15.827     17.979
REMARK  Name = 28962329
REMARK  10 active torsions:
REMARK  status: ('A' for Active; 'I' for Inactive)
REMARK    1  A    between atoms: O_3  and  C_11
REMARK    2  A    between atoms: O_4  and  C_14
REMARK    3  A    between atoms: N_6  and  C_9
REMARK    4  A    between atoms: N_6  and  C_15
REMARK    5  A    between atoms: N_6  and  C_16
REMARK    6  A    between atoms: N_7  and  C_13
REMARK    7  A    between atoms: N_8  and  C_24
REMARK    8  A    between atoms: C_10  and  C_13
REMARK    9  A    between atoms: C_12  and  C_14
REMARK   10  A    between atoms: C_15  and  C_17
REMARK                            x       y       z     vdW  Elec       q    Type
REMARK                         _______ _______ _______ _____ _____    ______ ____
ROOT
ATOM      2  O   UNL     1       8.921   6.325   6.845  0.00  0.00    -0.365 OA
ATOM      9  C   UNL     1      11.122   6.709   6.066  0.00  0.00    +0.118 C 
ATOM     10  C   UNL     1       9.658   7.080   5.867  0.00  0.00    +0.155 C 
ATOM     11  C   UNL     1      11.174   6.539   7.573  0.00  0.00    +0.165 C 
ATOM     12  C   UNL     1       9.832   5.868   7.865  0.00  0.00    +0.174 C 
ENDROOT
BRANCH  11   3
ATOM      3  O   UNL     1      12.289   5.774   7.979  0.00  0.00    -0.388 OA
ATOM     30  H   UNL     1      12.290   4.957   7.452  0.00  0.00    +0.210 HD
ENDBRANCH  11   3
BRANCH   9   6
ATOM      6  N   UNL     1      12.039   7.727   5.578  0.00  0.00    -0.293 NA
ATOM     16  C   UNL     1      11.301   8.871   5.038  0.00  0.00    +0.105 C 
BRANCH   6  15
ATOM     15  C   UNL     1      12.931   7.173   4.557  0.00  0.00    +0.119 C 
BRANCH  15  17
ATOM     17  C   UNL     1      14.357   7.612   4.761  0.00  0.00    -0.033 A 
ATOM     19  C   UNL     1      15.260   7.564   3.699  0.00  0.00    +0.005 A 
ATOM     20  C   UNL     1      14.774   8.067   6.012  0.00  0.00    +0.005 A 
ATOM     21  C   UNL     1      16.581   7.972   3.887  0.00  0.00    +0.000 A 
ATOM     22  C   UNL     1      16.095   8.474   6.201  0.00  0.00    +0.000 A 
ATOM     23  C   UNL     1      16.999   8.427   5.139  0.00  0.00    +0.000 A 
ENDBRANCH  15  17
ENDBRANCH   6  15
ENDBRANCH   9   6
BRANCH  10  13
ATOM     13  C   UNL     1       9.127   6.775   4.477  0.00  0.00    +0.139 C 
BRANCH  13   7
ATOM      5  O   UNL     1      10.588   6.817   2.013  0.00  0.00    -0.253 OA
ATOM      7  N   UNL     1       9.832   5.678   3.878  0.00  0.00    -0.297 N 
ATOM      8  N   UNL     1      11.113   4.551   2.330  0.00  0.00    -0.269 N 
ATOM     18  C   UNL     1      10.528   5.776   2.662  0.00  0.00    +0.304 C 
ATOM     31  H   UNL     1       9.836   4.787   4.368  0.00  0.00    +0.150 HD
ATOM     33  H   UNL     1      10.967   3.784   2.982  0.00  0.00    +0.156 HD
BRANCH   8  24
ATOM      1 CL   UNL     1      15.766   3.824   0.283  0.00  0.00    -0.083 Cl
ATOM     24  C   UNL     1      11.893   4.242   1.190  0.00  0.00    +0.036 A 
ATOM     25  C   UNL     1      13.283   4.192   1.288  0.00  0.00    +0.043 A 
ATOM     26  C   UNL     1      11.269   3.986  -0.031  0.00  0.00    +0.023 A 
ATOM     27  C   UNL     1      14.050   3.885   0.164  0.00  0.00    +0.043 A 
ATOM     28  C   UNL     1      12.036   3.680  -1.154  0.00  0.00    +0.003 A 
ATOM     29  C   UNL     1      13.427   3.629  -1.057  0.00  0.00    +0.020 A 
ENDBRANCH   8  24
ENDBRANCH  13   7
ENDBRANCH  10  13
BRANCH  12  14
ATOM     14  C   UNL     1       9.849   4.345   7.832  0.00  0.00    +0.190 C 
BRANCH  14   4
ATOM      4  O   UNL     1      10.297   3.869   9.089  0.00  0.00    -0.392 OA
ATOM     32  H   UNL     1      10.009   4.512   9.758  0.00  0.00    +0.210 HD
ENDBRANCH  14   4
ENDBRANCH  12  14
TORSDOF 9
ENDMDL
MODEL 9
REMARK VINA RESULT:      -6.5     28.037     30.244
REMARK  Name = 28962329
REMARK  10 active torsions:
REMARK  status: ('A' for Active; 'I' for Inactive)
REMARK    1  A    between atoms: O_3  and  C_11
REMARK    2  A    between atoms: O_4  and  C_14
REMARK    3  A    between atoms: N_6  and  C_9
REMARK    4  A    between atoms: N_6  and  C_15
REMARK    5  A    between atoms: N_6  and  C_16
REMARK    6  A    between atoms: N_7  and  C_13
REMARK    7  A    between atoms: N_8  and  C_24
REMARK    8  A    between atoms: C_10  and  C_13
REMARK    9  A    between atoms: C_12  and  C_14
REMARK   10  A    between atoms: C_15  and  C_17
REMARK                            x       y       z     vdW  Elec       q    Type
REMARK                         _______ _______ _______ _____ _____    ______ ____
ROOT
ATOM      2  O   UNL     1      -5.045 -10.282  17.639  0.00  0.00    -0.365 OA
ATOM      9  C   UNL     1      -5.473 -11.366  15.580  0.00  0.00    +0.118 C 
ATOM     10  C   UNL     1      -5.575 -10.039  16.324  0.00  0.00    +0.155 C 
ATOM     11  C   UNL     1      -4.177 -11.915  16.146  0.00  0.00    +0.165 C 
ATOM     12  C   UNL     1      -4.265 -11.494  17.613  0.00  0.00    +0.174 C 
ENDROOT
BRANCH  11   3
ATOM      3  O   UNL     1      -4.073 -13.311  15.964  0.00  0.00    -0.388 OA
ATOM     30  H   UNL     1      -4.800 -13.585  15.379  0.00  0.00    +0.210 HD
ENDBRANCH  11   3
BRANCH   9   6
ATOM      6  N   UNL     1      -5.439 -11.207  14.135  0.00  0.00    -0.293 NA
ATOM     16  C   UNL     1      -5.945 -12.410  13.470  0.00  0.00    +0.105 C 
BRANCH   6  15
ATOM     15  C   UNL     1      -4.078 -10.911  13.679  0.00  0.00    +0.119 C 
BRANCH  15  17
ATOM     17  C   UNL     1      -4.075 -10.174  12.366  0.00  0.00    -0.033 A 
ATOM     19  C   UNL     1      -2.957 -10.234  11.535  0.00  0.00    +0.005 A 
ATOM     20  C   UNL     1      -5.192  -9.432  11.981  0.00  0.00    +0.005 A 
ATOM     21  C   UNL     1      -2.954  -9.552  10.318  0.00  0.00    +0.000 A 
ATOM     22  C   UNL     1      -5.189  -8.748  10.765  0.00  0.00    +0.000 A 
ATOM     23  C   UNL     1      -4.071  -8.808   9.933  0.00  0.00    +0.000 A 
ENDBRANCH  15  17
ENDBRANCH   6  15
ENDBRANCH   9   6
BRANCH  10  13
ATOM     13  C   UNL     1      -6.990  -9.499  16.432  0.00  0.00    +0.139 C 
BRANCH  13   7
ATOM      5  O   UNL     1      -9.648 -10.415  16.980  0.00  0.00    -0.253 OA
ATOM      7  N   UNL     1      -7.555  -9.769  17.722  0.00  0.00    -0.297 N 
ATOM      8  N   UNL     1      -9.142 -10.393  19.272  0.00  0.00    -0.269 N 
ATOM     18  C   UNL     1      -8.873 -10.217  17.912  0.00  0.00    +0.304 C 
ATOM     31  H   UNL     1      -6.966  -9.641  18.540  0.00  0.00    +0.150 HD
ATOM     33  H   UNL     1      -8.384 -10.185  19.917  0.00  0.00    +0.156 HD
BRANCH   8  24
ATOM      1 CL   UNL     1     -11.863 -14.238  21.317  0.00  0.00    -0.083 Cl
ATOM     24  C   UNL     1     -10.348 -10.831  19.869  0.00  0.00    +0.036 A 
ATOM     25  C   UNL     1     -10.493 -12.164  20.253  0.00  0.00    +0.043 A 
ATOM     26  C   UNL     1     -11.390  -9.928  20.075  0.00  0.00    +0.023 A 
ATOM     27  C   UNL     1     -11.682 -12.594  20.843  0.00  0.00    +0.043 A 
ATOM     28  C   UNL     1     -12.578 -10.357  20.665  0.00  0.00    +0.003 A 
ATOM     29  C   UNL     1     -12.725 -11.690  21.049  0.00  0.00    +0.020 A 
ENDBRANCH   8  24
ENDBRANCH  13   7
ENDBRANCH  10  13
BRANCH  12  14
ATOM     14  C   UNL     1      -4.935 -12.504  18.537  0.00  0.00    +0.190 C 
BRANCH  14   4
ATOM      4  O   UNL     1      -4.096 -13.640  18.651  0.00  0.00    -0.392 OA
ATOM     32  H   UNL     1      -4.607 -14.329  19.107  0.00  0.00    +0.210 HD
ENDBRANCH  14   4
ENDBRANCH  12  14
TORSDOF 9
ENDMDL
MODEL 10
REMARK VINA RESULT:      -6.4     17.164     18.965
REMARK  Name = 28962329
REMARK  10 active torsions:
REMARK  status: ('A' for Active; 'I' for Inactive)
REMARK    1  A    between atoms: O_3  and  C_11
REMARK    2  A    between atoms: O_4  and  C_14
REMARK    3  A    between atoms: N_6  and  C_9
REMARK    4  A    between atoms: N_6  and  C_15
REMARK    5  A    between atoms: N_6  and  C_16
REMARK    6  A    between atoms: N_7  and  C_13
REMARK    7  A    between atoms: N_8  and  C_24
REMARK    8  A    between atoms: C_10  and  C_13
REMARK    9  A    between atoms: C_12  and  C_14
REMARK   10  A    between atoms: C_15  and  C_17
REMARK                            x       y       z     vdW  Elec       q    Type
REMARK                         _______ _______ _______ _____ _____    ______ ____
ROOT
ATOM      2  O   UNL     1      10.416   5.329   5.683  0.00  0.00    -0.365 OA
ATOM      9  C   UNL     1       9.860   7.622   5.867  0.00  0.00    +0.118 C 
ATOM     10  C   UNL     1      10.450   6.563   4.943  0.00  0.00    +0.155 C 
ATOM     11  C   UNL     1       8.796   6.816   6.588  0.00  0.00    +0.165 C 
ATOM     12  C   UNL     1       9.493   5.469   6.782  0.00  0.00    +0.174 C 
ENDROOT
BRANCH  11   3
ATOM      3  O   UNL     1       8.402   7.427   7.798  0.00  0.00    -0.388 OA
ATOM     30  H   UNL     1       7.624   6.947   8.129  0.00  0.00    +0.210 HD
ENDBRANCH  11   3
BRANCH   9   6
ATOM      6  N   UNL     1       9.318   8.764   5.150  0.00  0.00    -0.293 NA
ATOM     16  C   UNL     1       9.280   9.947   6.013  0.00  0.00    +0.105 C 
BRANCH   6  15
ATOM     15  C   UNL     1       7.976   8.466   4.641  0.00  0.00    +0.119 C 
BRANCH  15  17
ATOM     17  C   UNL     1       7.829   8.845   3.191  0.00  0.00    -0.033 A 
ATOM     19  C   UNL     1       6.745   9.620   2.779  0.00  0.00    +0.005 A 
ATOM     20  C   UNL     1       8.778   8.421   2.261  0.00  0.00    +0.005 A 
ATOM     21  C   UNL     1       6.609   9.972   1.437  0.00  0.00    +0.000 A 
ATOM     22  C   UNL     1       8.642   8.772   0.918  0.00  0.00    +0.000 A 
ATOM     23  C   UNL     1       7.558   9.547   0.505  0.00  0.00    +0.000 A 
ENDBRANCH  15  17
ENDBRANCH   6  15
ENDBRANCH   9   6
BRANCH  10  13
ATOM     13  C   UNL     1      11.872   6.855   4.498  0.00  0.00    +0.139 C 
BRANCH  13   7
ATOM      5  O   UNL     1      11.942   6.799   1.635  0.00  0.00    -0.253 OA
ATOM      7  N   UNL     1      12.388   5.801   3.673  0.00  0.00    -0.297 N 
ATOM      8  N   UNL     1      12.952   4.682   1.740  0.00  0.00    -0.269 N 
ATOM     18  C   UNL     1      12.388   5.845   2.269  0.00  0.00    +0.304 C 
ATOM     31  H   UNL     1      12.787   4.986   4.131  0.00  0.00    +0.150 HD
ATOM     33  H   UNL     1      13.276   3.988   2.408  0.00  0.00    +0.156 HD
BRANCH   8  24
ATOM      1 CL   UNL     1      11.133   2.382  -2.475  0.00  0.00    -0.083 Cl
ATOM     24  C   UNL     1      13.133   4.347   0.377  0.00  0.00    +0.036 A 
ATOM     25  C   UNL     1      12.157   3.615  -0.298  0.00  0.00    +0.043 A 
ATOM     26  C   UNL     1      14.288   4.752  -0.292  0.00  0.00    +0.023 A 
ATOM     27  C   UNL     1      12.336   3.287  -1.642  0.00  0.00    +0.043 A 
ATOM     28  C   UNL     1      14.467   4.425  -1.635  0.00  0.00    +0.003 A 
ATOM     29  C   UNL     1      13.491   3.692  -2.311  0.00  0.00    +0.020 A 
ENDBRANCH   8  24
ENDBRANCH  13   7
ENDBRANCH  10  13
BRANCH  12  14
ATOM     14  C   UNL     1      10.282   5.329   8.078  0.00  0.00    +0.190 C 
BRANCH  14   4
ATOM      4  O   UNL     1      10.481   3.951   8.341  0.00  0.00    -0.392 OA
ATOM     32  H   UNL     1      11.300   3.688   7.888  0.00  0.00    +0.210 HD
ENDBRANCH  14   4
ENDBRANCH  12  14
TORSDOF 9
ENDMDL
