MODEL 1
REMARK VINA RESULT:      -6.2      0.000      0.000
REMARK  Name = 7144094
REMARK  4 active torsions:
REMARK  status: ('A' for Active; 'I' for Inactive)
REMARK    1  A    between atoms: O_4  and  C_26
REMARK    2  A    between atoms: O_4  and  C_29
REMARK    3  A    between atoms: C_14  and  C_19
REMARK    4  A    between atoms: C_16  and  C_20
REMARK                            x       y       z     vdW  Elec       q    Type
REMARK                         _______ _______ _______ _____ _____    ______ ____
ROOT
ATOM      2  O   UNL     1      -6.664 -15.075  17.089  0.00  0.00    -0.268 OA
ATOM      3  O   UNL     1      -8.409 -10.700  18.978  0.00  0.00    -0.269 OA
ATOM      5  N   UNL     1      -5.686 -12.999  16.620  0.00  0.00    -0.311 N 
ATOM      6  N   UNL     1      -6.433 -10.184  17.839  0.00  0.00    -0.296 N 
ATOM      7  C   UNL     1      -4.508 -11.630  18.444  0.00  0.00    +0.027 C 
ATOM      8  C   UNL     1      -4.689 -10.739  16.157  0.00  0.00    +0.054 C 
ATOM      9  C   UNL     1      -3.708 -11.051  17.286  0.00  0.00    +0.018 C 
ATOM     10  C   UNL     1      -5.141 -12.945  17.986  0.00  0.00    +0.130 C 
ATOM     11  C   UNL     1      -5.564 -10.622  18.930  0.00  0.00    +0.113 C 
ATOM     12  C   UNL     1      -5.724  -9.702  16.644  0.00  0.00    +0.117 C 
ATOM     13  C   UNL     1      -5.404 -12.001  15.667  0.00  0.00    +0.034 A 
ATOM     14  C   UNL     1      -5.795 -12.166  14.376  0.00  0.00    +0.002 A 
ATOM     15  C   UNL     1      -6.402 -14.167  16.301  0.00  0.00    +0.252 A 
ATOM     16  C   UNL     1      -7.818 -10.298  17.976  0.00  0.00    +0.253 C 
ATOM     17  C   UNL     1      -6.539 -13.356  14.010  0.00  0.00    +0.015 A 
ATOM     18  C   UNL     1      -6.851 -14.302  14.896  0.00  0.00    +0.071 A 
ENDROOT
BRANCH  14  19
ATOM     19  C   UNL     1      -5.500 -11.156  13.337  0.00  0.00    -0.016 A 
ATOM     21  C   UNL     1      -4.294 -11.210  12.645  0.00  0.00    +0.012 A 
ATOM     22  C   UNL     1      -6.431 -10.160  13.058  0.00  0.00    +0.012 A 
ATOM     24  C   UNL     1      -4.016 -10.257  11.665  0.00  0.00    +0.046 A 
ATOM     25  C   UNL     1      -6.152  -9.207  12.077  0.00  0.00    +0.046 A 
ATOM     26  C   UNL     1      -4.945  -9.256  11.381  0.00  0.00    +0.120 A 
BRANCH  26   4
ATOM      4  O   UNL     1      -4.672  -8.327  10.425  0.00  0.00    -0.495 OA
ATOM     29  C   UNL     1      -4.082  -8.797   9.212  0.00  0.00    +0.277 C 
ENDBRANCH  26   4
ENDBRANCH  14  19
BRANCH  16  20
ATOM      1  S   UNL     1      -9.364  -8.369  16.796  0.00  0.00    -0.092 S 
ATOM     20  C   UNL     1      -8.663  -9.927  16.834  0.00  0.00    +0.074 A 
ATOM     23  C   UNL     1      -8.992 -10.678  15.733  0.00  0.00    +0.021 A 
ATOM     27  C   UNL     1      -9.839  -9.962  14.838  0.00  0.00    +0.008 A 
ATOM     28  C   UNL     1     -10.119  -8.693  15.294  0.00  0.00    +0.046 A 
ENDBRANCH  16  20
TORSDOF 3
ENDMDL
MODEL 2
REMARK VINA RESULT:      -6.1     19.612     22.258
REMARK  Name = 7144094
REMARK  4 active torsions:
REMARK  status: ('A' for Active; 'I' for Inactive)
REMARK    1  A    between atoms: O_4  and  C_26
REMARK    2  A    between atoms: O_4  and  C_29
REMARK    3  A    between atoms: C_14  and  C_19
REMARK    4  A    between atoms: C_16  and  C_20
REMARK                            x       y       z     vdW  Elec       q    Type
REMARK                         _______ _______ _______ _____ _____    ______ ____
ROOT
ATOM      2  O   UNL     1     -10.838  12.832  18.559  0.00  0.00    -0.268 OA
ATOM      3  O   UNL     1     -14.062  11.192  14.999  0.00  0.00    -0.269 OA
ATOM      5  N   UNL     1     -11.274  10.563  18.175  0.00  0.00    -0.311 N 
ATOM      6  N   UNL     1     -13.045   9.287  15.893  0.00  0.00    -0.296 N 
ATOM      7  C   UNL     1     -10.568   9.413  15.991  0.00  0.00    +0.027 C 
ATOM      8  C   UNL     1     -11.790   8.147  17.711  0.00  0.00    +0.054 C 
ATOM      9  C   UNL     1     -10.536   8.149  16.839  0.00  0.00    +0.018 C 
ATOM     10  C   UNL     1     -10.502  10.624  16.923  0.00  0.00    +0.130 C 
ATOM     11  C   UNL     1     -11.824   9.437  15.103  0.00  0.00    +0.113 C 
ATOM     12  C   UNL     1     -13.045   8.138  16.812  0.00  0.00    +0.117 C 
ATOM     13  C   UNL     1     -11.827   9.357  18.648  0.00  0.00    +0.034 A 
ATOM     14  C   UNL     1     -12.397   9.311  19.881  0.00  0.00    +0.002 A 
ATOM     15  C   UNL     1     -11.316  11.756  18.918  0.00  0.00    +0.252 A 
ATOM     16  C   UNL     1     -14.065  10.233  15.769  0.00  0.00    +0.253 C 
ATOM     17  C   UNL     1     -12.462  10.523  20.676  0.00  0.00    +0.015 A 
ATOM     18  C   UNL     1     -11.978  11.687  20.241  0.00  0.00    +0.071 A 
ENDROOT
BRANCH  14  19
ATOM     19  C   UNL     1     -12.968   8.062  20.430  0.00  0.00    -0.016 A 
ATOM     21  C   UNL     1     -14.340   7.844  20.366  0.00  0.00    +0.012 A 
ATOM     22  C   UNL     1     -12.128   7.114  21.007  0.00  0.00    +0.012 A 
ATOM     24  C   UNL     1     -14.879   6.666  20.884  0.00  0.00    +0.046 A 
ATOM     25  C   UNL     1     -12.667   5.936  21.525  0.00  0.00    +0.046 A 
ATOM     26  C   UNL     1     -14.042   5.712  21.464  0.00  0.00    +0.120 A 
BRANCH  26   4
ATOM      4  O   UNL     1     -14.568   4.563  21.968  0.00  0.00    -0.495 OA
ATOM     29  C   UNL     1     -14.994   4.588  23.331  0.00  0.00    +0.277 C 
ENDBRANCH  26   4
ENDBRANCH  14  19
BRANCH  16  20
ATOM      1  S   UNL     1     -16.628   9.303  16.029  0.00  0.00    -0.092 S 
ATOM     20  C   UNL     1     -15.244  10.102  16.634  0.00  0.00    +0.074 A 
ATOM     23  C   UNL     1     -15.414  10.544  17.923  0.00  0.00    +0.021 A 
ATOM     27  C   UNL     1     -16.708  10.222  18.426  0.00  0.00    +0.008 A 
ATOM     28  C   UNL     1     -17.471   9.547  17.500  0.00  0.00    +0.046 A 
ENDBRANCH  16  20
TORSDOF 3
ENDMDL
MODEL 3
REMARK VINA RESULT:      -5.9      3.156      5.312
REMARK  Name = 7144094
REMARK  4 active torsions:
REMARK  status: ('A' for Active; 'I' for Inactive)
REMARK    1  A    between atoms: O_4  and  C_26
REMARK    2  A    between atoms: O_4  and  C_29
REMARK    3  A    between atoms: C_14  and  C_19
REMARK    4  A    between atoms: C_16  and  C_20
REMARK                            x       y       z     vdW  Elec       q    Type
REMARK                         _______ _______ _______ _____ _____    ______ ____
ROOT
ATOM      2  O   UNL     1      -1.856 -10.672  16.714  0.00  0.00    -0.268 OA
ATOM      3  O   UNL     1      -4.646 -14.839  15.939  0.00  0.00    -0.269 OA
ATOM      5  N   UNL     1      -3.672 -10.738  15.238  0.00  0.00    -0.311 N 
ATOM      6  N   UNL     1      -5.691 -13.118  14.752  0.00  0.00    -0.296 N 
ATOM      7  C   UNL     1      -6.075 -11.058  16.082  0.00  0.00    +0.027 C 
ATOM      8  C   UNL     1      -5.630 -10.881  13.669  0.00  0.00    +0.054 C 
ATOM      9  C   UNL     1      -6.464 -10.310  14.815  0.00  0.00    +0.018 C 
ATOM     10  C   UNL     1      -4.601 -10.777  16.379  0.00  0.00    +0.130 C 
ATOM     11  C   UNL     1      -6.355 -12.563  15.930  0.00  0.00    +0.113 C 
ATOM     12  C   UNL     1      -5.942 -12.384  13.502  0.00  0.00    +0.117 C 
ATOM     13  C   UNL     1      -4.131 -10.681  13.908  0.00  0.00    +0.034 A 
ATOM     14  C   UNL     1      -3.248 -10.490  12.893  0.00  0.00    +0.002 A 
ATOM     15  C   UNL     1      -2.310 -10.642  15.571  0.00  0.00    +0.252 A 
ATOM     16  C   UNL     1      -4.854 -14.227  14.893  0.00  0.00    +0.253 C 
ATOM     17  C   UNL     1      -1.833 -10.390  13.197  0.00  0.00    +0.015 A 
ATOM     18  C   UNL     1      -1.365 -10.474  14.443  0.00  0.00    +0.071 A 
ENDROOT
BRANCH  14  19
ATOM     19  C   UNL     1      -3.686 -10.399  11.483  0.00  0.00    -0.016 A 
ATOM     21  C   UNL     1      -4.078  -9.171  10.960  0.00  0.00    +0.012 A 
ATOM     22  C   UNL     1      -3.703 -11.543  10.691  0.00  0.00    +0.012 A 
ATOM     24  C   UNL     1      -4.493  -9.086   9.630  0.00  0.00    +0.046 A 
ATOM     25  C   UNL     1      -4.117 -11.458   9.361  0.00  0.00    +0.046 A 
ATOM     26  C   UNL     1      -4.512 -10.229   8.831  0.00  0.00    +0.120 A 
BRANCH  26   4
ATOM      4  O   UNL     1      -4.915 -10.145   7.534  0.00  0.00    -0.495 OA
ATOM     29  C   UNL     1      -6.189  -9.548   7.288  0.00  0.00    +0.277 C 
ENDBRANCH  26   4
ENDBRANCH  14  19
BRANCH  16  20
ATOM      1  S   UNL     1      -4.794 -16.015  12.819  0.00  0.00    -0.092 S 
ATOM     20  C   UNL     1      -4.136 -14.712  13.707  0.00  0.00    +0.074 A 
ATOM     23  C   UNL     1      -2.957 -14.254  13.173  0.00  0.00    +0.021 A 
ATOM     27  C   UNL     1      -2.583 -14.989  12.010  0.00  0.00    +0.008 A 
ATOM     28  C   UNL     1      -3.494 -15.975  11.705  0.00  0.00    +0.046 A 
ENDBRANCH  16  20
TORSDOF 3
ENDMDL
MODEL 4
REMARK VINA RESULT:      -5.7     25.526     27.937
REMARK  Name = 7144094
REMARK  4 active torsions:
REMARK  status: ('A' for Active; 'I' for Inactive)
REMARK    1  A    between atoms: O_4  and  C_26
REMARK    2  A    between atoms: O_4  and  C_29
REMARK    3  A    between atoms: C_14  and  C_19
REMARK    4  A    between atoms: C_16  and  C_20
REMARK                            x       y       z     vdW  Elec       q    Type
REMARK                         _______ _______ _______ _____ _____    ______ ____
ROOT
ATOM      2  O   UNL     1      19.563  -5.002  21.539  0.00  0.00    -0.268 OA
ATOM      3  O   UNL     1      20.492  -1.055  24.591  0.00  0.00    -0.269 OA
ATOM      5  N   UNL     1      18.060  -4.273  23.181  0.00  0.00    -0.311 N 
ATOM      6  N   UNL     1      18.298  -1.729  25.037  0.00  0.00    -0.296 N 
ATOM      7  C   UNL     1      16.889  -1.996  23.011  0.00  0.00    +0.027 C 
ATOM      8  C   UNL     1      16.497  -3.441  24.964  0.00  0.00    +0.054 C 
ATOM      9  C   UNL     1      15.804  -2.656  23.850  0.00  0.00    +0.018 C 
ATOM     10  C   UNL     1      17.737  -3.093  22.364  0.00  0.00    +0.130 C 
ATOM     11  C   UNL     1      17.737  -1.045  23.873  0.00  0.00    +0.113 C 
ATOM     12  C   UNL     1      17.319  -2.474  25.843  0.00  0.00    +0.117 C 
ATOM     13  C   UNL     1      17.406  -4.536  24.400  0.00  0.00    +0.034 A 
ATOM     14  C   UNL     1      17.620  -5.713  25.045  0.00  0.00    +0.002 A 
ATOM     15  C   UNL     1      18.974  -5.174  22.606  0.00  0.00    +0.252 A 
ATOM     16  C   UNL     1      19.675  -1.679  25.266  0.00  0.00    +0.253 C 
ATOM     17  C   UNL     1      18.559  -6.666  24.484  0.00  0.00    +0.015 A 
ATOM     18  C   UNL     1      19.219  -6.431  23.349  0.00  0.00    +0.071 A 
ENDROOT
BRANCH  14  19
ATOM     19  C   UNL     1      16.936  -6.043  26.314  0.00  0.00    -0.016 A 
ATOM     21  C   UNL     1      15.716  -6.709  26.288  0.00  0.00    +0.012 A 
ATOM     22  C   UNL     1      17.519  -5.683  27.525  0.00  0.00    +0.012 A 
ATOM     24  C   UNL     1      15.070  -7.020  27.486  0.00  0.00    +0.046 A 
ATOM     25  C   UNL     1      16.874  -5.994  28.723  0.00  0.00    +0.046 A 
ATOM     26  C   UNL     1      15.650  -6.662  28.703  0.00  0.00    +0.120 A 
BRANCH  26   4
ATOM      4  O   UNL     1      15.020  -6.965  29.871  0.00  0.00    -0.495 OA
ATOM     29  C   UNL     1      13.884  -6.175  30.220  0.00  0.00    +0.277 C 
ENDBRANCH  26   4
ENDBRANCH  14  19
BRANCH  16  20
ATOM      1  S   UNL     1      20.463  -1.650  27.890  0.00  0.00    -0.092 S 
ATOM     20  C   UNL     1      20.220  -2.443  26.395  0.00  0.00    +0.074 A 
ATOM     23  C   UNL     1      20.583  -3.767  26.439  0.00  0.00    +0.021 A 
ATOM     27  C   UNL     1      21.071  -4.140  27.725  0.00  0.00    +0.008 A 
ATOM     28  C   UNL     1      21.059  -3.084  28.609  0.00  0.00    +0.046 A 
ENDBRANCH  16  20
TORSDOF 3
ENDMDL
MODEL 5
REMARK VINA RESULT:      -5.6      2.732      4.018
REMARK  Name = 7144094
REMARK  4 active torsions:
REMARK  status: ('A' for Active; 'I' for Inactive)
REMARK    1  A    between atoms: O_4  and  C_26
REMARK    2  A    between atoms: O_4  and  C_29
REMARK    3  A    between atoms: C_14  and  C_19
REMARK    4  A    between atoms: C_16  and  C_20
REMARK                            x       y       z     vdW  Elec       q    Type
REMARK                         _______ _______ _______ _____ _____    ______ ____
ROOT
ATOM      2  O   UNL     1      -1.901 -15.188  12.852  0.00  0.00    -0.268 OA
ATOM      3  O   UNL     1      -4.827 -13.284  16.535  0.00  0.00    -0.269 OA
ATOM      5  N   UNL     1      -2.496 -12.926  12.973  0.00  0.00    -0.311 N 
ATOM      6  N   UNL     1      -4.100 -11.461  15.265  0.00  0.00    -0.296 N 
ATOM      7  C   UNL     1      -1.650 -11.416  14.868  0.00  0.00    +0.027 C 
ATOM      8  C   UNL     1      -3.175 -10.513  13.161  0.00  0.00    +0.054 C 
ATOM      9  C   UNL     1      -1.832 -10.293  13.857  0.00  0.00    +0.018 C 
ATOM     10  C   UNL     1      -1.582 -12.744  14.111  0.00  0.00    +0.130 C 
ATOM     11  C   UNL     1      -2.787 -11.402  15.904  0.00  0.00    +0.113 C 
ATOM     12  C   UNL     1      -4.312 -10.464  14.204  0.00  0.00    +0.117 C 
ATOM     13  C   UNL     1      -3.209 -11.848  12.412  0.00  0.00    +0.034 A 
ATOM     14  C   UNL     1      -3.919 -12.027  11.268  0.00  0.00    +0.002 A 
ATOM     15  C   UNL     1      -2.515 -14.216  12.413  0.00  0.00    +0.252 A 
ATOM     16  C   UNL     1      -5.007 -12.452  15.647  0.00  0.00    +0.253 C 
ATOM     17  C   UNL     1      -3.966 -13.345  10.663  0.00  0.00    +0.015 A 
ATOM     18  C   UNL     1      -3.329 -14.392  11.188  0.00  0.00    +0.071 A 
ENDROOT
BRANCH  14  19
ATOM     19  C   UNL     1      -4.663 -10.919  10.630  0.00  0.00    -0.016 A 
ATOM     21  C   UNL     1      -4.011 -10.073   9.739  0.00  0.00    +0.012 A 
ATOM     22  C   UNL     1      -6.010 -10.732  10.926  0.00  0.00    +0.012 A 
ATOM     24  C   UNL     1      -4.713  -9.027   9.138  0.00  0.00    +0.046 A 
ATOM     25  C   UNL     1      -6.712  -9.687  10.324  0.00  0.00    +0.046 A 
ATOM     26  C   UNL     1      -6.064  -8.834   9.431  0.00  0.00    +0.120 A 
BRANCH  26   4
ATOM      4  O   UNL     1      -6.747  -7.815   8.844  0.00  0.00    -0.495 OA
ATOM     29  C   UNL     1      -7.708  -8.165   7.848  0.00  0.00    +0.277 C 
ENDBRANCH  26   4
ENDBRANCH  14  19
BRANCH  16  20
ATOM      1  S   UNL     1      -7.668 -11.801  15.614  0.00  0.00    -0.092 S 
ATOM     20  C   UNL     1      -6.285 -12.538  14.931  0.00  0.00    +0.074 A 
ATOM     23  C   UNL     1      -6.556 -13.150  13.732  0.00  0.00    +0.021 A 
ATOM     27  C   UNL     1      -7.927 -13.014  13.365  0.00  0.00    +0.008 A 
ATOM     28  C   UNL     1      -8.644 -12.301  14.300  0.00  0.00    +0.046 A 
ENDBRANCH  16  20
TORSDOF 3
ENDMDL
MODEL 6
REMARK VINA RESULT:      -5.6     19.716     22.137
REMARK  Name = 7144094
REMARK  4 active torsions:
REMARK  status: ('A' for Active; 'I' for Inactive)
REMARK    1  A    between atoms: O_4  and  C_26
REMARK    2  A    between atoms: O_4  and  C_29
REMARK    3  A    between atoms: C_14  and  C_19
REMARK    4  A    between atoms: C_16  and  C_20
REMARK                            x       y       z     vdW  Elec       q    Type
REMARK                         _______ _______ _______ _____ _____    ______ ____
ROOT
ATOM      2  O   UNL     1     -12.740  13.025  19.373  0.00  0.00    -0.268 OA
ATOM      3  O   UNL     1     -12.253  10.079  15.269  0.00  0.00    -0.269 OA
ATOM      5  N   UNL     1     -12.329  10.722  19.493  0.00  0.00    -0.311 N 
ATOM      6  N   UNL     1     -11.763   8.726  17.112  0.00  0.00    -0.296 N 
ATOM      7  C   UNL     1     -10.113   9.712  18.682  0.00  0.00    +0.027 C 
ATOM      8  C   UNL     1     -11.891   8.248  19.547  0.00  0.00    +0.054 C 
ATOM      9  C   UNL     1     -10.414   8.613  19.691  0.00  0.00    +0.018 C 
ATOM     10  C   UNL     1     -10.945  10.943  19.043  0.00  0.00    +0.130 C 
ATOM     11  C   UNL     1     -10.396   9.225  17.250  0.00  0.00    +0.113 C 
ATOM     12  C   UNL     1     -12.158   7.729  18.118  0.00  0.00    +0.117 C 
ATOM     13  C   UNL     1     -12.799   9.443  19.849  0.00  0.00    +0.034 A 
ATOM     14  C   UNL     1     -14.030   9.304  20.406  0.00  0.00    +0.002 A 
ATOM     15  C   UNL     1     -13.105  11.883  19.655  0.00  0.00    +0.252 A 
ATOM     16  C   UNL     1     -12.587   9.246  16.111  0.00  0.00    +0.253 C 
ATOM     17  C   UNL     1     -14.862  10.479  20.586  0.00  0.00    +0.015 A 
ATOM     18  C   UNL     1     -14.458  11.698  20.227  0.00  0.00    +0.071 A 
ENDROOT
BRANCH  14  19
ATOM     19  C   UNL     1     -14.555   7.984  20.819  0.00  0.00    -0.016 A 
ATOM     21  C   UNL     1     -15.399   7.280  19.967  0.00  0.00    +0.012 A 
ATOM     22  C   UNL     1     -14.200   7.457  22.057  0.00  0.00    +0.012 A 
ATOM     24  C   UNL     1     -15.895   6.035  20.357  0.00  0.00    +0.046 A 
ATOM     25  C   UNL     1     -14.695   6.212  22.447  0.00  0.00    +0.046 A 
ATOM     26  C   UNL     1     -15.543   5.501  21.597  0.00  0.00    +0.120 A 
BRANCH  26   4
ATOM      4  O   UNL     1     -16.026   4.287  21.977  0.00  0.00    -0.495 OA
ATOM     29  C   UNL     1     -15.875   3.928  23.350  0.00  0.00    +0.277 C 
ENDBRANCH  26   4
ENDBRANCH  14  19
BRANCH  16  20
ATOM      1  S   UNL     1     -14.421   7.653  14.846  0.00  0.00    -0.092 S 
ATOM     20  C   UNL     1     -13.979   8.786  16.047  0.00  0.00    +0.074 A 
ATOM     23  C   UNL     1     -15.037   9.143  16.847  0.00  0.00    +0.021 A 
ATOM     27  C   UNL     1     -16.237   8.474  16.467  0.00  0.00    +0.008 A 
ATOM     28  C   UNL     1     -16.044   7.634  15.393  0.00  0.00    +0.046 A 
ENDBRANCH  16  20
TORSDOF 3
ENDMDL
MODEL 7
REMARK VINA RESULT:      -5.6      2.897      6.377
REMARK  Name = 7144094
REMARK  4 active torsions:
REMARK  status: ('A' for Active; 'I' for Inactive)
REMARK    1  A    between atoms: O_4  and  C_26
REMARK    2  A    between atoms: O_4  and  C_29
REMARK    3  A    between atoms: C_14  and  C_19
REMARK    4  A    between atoms: C_16  and  C_20
REMARK                            x       y       z     vdW  Elec       q    Type
REMARK                         _______ _______ _______ _____ _____    ______ ____
ROOT
ATOM      2  O   UNL     1      -4.326  -9.696  11.075  0.00  0.00    -0.268 OA
ATOM      3  O   UNL     1      -3.135 -14.456  12.371  0.00  0.00    -0.269 OA
ATOM      5  N   UNL     1      -4.047 -10.386  13.296  0.00  0.00    -0.311 N 
ATOM      6  N   UNL     1      -3.091 -13.207  14.346  0.00  0.00    -0.296 N 
ATOM      7  C   UNL     1      -1.757 -11.119  14.195  0.00  0.00    +0.027 C 
ATOM      8  C   UNL     1      -3.736 -11.195  15.655  0.00  0.00    +0.054 C 
ATOM      9  C   UNL     1      -2.306 -10.669  15.541  0.00  0.00    +0.018 C 
ATOM     10  C   UNL     1      -2.593 -10.470  13.090  0.00  0.00    +0.130 C 
ATOM     11  C   UNL     1      -1.762 -12.654  14.094  0.00  0.00    +0.113 C 
ATOM     12  C   UNL     1      -3.727 -12.737  15.586  0.00  0.00    +0.117 C 
ATOM     13  C   UNL     1      -4.635 -10.627  14.553  0.00  0.00    +0.034 A 
ATOM     14  C   UNL     1      -5.959 -10.387  14.740  0.00  0.00    +0.002 A 
ATOM     15  C   UNL     1      -4.790  -9.935  12.190  0.00  0.00    +0.252 A 
ATOM     16  C   UNL     1      -3.669 -14.064  13.407  0.00  0.00    +0.253 C 
ATOM     17  C   UNL     1      -6.759  -9.925  13.621  0.00  0.00    +0.015 A 
ATOM     18  C   UNL     1      -6.238  -9.720  12.411  0.00  0.00    +0.071 A 
ENDROOT
BRANCH  14  19
ATOM     19  C   UNL     1      -6.614 -10.602  16.049  0.00  0.00    -0.016 A 
ATOM     21  C   UNL     1      -6.645  -9.571  16.983  0.00  0.00    +0.012 A 
ATOM     22  C   UNL     1      -7.194 -11.834  16.336  0.00  0.00    +0.012 A 
ATOM     24  C   UNL     1      -7.262  -9.775  18.218  0.00  0.00    +0.046 A 
ATOM     25  C   UNL     1      -7.812 -12.037  17.571  0.00  0.00    +0.046 A 
ATOM     26  C   UNL     1      -7.846 -11.008  18.512  0.00  0.00    +0.120 A 
BRANCH  26   4
ATOM      4  O   UNL     1      -8.447 -11.205  19.716  0.00  0.00    -0.495 OA
ATOM     29  C   UNL     1      -9.870 -11.096  19.756  0.00  0.00    +0.277 C 
ENDBRANCH  26   4
ENDBRANCH  14  19
BRANCH  16  20
ATOM      1  S   UNL     1      -5.266 -16.060  14.391  0.00  0.00    -0.092 S 
ATOM     20  C   UNL     1      -5.037 -14.538  13.647  0.00  0.00    +0.074 A 
ATOM     23  C   UNL     1      -6.225 -13.914  13.353  0.00  0.00    +0.021 A 
ATOM     27  C   UNL     1      -7.347 -14.700  13.744  0.00  0.00    +0.008 A 
ATOM     28  C   UNL     1      -6.969 -15.891  14.322  0.00  0.00    +0.046 A 
ENDBRANCH  16  20
TORSDOF 3
ENDMDL
MODEL 8
REMARK VINA RESULT:      -5.2     19.687     22.174
REMARK  Name = 7144094
REMARK  4 active torsions:
REMARK  status: ('A' for Active; 'I' for Inactive)
REMARK    1  A    between atoms: O_4  and  C_26
REMARK    2  A    between atoms: O_4  and  C_29
REMARK    3  A    between atoms: C_14  and  C_19
REMARK    4  A    between atoms: C_16  and  C_20
REMARK                            x       y       z     vdW  Elec       q    Type
REMARK                         _______ _______ _______ _____ _____    ______ ____
ROOT
ATOM      2  O   UNL     1     -13.048  12.083  21.938  0.00  0.00    -0.268 OA
ATOM      3  O   UNL     1     -14.140  10.496  17.243  0.00  0.00    -0.269 OA
ATOM      5  N   UNL     1     -12.860   9.847  21.267  0.00  0.00    -0.311 N 
ATOM      6  N   UNL     1     -13.254   8.650  18.372  0.00  0.00    -0.296 N 
ATOM      7  C   UNL     1     -11.112   9.109  19.538  0.00  0.00    +0.027 C 
ATOM      8  C   UNL     1     -12.683   7.466  20.481  0.00  0.00    +0.054 C 
ATOM      9  C   UNL     1     -11.203   7.761  20.239  0.00  0.00    +0.018 C 
ATOM     10  C   UNL     1     -11.663  10.182  20.478  0.00  0.00    +0.130 C 
ATOM     11  C   UNL     1     -11.867   9.074  18.198  0.00  0.00    +0.113 C 
ATOM     12  C   UNL     1     -13.425   7.401  19.129  0.00  0.00    +0.117 C 
ATOM     13  C   UNL     1     -13.328   8.524  21.382  0.00  0.00    +0.034 A 
ATOM     14  C   UNL     1     -14.339   8.234  22.242  0.00  0.00    +0.002 A 
ATOM     15  C   UNL     1     -13.426  10.913  21.989  0.00  0.00    +0.252 A 
ATOM     16  C   UNL     1     -14.286   9.452  17.877  0.00  0.00    +0.253 C 
ATOM     17  C   UNL     1     -14.951   9.308  23.002  0.00  0.00    +0.015 A 
ATOM     18  C   UNL     1     -14.552  10.575  22.890  0.00  0.00    +0.071 A 
ENDROOT
BRANCH  14  19
ATOM     19  C   UNL     1     -14.846   6.855  22.414  0.00  0.00    -0.016 A 
ATOM     21  C   UNL     1     -15.966   6.438  21.702  0.00  0.00    +0.012 A 
ATOM     22  C   UNL     1     -14.199   5.985  23.286  0.00  0.00    +0.012 A 
ATOM     24  C   UNL     1     -16.445   5.138  21.864  0.00  0.00    +0.046 A 
ATOM     25  C   UNL     1     -14.677   4.684  23.448  0.00  0.00    +0.046 A 
ATOM     26  C   UNL     1     -15.800   4.261  22.737  0.00  0.00    +0.120 A 
BRANCH  26   4
ATOM      4  O   UNL     1     -16.268   2.993  22.895  0.00  0.00    -0.495 OA
ATOM     29  C   UNL     1     -16.682   2.611  24.207  0.00  0.00    +0.277 C 
ENDBRANCH  26   4
ENDBRANCH  14  19
BRANCH  16  20
ATOM      1  S   UNL     1     -16.504   8.141  16.949  0.00  0.00    -0.092 S 
ATOM     20  C   UNL     1     -15.671   9.043  18.138  0.00  0.00    +0.074 A 
ATOM     23  C   UNL     1     -16.441   9.284  19.249  0.00  0.00    +0.021 A 
ATOM     27  C   UNL     1     -17.743   8.719  19.123  0.00  0.00    +0.008 A 
ATOM     28  C   UNL     1     -17.912   8.068  17.922  0.00  0.00    +0.046 A 
ENDBRANCH  16  20
TORSDOF 3
ENDMDL
MODEL 9
REMARK VINA RESULT:      -5.1      4.130      6.486
REMARK  Name = 7144094
REMARK  4 active torsions:
REMARK  status: ('A' for Active; 'I' for Inactive)
REMARK    1  A    between atoms: O_4  and  C_26
REMARK    2  A    between atoms: O_4  and  C_29
REMARK    3  A    between atoms: C_14  and  C_19
REMARK    4  A    between atoms: C_16  and  C_20
REMARK                            x       y       z     vdW  Elec       q    Type
REMARK                         _______ _______ _______ _____ _____    ______ ____
ROOT
ATOM      2  O   UNL     1      -5.114 -13.569   8.648  0.00  0.00    -0.268 OA
ATOM      3  O   UNL     1      -5.402 -11.766  13.383  0.00  0.00    -0.269 OA
ATOM      5  N   UNL     1      -5.264 -11.284   9.140  0.00  0.00    -0.311 N 
ATOM      6  N   UNL     1      -5.225  -9.904  11.980  0.00  0.00    -0.296 N 
ATOM      7  C   UNL     1      -3.366 -10.043  10.342  0.00  0.00    +0.027 C 
ATOM      8  C   UNL     1      -5.431  -8.849   9.739  0.00  0.00    +0.054 C 
ATOM      9  C   UNL     1      -3.907  -8.818   9.620  0.00  0.00    +0.018 C 
ATOM     10  C   UNL     1      -3.874 -11.294   9.622  0.00  0.00    +0.130 C 
ATOM     11  C   UNL     1      -3.777 -10.025  11.824  0.00  0.00    +0.113 C 
ATOM     12  C   UNL     1      -5.834  -8.796  11.228  0.00  0.00    +0.117 C 
ATOM     13  C   UNL     1      -6.022 -10.098   9.080  0.00  0.00    +0.034 A 
ATOM     14  C   UNL     1      -7.243 -10.103   8.484  0.00  0.00    +0.002 A 
ATOM     15  C   UNL     1      -5.738 -12.508   8.634  0.00  0.00    +0.252 A 
ATOM     16  C   UNL     1      -5.914 -10.840  12.754  0.00  0.00    +0.253 C 
ATOM     17  C   UNL     1      -7.767 -11.348   7.955  0.00  0.00    +0.015 A 
ATOM     18  C   UNL     1      -7.088 -12.493   8.026  0.00  0.00    +0.071 A 
ENDROOT
BRANCH  14  19
ATOM     19  C   UNL     1      -8.063  -8.876   8.377  0.00  0.00    -0.016 A 
ATOM     21  C   UNL     1      -9.058  -8.626   9.316  0.00  0.00    +0.012 A 
ATOM     22  C   UNL     1      -7.832  -7.982   7.336  0.00  0.00    +0.012 A 
ATOM     24  C   UNL     1      -9.832  -7.470   9.214  0.00  0.00    +0.046 A 
ATOM     25  C   UNL     1      -8.606  -6.825   7.234  0.00  0.00    +0.046 A 
ATOM     26  C   UNL     1      -9.606  -6.569   8.173  0.00  0.00    +0.120 A 
BRANCH  26   4
ATOM      4  O   UNL     1     -10.360  -5.441   8.074  0.00  0.00    -0.495 OA
ATOM     29  C   UNL     1      -9.942  -4.310   8.839  0.00  0.00    +0.277 C 
ENDBRANCH  26   4
ENDBRANCH  14  19
BRANCH  16  20
ATOM      1  S   UNL     1      -8.087  -9.921  14.146  0.00  0.00    -0.092 S 
ATOM     20  C   UNL     1      -7.377 -10.742  12.826  0.00  0.00    +0.074 A 
ATOM     23  C   UNL     1      -8.313 -11.233  11.949  0.00  0.00    +0.021 A 
ATOM     27  C   UNL     1      -9.641 -10.931  12.368  0.00  0.00    +0.008 A 
ATOM     28  C   UNL     1      -9.663 -10.221  13.547  0.00  0.00    +0.046 A 
ENDBRANCH  16  20
TORSDOF 3
ENDMDL
MODEL 10
REMARK VINA RESULT:      -5.1      3.151      6.895
REMARK  Name = 7144094
REMARK  4 active torsions:
REMARK  status: ('A' for Active; 'I' for Inactive)
REMARK    1  A    between atoms: O_4  and  C_26
REMARK    2  A    between atoms: O_4  and  C_29
REMARK    3  A    between atoms: C_14  and  C_19
REMARK    4  A    between atoms: C_16  and  C_20
REMARK                            x       y       z     vdW  Elec       q    Type
REMARK                         _______ _______ _______ _____ _____    ______ ____
ROOT
ATOM      2  O   UNL     1      -5.975  -9.644  14.558  0.00  0.00    -0.268 OA
ATOM      3  O   UNL     1      -5.238 -14.384  16.214  0.00  0.00    -0.269 OA
ATOM      5  N   UNL     1      -6.617 -10.368  16.691  0.00  0.00    -0.311 N 
ATOM      6  N   UNL     1      -6.071 -13.174  18.033  0.00  0.00    -0.296 N 
ATOM      7  C   UNL     1      -4.880 -11.038  18.459  0.00  0.00    +0.027 C 
ATOM      8  C   UNL     1      -7.282 -11.213  18.963  0.00  0.00    +0.054 C 
ATOM      9  C   UNL     1      -5.957 -10.635  19.456  0.00  0.00    +0.018 C 
ATOM     10  C   UNL     1      -5.206 -10.397  17.109  0.00  0.00    +0.130 C 
ATOM     11  C   UNL     1      -4.780 -12.570  18.359  0.00  0.00    +0.113 C 
ATOM     12  C   UNL     1      -7.183 -12.752  18.898  0.00  0.00    +0.117 C 
ATOM     13  C   UNL     1      -7.664 -10.655  17.589  0.00  0.00    +0.034 A 
ATOM     14  C   UNL     1      -8.955 -10.466  17.208  0.00  0.00    +0.002 A 
ATOM     15  C   UNL     1      -6.850  -9.921  15.378  0.00  0.00    +0.252 A 
ATOM     16  C   UNL     1      -6.170 -14.032  16.935  0.00  0.00    +0.253 C 
ATOM     17  C   UNL     1      -9.234 -10.010  15.860  0.00  0.00    +0.015 A 
ATOM     18  C   UNL     1      -8.267  -9.763  14.977  0.00  0.00    +0.071 A 
ENDROOT
BRANCH  14  19
ATOM     19  C   UNL     1     -10.085 -10.731  18.125  0.00  0.00    -0.016 A 
ATOM     21  C   UNL     1     -10.558  -9.715  18.948  0.00  0.00    +0.012 A 
ATOM     22  C   UNL     1     -10.666 -11.995  18.157  0.00  0.00    +0.012 A 
ATOM     24  C   UNL     1     -11.624  -9.965  19.813  0.00  0.00    +0.046 A 
ATOM     25  C   UNL     1     -11.733 -12.245  19.021  0.00  0.00    +0.046 A 
ATOM     26  C   UNL     1     -12.211 -11.230  19.850  0.00  0.00    +0.120 A 
BRANCH  26   4
ATOM      4  O   UNL     1     -13.251 -11.473  20.693  0.00  0.00    -0.495 OA
ATOM     29  C   UNL     1     -13.104 -12.558  21.610  0.00  0.00    +0.277 C 
ENDBRANCH  26   4
ENDBRANCH  14  19
BRANCH  16  20
ATOM      1  S   UNL     1      -7.921 -16.132  17.096  0.00  0.00    -0.092 S 
ATOM     20  C   UNL     1      -7.494 -14.559  16.582  0.00  0.00    +0.074 A 
ATOM     23  C   UNL     1      -8.496 -13.951  15.867  0.00  0.00    +0.021 A 
ATOM     27  C   UNL     1      -9.638 -14.792  15.735  0.00  0.00    +0.008 A 
ATOM     28  C   UNL     1      -9.461 -16.007  16.358  0.00  0.00    +0.046 A 
ENDBRANCH  16  20
TORSDOF 3
ENDMDL
