MODEL 1
REMARK VINA RESULT:      -6.8      0.000      0.000
REMARK  Name = 26744182
REMARK  7 active torsions:
REMARK  status: ('A' for Active; 'I' for Inactive)
REMARK    1  A    between atoms: O_1  and  C_14
REMARK    2  A    between atoms: O_3  and  C_22
REMARK    3  A    between atoms: O_3  and  C_23
REMARK    4  A    between atoms: N_4  and  C_10
REMARK    5  A    between atoms: C_7  and  C_10
REMARK    6  A    between atoms: C_11  and  C_15
REMARK    7  A    between atoms: C_16  and  C_17
REMARK                            x       y       z     vdW  Elec       q    Type
REMARK                         _______ _______ _______ _____ _____    ______ ____
ROOT
ATOM      2  O   UNL     1      14.462   6.798  19.356  0.00  0.00    -0.336 OA
ATOM      5  N   UNL     1      15.638   7.993  20.841  0.00  0.00    -0.190 NA
ATOM      6  N   UNL     1      15.761   6.274  19.338  0.00  0.00    -0.056 NA
ATOM     15  C   UNL     1      14.476   7.807  20.267  0.00  0.00    +0.245 A 
ATOM     16  C   UNL     1      16.394   7.030  20.239  0.00  0.00    +0.202 A 
ENDROOT
BRANCH  16  17
ATOM     17  C   UNL     1      17.780   6.850  20.561  0.00  0.00    +0.023 A 
ATOM     18  C   UNL     1      18.419   7.745  21.417  0.00  0.00    +0.015 A 
ATOM     19  C   UNL     1      18.488   5.780  20.015  0.00  0.00    +0.015 A 
ATOM     20  C   UNL     1      19.768   7.571  21.729  0.00  0.00    +0.046 A 
ATOM     21  C   UNL     1      19.837   5.605  20.326  0.00  0.00    +0.046 A 
ATOM     22  C   UNL     1      20.477   6.501  21.182  0.00  0.00    +0.120 A 
BRANCH  22   3
ATOM      3  O   UNL     1      21.793   6.330  21.485  0.00  0.00    -0.495 OA
ATOM     23  C   UNL     1      22.480   5.273  20.816  0.00  0.00    +0.277 C 
ENDBRANCH  22   3
ENDBRANCH  16  17
BRANCH  15  11
ATOM      4  N   UNL     1      12.222   8.350  19.362  0.00  0.00    -0.289 NA
ATOM     11  C   UNL     1      13.172   8.546  20.476  0.00  0.00    +0.148 C 
ATOM     12  C   UNL     1      10.882   8.456  19.936  0.00  0.00    +0.116 C 
ATOM     13  C   UNL     1      12.412   8.071  21.728  0.00  0.00    +0.061 C 
ATOM     14  C   UNL     1      11.031   7.669  21.224  0.00  0.00    +0.130 C 
BRANCH  14   1
ATOM      1  O   UNL     1      10.034   8.012  22.167  0.00  0.00    -0.390 OA
ATOM     24  H   UNL     1      10.227   8.912  22.482  0.00  0.00    +0.210 HD
ENDBRANCH  14   1
BRANCH   4  10
ATOM     10  C   UNL     1      12.424   9.286  18.263  0.00  0.00    +0.088 C 
BRANCH  10   7
ATOM      7  C   UNL     1      12.174   8.635  16.942  0.00  0.00    +0.003 C 
ATOM      8  C   UNL     1      12.271   9.456  15.689  0.00  0.00    +0.005 C 
ATOM      9  C   UNL     1      10.932   8.985  16.176  0.00  0.00    +0.005 C 
ENDBRANCH  10   7
ENDBRANCH   4  10
ENDBRANCH  15  11
TORSDOF 6
ENDMDL
MODEL 2
REMARK VINA RESULT:      -6.7      2.045      3.129
REMARK  Name = 26744182
REMARK  7 active torsions:
REMARK  status: ('A' for Active; 'I' for Inactive)
REMARK    1  A    between atoms: O_1  and  C_14
REMARK    2  A    between atoms: O_3  and  C_22
REMARK    3  A    between atoms: O_3  and  C_23
REMARK    4  A    between atoms: N_4  and  C_10
REMARK    5  A    between atoms: C_7  and  C_10
REMARK    6  A    between atoms: C_11  and  C_15
REMARK    7  A    between atoms: C_16  and  C_17
REMARK                            x       y       z     vdW  Elec       q    Type
REMARK                         _______ _______ _______ _____ _____    ______ ____
ROOT
ATOM      2  O   UNL     1      15.954   5.980  18.293  0.00  0.00    -0.336 OA
ATOM      5  N   UNL     1      16.479   7.108  20.156  0.00  0.00    -0.190 NA
ATOM      6  N   UNL     1      17.224   5.531  18.677  0.00  0.00    -0.056 NA
ATOM     15  C   UNL     1      15.588   6.908  19.218  0.00  0.00    +0.245 A 
ATOM     16  C   UNL     1      17.464   6.242  19.782  0.00  0.00    +0.202 A 
ENDROOT
BRANCH  16  17
ATOM     17  C   UNL     1      18.679   6.111  20.535  0.00  0.00    +0.023 A 
ATOM     18  C   UNL     1      18.875   6.881  21.680  0.00  0.00    +0.015 A 
ATOM     19  C   UNL     1      19.662   5.214  20.119  0.00  0.00    +0.015 A 
ATOM     20  C   UNL     1      20.056   6.755  22.411  0.00  0.00    +0.046 A 
ATOM     21  C   UNL     1      20.844   5.087  20.850  0.00  0.00    +0.046 A 
ATOM     22  C   UNL     1      21.041   5.858  21.996  0.00  0.00    +0.120 A 
BRANCH  22   3
ATOM      3  O   UNL     1      22.194   5.734  22.708  0.00  0.00    -0.495 OA
ATOM     23  C   UNL     1      23.278   5.055  22.075  0.00  0.00    +0.277 C 
ENDBRANCH  22   3
ENDBRANCH  16  17
BRANCH  15  11
ATOM      4  N   UNL     1      13.836   8.393  20.174  0.00  0.00    -0.289 NA
ATOM     11  C   UNL     1      14.233   7.554  19.026  0.00  0.00    +0.148 C 
ATOM     12  C   UNL     1      12.979   9.450  19.638  0.00  0.00    +0.116 C 
ATOM     13  C   UNL     1      14.191   8.501  17.812  0.00  0.00    +0.061 C 
ATOM     14  C   UNL     1      13.717   9.837  18.371  0.00  0.00    +0.130 C 
BRANCH  14   1
ATOM      1  O   UNL     1      12.868  10.493  17.449  0.00  0.00    -0.390 OA
ATOM     24  H   UNL     1      12.315   9.814  17.027  0.00  0.00    +0.210 HD
ENDBRANCH  14   1
BRANCH   4  10
ATOM     10  C   UNL     1      13.180   7.642  21.236  0.00  0.00    +0.088 C 
BRANCH  10   7
ATOM      7  C   UNL     1      11.851   7.123  20.795  0.00  0.00    +0.003 C 
ATOM      8  C   UNL     1      10.657   7.310  21.686  0.00  0.00    +0.005 C 
ATOM      9  C   UNL     1      11.251   5.944  21.505  0.00  0.00    +0.005 C 
ENDBRANCH  10   7
ENDBRANCH   4  10
ENDBRANCH  15  11
TORSDOF 6
ENDMDL
MODEL 3
REMARK VINA RESULT:      -6.4      1.577      3.194
REMARK  Name = 26744182
REMARK  7 active torsions:
REMARK  status: ('A' for Active; 'I' for Inactive)
REMARK    1  A    between atoms: O_1  and  C_14
REMARK    2  A    between atoms: O_3  and  C_22
REMARK    3  A    between atoms: O_3  and  C_23
REMARK    4  A    between atoms: N_4  and  C_10
REMARK    5  A    between atoms: C_7  and  C_10
REMARK    6  A    between atoms: C_11  and  C_15
REMARK    7  A    between atoms: C_16  and  C_17
REMARK                            x       y       z     vdW  Elec       q    Type
REMARK                         _______ _______ _______ _____ _____    ______ ____
ROOT
ATOM      2  O   UNL     1      14.169   6.568  20.517  0.00  0.00    -0.336 OA
ATOM      5  N   UNL     1      15.759   7.462  19.217  0.00  0.00    -0.190 NA
ATOM      6  N   UNL     1      15.369   6.443  21.227  0.00  0.00    -0.056 NA
ATOM     15  C   UNL     1      14.487   7.178  19.344  0.00  0.00    +0.245 A 
ATOM     16  C   UNL     1      16.259   6.993  20.396  0.00  0.00    +0.202 A 
ENDROOT
BRANCH  16  17
ATOM     17  C   UNL     1      17.655   7.088  20.713  0.00  0.00    +0.023 A 
ATOM     18  C   UNL     1      18.135   8.185  21.428  0.00  0.00    +0.015 A 
ATOM     19  C   UNL     1      18.532   6.084  20.305  0.00  0.00    +0.015 A 
ATOM     20  C   UNL     1      19.492   8.279  21.734  0.00  0.00    +0.046 A 
ATOM     21  C   UNL     1      19.890   6.177  20.611  0.00  0.00    +0.046 A 
ATOM     22  C   UNL     1      20.370   7.275  21.326  0.00  0.00    +0.120 A 
BRANCH  22   3
ATOM      3  O   UNL     1      21.695   7.364  21.624  0.00  0.00    -0.495 OA
ATOM     23  C   UNL     1      22.605   7.416  20.526  0.00  0.00    +0.277 C 
ENDBRANCH  22   3
ENDBRANCH  16  17
BRANCH  15  11
ATOM      4  N   UNL     1      12.581   8.649  18.717  0.00  0.00    -0.289 NA
ATOM     11  C   UNL     1      13.345   7.431  18.383  0.00  0.00    +0.148 C 
ATOM     12  C   UNL     1      12.051   9.166  17.456  0.00  0.00    +0.116 C 
ATOM     13  C   UNL     1      13.822   7.650  16.936  0.00  0.00    +0.061 C 
ATOM     14  C   UNL     1      13.239   8.997  16.528  0.00  0.00    +0.130 C 
BRANCH  14   1
ATOM      1  O   UNL     1      12.845   8.982  15.169  0.00  0.00    -0.390 OA
ATOM     24  H   UNL     1      12.572   9.886  14.934  0.00  0.00    +0.210 HD
ENDBRANCH  14   1
BRANCH   4  10
ATOM     10  C   UNL     1      11.529   8.418  19.699  0.00  0.00    +0.088 C 
BRANCH  10   7
ATOM      7  C   UNL     1      11.558   9.449  20.780  0.00  0.00    +0.003 C 
ATOM      8  C   UNL     1      12.815   9.644  21.575  0.00  0.00    +0.005 C 
ATOM      9  C   UNL     1      11.616   9.007  22.213  0.00  0.00    +0.005 C 
ENDBRANCH  10   7
ENDBRANCH   4  10
ENDBRANCH  15  11
TORSDOF 6
ENDMDL
MODEL 4
REMARK VINA RESULT:      -6.4      1.730      2.079
REMARK  Name = 26744182
REMARK  7 active torsions:
REMARK  status: ('A' for Active; 'I' for Inactive)
REMARK    1  A    between atoms: O_1  and  C_14
REMARK    2  A    between atoms: O_3  and  C_22
REMARK    3  A    between atoms: O_3  and  C_23
REMARK    4  A    between atoms: N_4  and  C_10
REMARK    5  A    between atoms: C_7  and  C_10
REMARK    6  A    between atoms: C_11  and  C_15
REMARK    7  A    between atoms: C_16  and  C_17
REMARK                            x       y       z     vdW  Elec       q    Type
REMARK                         _______ _______ _______ _____ _____    ______ ____
ROOT
ATOM      2  O   UNL     1      16.083   6.018  18.391  0.00  0.00    -0.336 OA
ATOM      5  N   UNL     1      16.790   7.162  20.182  0.00  0.00    -0.190 NA
ATOM      6  N   UNL     1      17.320   5.464  18.745  0.00  0.00    -0.056 NA
ATOM     15  C   UNL     1      15.846   7.012  19.287  0.00  0.00    +0.245 A 
ATOM     16  C   UNL     1      17.673   6.191  19.808  0.00  0.00    +0.202 A 
ENDROOT
BRANCH  16  17
ATOM     17  C   UNL     1      18.899   5.974  20.520  0.00  0.00    +0.023 A 
ATOM     18  C   UNL     1      19.203   6.748  21.638  0.00  0.00    +0.015 A 
ATOM     19  C   UNL     1      19.788   4.988  20.091  0.00  0.00    +0.015 A 
ATOM     20  C   UNL     1      20.397   6.537  22.329  0.00  0.00    +0.046 A 
ATOM     21  C   UNL     1      20.981   4.777  20.781  0.00  0.00    +0.046 A 
ATOM     22  C   UNL     1      21.286   5.552  21.900  0.00  0.00    +0.120 A 
BRANCH  22   3
ATOM      3  O   UNL     1      22.451   5.345  22.573  0.00  0.00    -0.495 OA
ATOM     23  C   UNL     1      22.594   5.992  23.837  0.00  0.00    +0.277 C 
ENDBRANCH  22   3
ENDBRANCH  16  17
BRANCH  15  11
ATOM      4  N   UNL     1      13.811   7.384  17.905  0.00  0.00    -0.289 NA
ATOM     11  C   UNL     1      14.551   7.778  19.120  0.00  0.00    +0.148 C 
ATOM     12  C   UNL     1      12.394   7.594  18.196  0.00  0.00    +0.116 C 
ATOM     13  C   UNL     1      13.564   7.540  20.277  0.00  0.00    +0.061 C 
ATOM     14  C   UNL     1      12.283   7.056  19.610  0.00  0.00    +0.130 C 
BRANCH  14   1
ATOM      1  O   UNL     1      11.145   7.566  20.278  0.00  0.00    -0.390 OA
ATOM     24  H   UNL     1      11.348   8.478  20.545  0.00  0.00    +0.210 HD
ENDBRANCH  14   1
BRANCH   4  10
ATOM     10  C   UNL     1      14.238   8.103  16.711  0.00  0.00    +0.088 C 
BRANCH  10   7
ATOM      7  C   UNL     1      13.935   9.562  16.819  0.00  0.00    +0.003 C 
ATOM      8  C   UNL     1      13.312  10.270  15.651  0.00  0.00    +0.005 C 
ATOM      9  C   UNL     1      14.742  10.539  16.015  0.00  0.00    +0.005 C 
ENDBRANCH  10   7
ENDBRANCH   4  10
ENDBRANCH  15  11
TORSDOF 6
ENDMDL
MODEL 5
REMARK VINA RESULT:      -6.3      1.489      2.097
REMARK  Name = 26744182
REMARK  7 active torsions:
REMARK  status: ('A' for Active; 'I' for Inactive)
REMARK    1  A    between atoms: O_1  and  C_14
REMARK    2  A    between atoms: O_3  and  C_22
REMARK    3  A    between atoms: O_3  and  C_23
REMARK    4  A    between atoms: N_4  and  C_10
REMARK    5  A    between atoms: C_7  and  C_10
REMARK    6  A    between atoms: C_11  and  C_15
REMARK    7  A    between atoms: C_16  and  C_17
REMARK                            x       y       z     vdW  Elec       q    Type
REMARK                         _______ _______ _______ _____ _____    ______ ____
ROOT
ATOM      2  O   UNL     1      14.638   6.831  19.439  0.00  0.00    -0.336 OA
ATOM      5  N   UNL     1      15.815   7.502  21.223  0.00  0.00    -0.190 NA
ATOM      6  N   UNL     1      15.918   6.283  19.291  0.00  0.00    -0.056 NA
ATOM     15  C   UNL     1      14.663   7.535  20.602  0.00  0.00    +0.245 A 
ATOM     16  C   UNL     1      16.553   6.723  20.380  0.00  0.00    +0.202 A 
ENDROOT
BRANCH  16  17
ATOM     17  C   UNL     1      17.924   6.403  20.657  0.00  0.00    +0.023 A 
ATOM     18  C   UNL     1      18.595   7.049  21.694  0.00  0.00    +0.015 A 
ATOM     19  C   UNL     1      18.585   5.447  19.886  0.00  0.00    +0.015 A 
ATOM     20  C   UNL     1      19.928   6.739  21.961  0.00  0.00    +0.046 A 
ATOM     21  C   UNL     1      19.918   5.137  20.153  0.00  0.00    +0.046 A 
ATOM     22  C   UNL     1      20.590   5.783  21.190  0.00  0.00    +0.120 A 
BRANCH  22   3
ATOM      3  O   UNL     1      21.892   5.480  21.450  0.00  0.00    -0.495 OA
ATOM     23  C   UNL     1      22.281   4.115  21.303  0.00  0.00    +0.277 C 
ENDBRANCH  22   3
ENDBRANCH  16  17
BRANCH  15  11
ATOM      4  N   UNL     1      12.636   8.756  19.833  0.00  0.00    -0.289 NA
ATOM     11  C   UNL     1      13.379   8.234  20.996  0.00  0.00    +0.148 C 
ATOM     12  C   UNL     1      11.221   8.737  20.201  0.00  0.00    +0.116 C 
ATOM     13  C   UNL     1      12.386   7.298  21.710  0.00  0.00    +0.061 C 
ATOM     14  C   UNL     1      11.100   7.395  20.899  0.00  0.00    +0.130 C 
BRANCH  14   1
ATOM      1  O   UNL     1       9.967   7.345  21.746  0.00  0.00    -0.390 OA
ATOM     24  H   UNL     1       9.363   8.054  21.469  0.00  0.00    +0.210 HD
ENDBRANCH  14   1
BRANCH   4  10
ATOM     10  C   UNL     1      13.075  10.082  19.417  0.00  0.00    +0.088 C 
BRANCH  10   7
ATOM      7  C   UNL     1      13.237  10.993  20.589  0.00  0.00    +0.003 C 
ATOM      8  C   UNL     1      12.462  12.278  20.632  0.00  0.00    +0.005 C 
ATOM      9  C   UNL     1      13.946  12.304  20.406  0.00  0.00    +0.005 C 
ENDBRANCH  10   7
ENDBRANCH   4  10
ENDBRANCH  15  11
TORSDOF 6
ENDMDL
MODEL 6
REMARK VINA RESULT:      -6.0     16.060     19.946
REMARK  Name = 26744182
REMARK  7 active torsions:
REMARK  status: ('A' for Active; 'I' for Inactive)
REMARK    1  A    between atoms: O_1  and  C_14
REMARK    2  A    between atoms: O_3  and  C_22
REMARK    3  A    between atoms: O_3  and  C_23
REMARK    4  A    between atoms: N_4  and  C_10
REMARK    5  A    between atoms: C_7  and  C_10
REMARK    6  A    between atoms: C_11  and  C_15
REMARK    7  A    between atoms: C_16  and  C_17
REMARK                            x       y       z     vdW  Elec       q    Type
REMARK                         _______ _______ _______ _____ _____    ______ ____
ROOT
ATOM      2  O   UNL     1      10.565   3.964   0.551  0.00  0.00    -0.336 OA
ATOM      5  N   UNL     1      11.688   4.705   2.341  0.00  0.00    -0.190 NA
ATOM      6  N   UNL     1       9.609   4.529   1.404  0.00  0.00    -0.056 NA
ATOM     15  C   UNL     1      11.762   4.109   1.178  0.00  0.00    +0.245 A 
ATOM     16  C   UNL     1      10.347   4.944   2.437  0.00  0.00    +0.202 A 
ENDROOT
BRANCH  16  17
ATOM     17  C   UNL     1       9.778   5.598   3.580  0.00  0.00    +0.023 A 
ATOM     18  C   UNL     1       9.763   4.955   4.816  0.00  0.00    +0.015 A 
ATOM     19  C   UNL     1       9.239   6.879   3.451  0.00  0.00    +0.015 A 
ATOM     20  C   UNL     1       9.208   5.592   5.926  0.00  0.00    +0.046 A 
ATOM     21  C   UNL     1       8.685   7.515   4.562  0.00  0.00    +0.046 A 
ATOM     22  C   UNL     1       8.668   6.872   5.799  0.00  0.00    +0.120 A 
BRANCH  22   3
ATOM      3  O   UNL     1       8.126   7.494   6.882  0.00  0.00    -0.495 OA
ATOM     23  C   UNL     1       8.970   7.670   8.019  0.00  0.00    +0.277 C 
ENDBRANCH  22   3
ENDBRANCH  16  17
BRANCH  15  11
ATOM      4  N   UNL     1      13.473   4.497  -0.587  0.00  0.00    -0.289 NA
ATOM     11  C   UNL     1      12.975   3.571   0.450  0.00  0.00    +0.148 C 
ATOM     12  C   UNL     1      14.913   4.267  -0.692  0.00  0.00    +0.116 C 
ATOM     13  C   UNL     1      14.178   3.343   1.384  0.00  0.00    +0.061 C 
ATOM     14  C   UNL     1      15.316   4.146   0.766  0.00  0.00    +0.130 C 
BRANCH  14   1
ATOM      1  O   UNL     1      16.548   3.466   0.915  0.00  0.00    -0.390 OA
ATOM     24  H   UNL     1      16.893   3.289   0.024  0.00  0.00    +0.210 HD
ENDBRANCH  14   1
BRANCH   4  10
ATOM     10  C   UNL     1      12.798   4.341  -1.869  0.00  0.00    +0.088 C 
BRANCH  10   7
ATOM      7  C   UNL     1      12.598   2.900  -2.206  0.00  0.00    +0.003 C 
ATOM      8  C   UNL     1      12.433   2.498  -3.643  0.00  0.00    +0.005 C 
ATOM      9  C   UNL     1      11.259   2.445  -2.710  0.00  0.00    +0.005 C 
ENDBRANCH  10   7
ENDBRANCH   4  10
ENDBRANCH  15  11
TORSDOF 6
ENDMDL
MODEL 7
REMARK VINA RESULT:      -6.0      2.355      8.780
REMARK  Name = 26744182
REMARK  7 active torsions:
REMARK  status: ('A' for Active; 'I' for Inactive)
REMARK    1  A    between atoms: O_1  and  C_14
REMARK    2  A    between atoms: O_3  and  C_22
REMARK    3  A    between atoms: O_3  and  C_23
REMARK    4  A    between atoms: N_4  and  C_10
REMARK    5  A    between atoms: C_7  and  C_10
REMARK    6  A    between atoms: C_11  and  C_15
REMARK    7  A    between atoms: C_16  and  C_17
REMARK                            x       y       z     vdW  Elec       q    Type
REMARK                         _______ _______ _______ _____ _____    ______ ____
ROOT
ATOM      2  O   UNL     1      18.414   5.932  19.406  0.00  0.00    -0.336 OA
ATOM      5  N   UNL     1      17.397   6.966  21.113  0.00  0.00    -0.190 NA
ATOM      6  N   UNL     1      17.051   5.968  19.084  0.00  0.00    -0.056 NA
ATOM     15  C   UNL     1      18.531   6.541  20.616  0.00  0.00    +0.245 A 
ATOM     16  C   UNL     1      16.518   6.592  20.138  0.00  0.00    +0.202 A 
ENDROOT
BRANCH  16  17
ATOM     17  C   UNL     1      15.113   6.857  20.249  0.00  0.00    +0.023 A 
ATOM     18  C   UNL     1      14.304   6.815  19.114  0.00  0.00    +0.015 A 
ATOM     19  C   UNL     1      14.557   7.159  21.492  0.00  0.00    +0.015 A 
ATOM     20  C   UNL     1      12.937   7.074  19.222  0.00  0.00    +0.046 A 
ATOM     21  C   UNL     1      13.190   7.418  21.600  0.00  0.00    +0.046 A 
ATOM     22  C   UNL     1      12.380   7.376  20.465  0.00  0.00    +0.120 A 
BRANCH  22   3
ATOM      3  O   UNL     1      11.047   7.629  20.571  0.00  0.00    -0.495 OA
ATOM     23  C   UNL     1      10.464   7.503  21.867  0.00  0.00    +0.277 C 
ENDBRANCH  22   3
ENDBRANCH  16  17
BRANCH  15  11
ATOM      4  N   UNL     1      20.928   5.916  20.379  0.00  0.00    -0.289 NA
ATOM     11  C   UNL     1      19.927   6.633  21.194  0.00  0.00    +0.148 C 
ATOM     12  C   UNL     1      22.197   6.615  20.570  0.00  0.00    +0.116 C 
ATOM     13  C   UNL     1      20.446   8.081  21.270  0.00  0.00    +0.061 C 
ATOM     14  C   UNL     1      21.764   8.068  20.507  0.00  0.00    +0.130 C 
BRANCH  14   1
ATOM      1  O   UNL     1      22.708   8.924  21.122  0.00  0.00    -0.390 OA
ATOM     24  H   UNL     1      23.592   8.563  20.940  0.00  0.00    +0.210 HD
ENDBRANCH  14   1
BRANCH   4  10
ATOM     10  C   UNL     1      21.028   4.499  20.706  0.00  0.00    +0.088 C 
BRANCH  10   7
ATOM      7  C   UNL     1      22.315   4.191  21.399  0.00  0.00    +0.003 C 
ATOM      8  C   UNL     1      22.972   2.861  21.172  0.00  0.00    +0.005 C 
ATOM      9  C   UNL     1      22.331   3.164  22.494  0.00  0.00    +0.005 C 
ENDBRANCH  10   7
ENDBRANCH   4  10
ENDBRANCH  15  11
TORSDOF 6
ENDMDL
MODEL 8
REMARK VINA RESULT:      -6.0      2.004      2.734
REMARK  Name = 26744182
REMARK  7 active torsions:
REMARK  status: ('A' for Active; 'I' for Inactive)
REMARK    1  A    between atoms: O_1  and  C_14
REMARK    2  A    between atoms: O_3  and  C_22
REMARK    3  A    between atoms: O_3  and  C_23
REMARK    4  A    between atoms: N_4  and  C_10
REMARK    5  A    between atoms: C_7  and  C_10
REMARK    6  A    between atoms: C_11  and  C_15
REMARK    7  A    between atoms: C_16  and  C_17
REMARK                            x       y       z     vdW  Elec       q    Type
REMARK                         _______ _______ _______ _____ _____    ______ ____
ROOT
ATOM      2  O   UNL     1      14.020   6.974  19.809  0.00  0.00    -0.336 OA
ATOM      5  N   UNL     1      15.692   8.435  19.511  0.00  0.00    -0.190 NA
ATOM      6  N   UNL     1      15.159   6.383  20.370  0.00  0.00    -0.056 NA
ATOM     15  C   UNL     1      14.421   8.179  19.324  0.00  0.00    +0.245 A 
ATOM     16  C   UNL     1      16.102   7.304  20.155  0.00  0.00    +0.202 A 
ENDROOT
BRANCH  16  17
ATOM     17  C   UNL     1      17.464   7.126  20.571  0.00  0.00    +0.023 A 
ATOM     18  C   UNL     1      18.211   6.059  20.074  0.00  0.00    +0.015 A 
ATOM     19  C   UNL     1      18.039   8.021  21.473  0.00  0.00    +0.015 A 
ATOM     20  C   UNL     1      19.534   5.885  20.480  0.00  0.00    +0.046 A 
ATOM     21  C   UNL     1      19.362   7.848  21.879  0.00  0.00    +0.046 A 
ATOM     22  C   UNL     1      20.110   6.779  21.383  0.00  0.00    +0.120 A 
BRANCH  22   3
ATOM      3  O   UNL     1      21.401   6.611  21.780  0.00  0.00    -0.495 OA
ATOM     23  C   UNL     1      21.622   6.300  23.155  0.00  0.00    +0.277 C 
ENDBRANCH  22   3
ENDBRANCH  16  17
BRANCH  15  11
ATOM      4  N   UNL     1      13.528   9.103  17.193  0.00  0.00    -0.289 NA
ATOM     11  C   UNL     1      13.359   9.027  18.658  0.00  0.00    +0.148 C 
ATOM     12  C   UNL     1      12.191   9.282  16.630  0.00  0.00    +0.116 C 
ATOM     13  C   UNL     1      11.938   8.470  18.861  0.00  0.00    +0.061 C 
ATOM     14  C   UNL     1      11.372   8.307  17.456  0.00  0.00    +0.130 C 
BRANCH  14   1
ATOM      1  O   UNL     1       9.994   8.626  17.430  0.00  0.00    -0.390 OA
ATOM     24  H   UNL     1       9.772   9.034  18.284  0.00  0.00    +0.210 HD
ENDBRANCH  14   1
BRANCH   4  10
ATOM     10  C   UNL     1      14.444  10.156  16.774  0.00  0.00    +0.088 C 
BRANCH  10   7
ATOM      7  C   UNL     1      13.925  11.507  17.145  0.00  0.00    +0.003 C 
ATOM      8  C   UNL     1      14.516  12.724  16.494  0.00  0.00    +0.005 C 
ATOM      9  C   UNL     1      14.798  12.435  17.939  0.00  0.00    +0.005 C 
ENDBRANCH  10   7
ENDBRANCH   4  10
ENDBRANCH  15  11
TORSDOF 6
ENDMDL
MODEL 9
REMARK VINA RESULT:      -5.9     13.655     17.095
REMARK  Name = 26744182
REMARK  7 active torsions:
REMARK  status: ('A' for Active; 'I' for Inactive)
REMARK    1  A    between atoms: O_1  and  C_14
REMARK    2  A    between atoms: O_3  and  C_22
REMARK    3  A    between atoms: O_3  and  C_23
REMARK    4  A    between atoms: N_4  and  C_10
REMARK    5  A    between atoms: C_7  and  C_10
REMARK    6  A    between atoms: C_11  and  C_15
REMARK    7  A    between atoms: C_16  and  C_17
REMARK                            x       y       z     vdW  Elec       q    Type
REMARK                         _______ _______ _______ _____ _____    ______ ____
ROOT
ATOM      2  O   UNL     1       9.975   4.515   4.755  0.00  0.00    -0.336 OA
ATOM      5  N   UNL     1      11.294   6.124   3.925  0.00  0.00    -0.190 NA
ATOM      6  N   UNL     1      10.667   3.937   3.684  0.00  0.00    -0.056 NA
ATOM     15  C   UNL     1      10.402   5.804   4.828  0.00  0.00    +0.245 A 
ATOM     16  C   UNL     1      11.424   4.947   3.246  0.00  0.00    +0.202 A 
ENDROOT
BRANCH  16  17
ATOM     17  C   UNL     1      12.320   4.815   2.133  0.00  0.00    +0.023 A 
ATOM     18  C   UNL     1      12.730   5.946   1.430  0.00  0.00    +0.015 A 
ATOM     19  C   UNL     1      12.779   3.553   1.756  0.00  0.00    +0.015 A 
ATOM     20  C   UNL     1      13.600   5.816   0.347  0.00  0.00    +0.046 A 
ATOM     21  C   UNL     1      13.649   3.423   0.673  0.00  0.00    +0.046 A 
ATOM     22  C   UNL     1      14.059   4.555  -0.032  0.00  0.00    +0.120 A 
BRANCH  22   3
ATOM      3  O   UNL     1      14.908   4.427  -1.088  0.00  0.00    -0.495 OA
ATOM     23  C   UNL     1      16.285   4.202  -0.791  0.00  0.00    +0.277 C 
ENDBRANCH  22   3
ENDBRANCH  16  17
BRANCH  15  11
ATOM      4  N   UNL     1      10.775   7.031   6.961  0.00  0.00    -0.289 NA
ATOM     11  C   UNL     1       9.795   6.655   5.923  0.00  0.00    +0.148 C 
ATOM     12  C   UNL     1      10.340   8.320   7.496  0.00  0.00    +0.116 C 
ATOM     13  C   UNL     1       9.244   7.994   5.399  0.00  0.00    +0.061 C 
ATOM     14  C   UNL     1       9.941   9.062   6.234  0.00  0.00    +0.130 C 
BRANCH  14   1
ATOM      1  O   UNL     1       9.061  10.135   6.512  0.00  0.00    -0.390 OA
ATOM     24  H   UNL     1       9.498  10.953   6.222  0.00  0.00    +0.210 HD
ENDBRANCH  14   1
BRANCH   4  10
ATOM     10  C   UNL     1      10.921   6.026   8.006  0.00  0.00    +0.088 C 
BRANCH  10   7
ATOM      7  C   UNL     1       9.606   5.407   8.351  0.00  0.00    +0.003 C 
ATOM      8  C   UNL     1       9.363   4.935   9.755  0.00  0.00    +0.005 C 
ATOM      9  C   UNL     1       9.544   3.937   8.650  0.00  0.00    +0.005 C 
ENDBRANCH  10   7
ENDBRANCH   4  10
ENDBRANCH  15  11
TORSDOF 6
ENDMDL
MODEL 10
REMARK VINA RESULT:      -5.9      3.595      6.154
REMARK  Name = 26744182
REMARK  7 active torsions:
REMARK  status: ('A' for Active; 'I' for Inactive)
REMARK    1  A    between atoms: O_1  and  C_14
REMARK    2  A    between atoms: O_3  and  C_22
REMARK    3  A    between atoms: O_3  and  C_23
REMARK    4  A    between atoms: N_4  and  C_10
REMARK    5  A    between atoms: C_7  and  C_10
REMARK    6  A    between atoms: C_11  and  C_15
REMARK    7  A    between atoms: C_16  and  C_17
REMARK                            x       y       z     vdW  Elec       q    Type
REMARK                         _______ _______ _______ _____ _____    ______ ____
ROOT
ATOM      2  O   UNL     1      12.837  10.458  19.372  0.00  0.00    -0.336 OA
ATOM      5  N   UNL     1      13.846   9.287  17.750  0.00  0.00    -0.190 NA
ATOM      6  N   UNL     1      13.555  11.387  18.609  0.00  0.00    -0.056 NA
ATOM     15  C   UNL     1      13.063   9.246  18.799  0.00  0.00    +0.245 A 
ATOM     16  C   UNL     1      14.122  10.621  17.673  0.00  0.00    +0.202 A 
ENDROOT
BRANCH  16  17
ATOM     17  C   UNL     1      14.971  11.156  16.648  0.00  0.00    +0.023 A 
ATOM     18  C   UNL     1      15.810  12.234  16.929  0.00  0.00    +0.015 A 
ATOM     19  C   UNL     1      14.955  10.599  15.369  0.00  0.00    +0.015 A 
ATOM     20  C   UNL     1      16.634  12.755  15.931  0.00  0.00    +0.046 A 
ATOM     21  C   UNL     1      15.778  11.120  14.371  0.00  0.00    +0.046 A 
ATOM     22  C   UNL     1      16.617  12.198  14.652  0.00  0.00    +0.120 A 
BRANCH  22   3
ATOM      3  O   UNL     1      17.420  12.706  13.677  0.00  0.00    -0.495 OA
ATOM     23  C   UNL     1      18.807  12.377  13.742  0.00  0.00    +0.277 C 
ENDBRANCH  22   3
ENDBRANCH  16  17
BRANCH  15  11
ATOM      4  N   UNL     1      13.136   7.540  20.610  0.00  0.00    -0.289 NA
ATOM     11  C   UNL     1      12.387   8.056  19.446  0.00  0.00    +0.148 C 
ATOM     12  C   UNL     1      12.146   6.958  21.515  0.00  0.00    +0.116 C 
ATOM     13  C   UNL     1      10.988   8.392  19.996  0.00  0.00    +0.061 C 
ATOM     14  C   UNL     1      11.034   7.989  21.465  0.00  0.00    +0.130 C 
BRANCH  14   1
ATOM      1  O   UNL     1       9.794   7.444  21.874  0.00  0.00    -0.390 OA
ATOM     24  H   UNL     1       9.913   7.089  22.772  0.00  0.00    +0.210 HD
ENDBRANCH  14   1
BRANCH   4  10
ATOM     10  C   UNL     1      14.175   6.585  20.248  0.00  0.00    +0.088 C 
BRANCH  10   7
ATOM      7  C   UNL     1      15.486   6.949  20.864  0.00  0.00    +0.003 C 
ATOM      8  C   UNL     1      16.295   8.064  20.267  0.00  0.00    +0.005 C 
ATOM      9  C   UNL     1      16.755   6.643  20.123  0.00  0.00    +0.005 C 
ENDBRANCH  10   7
ENDBRANCH   4  10
ENDBRANCH  15  11
TORSDOF 6
ENDMDL
