REMARK  Name = 51137886
REMARK  7 active torsions:
REMARK  status: ('A' for Active; 'I' for Inactive)
REMARK    1  A    between atoms: N_1  and  C_10
REMARK    2  A    between atoms: N_2  and  C_14
REMARK    3  A    between atoms: N_4  and  C_23
REMARK    4  A    between atoms: N_4  and  C_24
REMARK    5  A    between atoms: N_4  and  C_25
REMARK    6  A    between atoms: C_5  and  C_9
REMARK    7  A    between atoms: C_10  and  C_12
REMARK                            x       y       z     vdW  Elec       q    Type
REMARK                         _______ _______ _______ _____ _____    ______ ____
ROOT
ATOM      1  N   UNL     1      -0.760  -0.224  -0.138  0.00  0.00    -0.297 NA
ATOM      5  C   UNL     1       1.411  -0.502   0.704  0.00  0.00    +0.070 C 
ATOM      6  C   UNL     1       0.661   0.541   1.550  0.00  0.00    +0.028 C 
ATOM      7  C   UNL     1       0.575  -0.639  -0.575  0.00  0.00    +0.096 C 
ATOM      8  C   UNL     1      -0.532   0.955   0.699  0.00  0.00    +0.085 C 
ENDROOT
BRANCH   5   9
ATOM      2  N   UNL     1       3.806  -1.144   0.250  0.00  0.00    -0.330 N 
ATOM      3  N   UNL     1       3.370   1.034   0.329  0.00  0.00    -0.232 NA
ATOM      9  C   UNL     1       2.860  -0.173   0.428  0.00  0.00    +0.115 A 
ATOM     11  C   UNL     1       5.007  -0.521   0.021  0.00  0.00    +0.069 A 
ATOM     13  C   UNL     1       4.708   0.837   0.075  0.00  0.00    +0.089 A 
ATOM     14  C   UNL     1       3.585  -2.571   0.295  0.00  0.00    +0.150 C 
ATOM     15  C   UNL     1       6.289  -1.015  -0.221  0.00  0.00    +0.028 A 
ATOM     18  C   UNL     1       5.737   1.773  -0.122  0.00  0.00    +0.030 A 
ATOM     19  C   UNL     1       7.301  -0.070  -0.416  0.00  0.00    +0.002 A 
ATOM     22  C   UNL     1       7.033   1.300  -0.367  0.00  0.00    +0.002 A 
ENDBRANCH   5   9
BRANCH   1  10
ATOM     10  C   UNL     1      -1.649   0.054  -1.256  0.00  0.00    +0.119 C 
BRANCH  10  12
ATOM     12  C   UNL     1      -3.095   0.049  -0.836  0.00  0.00    -0.033 A 
ATOM     16  C   UNL     1      -3.751  -1.161  -0.608  0.00  0.00    +0.007 A 
ATOM     17  C   UNL     1      -3.779   1.254  -0.675  0.00  0.00    +0.007 A 
ATOM     20  C   UNL     1      -5.091  -1.166  -0.219  0.00  0.00    +0.023 A 
ATOM     21  C   UNL     1      -5.118   1.249  -0.286  0.00  0.00    +0.023 A 
ATOM     23  C   UNL     1      -5.774   0.040  -0.058  0.00  0.00    +0.029 A 
BRANCH  23   4
ATOM      4  N   UNL     1      -7.129   0.035   0.336  0.00  0.00    -0.336 N 
ATOM     24  C   UNL     1      -7.819  -1.216   0.576  0.00  0.00    +0.129 C 
ATOM     25  C   UNL     1      -7.845   1.282   0.513  0.00  0.00    +0.129 C 
ENDBRANCH  23   4
ENDBRANCH  10  12
ENDBRANCH   1  10
TORSDOF 4
