MODEL 1
REMARK VINA RESULT:      -7.3      0.000      0.000
REMARK  Name = 51137729
REMARK  5 active torsions:
REMARK  status: ('A' for Active; 'I' for Inactive)
REMARK    1  A    between atoms: O_3  and  C_20
REMARK    2  A    between atoms: O_3  and  C_26
REMARK    3  A    between atoms: C_7  and  C_11
REMARK    4  A    between atoms: C_12  and  C_13
REMARK    5  A    between atoms: C_14  and  C_17
REMARK                            x       y       z     vdW  Elec       q    Type
REMARK                         _______ _______ _______ _____ _____    ______ ____
ROOT
ATOM      2  O   UNL     1      14.891   6.987  18.151  0.00  0.00    -0.270 OA
ATOM      4  N   UNL     1      13.787   7.269  20.174  0.00  0.00    -0.297 N 
ATOM      7  C   UNL     1      12.292   7.972  21.888  0.00  0.00    +0.095 C 
ATOM      8  C   UNL     1      11.529   7.141  20.845  0.00  0.00    +0.033 C 
ATOM      9  C   UNL     1      13.749   7.575  21.605  0.00  0.00    +0.121 C 
ATOM     10  C   UNL     1      12.445   7.150  19.629  0.00  0.00    +0.109 C 
ATOM     12  C   UNL     1      14.909   7.174  19.366  0.00  0.00    +0.247 C 
ENDROOT
BRANCH  12  13
ATOM     13  C   UNL     1      16.224   7.323  20.006  0.00  0.00    +0.037 A 
ATOM     15  C   UNL     1      17.107   6.244  20.046  0.00  0.00    +0.016 A 
ATOM     16  C   UNL     1      16.589   8.543  20.577  0.00  0.00    +0.016 A 
ATOM     18  C   UNL     1      18.354   6.384  20.654  0.00  0.00    +0.046 A 
ATOM     19  C   UNL     1      17.836   8.683  21.185  0.00  0.00    +0.046 A 
ATOM     20  C   UNL     1      18.719   7.604  21.225  0.00  0.00    +0.120 A 
BRANCH  20   3
ATOM      3  O   UNL     1      19.936   7.741  21.818  0.00  0.00    -0.495 OA
ATOM     26  C   UNL     1      20.028   8.662  22.904  0.00  0.00    +0.277 C 
ENDBRANCH  20   3
ENDBRANCH  12  13
BRANCH   7  11
ATOM      1  O   UNL     1      11.637  10.095  22.934  0.00  0.00    -0.420 OA
ATOM      5  N   UNL     1      11.933  10.225  20.721  0.00  0.00    -0.112 NA
ATOM      6  N   UNL     1      11.570  11.478  21.177  0.00  0.00    -0.107 NA
ATOM     11  C   UNL     1      11.960   9.450  21.780  0.00  0.00    +0.222 A 
ATOM     14  C   UNL     1      11.408  11.355  22.474  0.00  0.00    +0.248 A 
BRANCH  14  17
ATOM     17  C   UNL     1      11.033  12.325  23.462  0.00  0.00    +0.038 A 
ATOM     21  C   UNL     1      10.553  13.573  23.067  0.00  0.00    +0.013 A 
ATOM     22  C   UNL     1      11.149  12.019  24.818  0.00  0.00    +0.013 A 
ATOM     23  C   UNL     1      10.189  14.517  24.028  0.00  0.00    +0.001 A 
ATOM     24  C   UNL     1      10.785  12.963  25.780  0.00  0.00    +0.001 A 
ATOM     25  C   UNL     1      10.304  14.211  25.384  0.00  0.00    +0.000 A 
ENDBRANCH  14  17
ENDBRANCH   7  11
TORSDOF 4
ENDMDL
MODEL 2
REMARK VINA RESULT:      -7.1      1.824      2.479
REMARK  Name = 51137729
REMARK  5 active torsions:
REMARK  status: ('A' for Active; 'I' for Inactive)
REMARK    1  A    between atoms: O_3  and  C_20
REMARK    2  A    between atoms: O_3  and  C_26
REMARK    3  A    between atoms: C_7  and  C_11
REMARK    4  A    between atoms: C_12  and  C_13
REMARK    5  A    between atoms: C_14  and  C_17
REMARK                            x       y       z     vdW  Elec       q    Type
REMARK                         _______ _______ _______ _____ _____    ______ ____
ROOT
ATOM      2  O   UNL     1      14.100   8.451  18.105  0.00  0.00    -0.270 OA
ATOM      4  N   UNL     1      13.004   8.145  20.129  0.00  0.00    -0.297 N 
ATOM      7  C   UNL     1      11.570   8.381  22.015  0.00  0.00    +0.095 C 
ATOM      8  C   UNL     1      10.735   8.042  20.770  0.00  0.00    +0.033 C 
ATOM      9  C   UNL     1      12.978   7.948  21.579  0.00  0.00    +0.121 C 
ATOM     10  C   UNL     1      11.664   8.366  19.607  0.00  0.00    +0.109 C 
ATOM     12  C   UNL     1      14.120   8.210  19.310  0.00  0.00    +0.247 C 
ENDROOT
BRANCH  12  13
ATOM     13  C   UNL     1      15.434   7.989  19.932  0.00  0.00    +0.037 A 
ATOM     15  C   UNL     1      15.998   6.713  19.937  0.00  0.00    +0.016 A 
ATOM     16  C   UNL     1      16.117   9.054  20.520  0.00  0.00    +0.016 A 
ATOM     18  C   UNL     1      17.243   6.501  20.527  0.00  0.00    +0.046 A 
ATOM     19  C   UNL     1      17.363   8.843  21.111  0.00  0.00    +0.046 A 
ATOM     20  C   UNL     1      17.926   7.567  21.115  0.00  0.00    +0.120 A 
BRANCH  20   3
ATOM      3  O   UNL     1      19.142   7.362  21.691  0.00  0.00    -0.495 OA
ATOM     26  C   UNL     1      19.950   6.319  21.146  0.00  0.00    +0.277 C 
ENDBRANCH  20   3
ENDBRANCH  12  13
BRANCH   7  11
ATOM      1  O   UNL     1      11.433  10.761  21.428  0.00  0.00    -0.420 OA
ATOM      5  N   UNL     1      11.231  10.351  23.617  0.00  0.00    -0.112 NA
ATOM      6  N   UNL     1      11.136  11.717  23.429  0.00  0.00    -0.107 NA
ATOM     11  C   UNL     1      11.403   9.834  22.423  0.00  0.00    +0.222 A 
ATOM     14  C   UNL     1      11.260  11.910  22.136  0.00  0.00    +0.248 A 
BRANCH  14  17
ATOM     17  C   UNL     1      11.241  13.123  21.370  0.00  0.00    +0.038 A 
ATOM     21  C   UNL     1      12.213  13.346  20.394  0.00  0.00    +0.013 A 
ATOM     22  C   UNL     1      10.252  14.078  21.601  0.00  0.00    +0.013 A 
ATOM     23  C   UNL     1      12.196  14.525  19.650  0.00  0.00    +0.001 A 
ATOM     24  C   UNL     1      10.235  15.258  20.856  0.00  0.00    +0.001 A 
ATOM     25  C   UNL     1      11.206  15.481  19.880  0.00  0.00    +0.000 A 
ENDBRANCH  14  17
ENDBRANCH   7  11
TORSDOF 4
ENDMDL
MODEL 3
REMARK VINA RESULT:      -7.1      3.201      7.619
REMARK  Name = 51137729
REMARK  5 active torsions:
REMARK  status: ('A' for Active; 'I' for Inactive)
REMARK    1  A    between atoms: O_3  and  C_20
REMARK    2  A    between atoms: O_3  and  C_26
REMARK    3  A    between atoms: C_7  and  C_11
REMARK    4  A    between atoms: C_12  and  C_13
REMARK    5  A    between atoms: C_14  and  C_17
REMARK                            x       y       z     vdW  Elec       q    Type
REMARK                         _______ _______ _______ _____ _____    ______ ____
ROOT
ATOM      2  O   UNL     1      14.206  10.444  23.034  0.00  0.00    -0.270 OA
ATOM      4  N   UNL     1      12.681   9.172  21.829  0.00  0.00    -0.297 N 
ATOM      7  C   UNL     1      11.650   7.750  20.223  0.00  0.00    +0.095 C 
ATOM      8  C   UNL     1      12.642   6.938  21.071  0.00  0.00    +0.033 C 
ATOM      9  C   UNL     1      11.425   8.991  21.100  0.00  0.00    +0.121 C 
ATOM     10  C   UNL     1      13.530   7.998  21.708  0.00  0.00    +0.109 C 
ATOM     12  C   UNL     1      13.109  10.310  22.495  0.00  0.00    +0.247 C 
ENDROOT
BRANCH  12  13
ATOM     13  C   UNL     1      12.185  11.453  22.551  0.00  0.00    +0.037 A 
ATOM     15  C   UNL     1      11.434  11.687  23.703  0.00  0.00    +0.016 A 
ATOM     16  C   UNL     1      12.058  12.303  21.453  0.00  0.00    +0.016 A 
ATOM     18  C   UNL     1      10.556  12.769  23.757  0.00  0.00    +0.046 A 
ATOM     19  C   UNL     1      11.182  13.386  21.507  0.00  0.00    +0.046 A 
ATOM     20  C   UNL     1      10.430  13.620  22.658  0.00  0.00    +0.120 A 
BRANCH  20   3
ATOM      3  O   UNL     1       9.575  14.677  22.710  0.00  0.00    -0.495 OA
ATOM     26  C   UNL     1       8.826  14.965  21.530  0.00  0.00    +0.277 C 
ENDBRANCH  20   3
ENDBRANCH  12  13
BRANCH   7  11
ATOM      1  O   UNL     1      12.851   9.162  18.613  0.00  0.00    -0.420 OA
ATOM      5  N   UNL     1      12.091   7.244  17.750  0.00  0.00    -0.112 NA
ATOM      6  N   UNL     1      12.742   7.935  16.746  0.00  0.00    -0.107 NA
ATOM     11  C   UNL     1      12.180   7.997  18.822  0.00  0.00    +0.222 A 
ATOM     14  C   UNL     1      13.169   9.049  17.295  0.00  0.00    +0.248 A 
BRANCH  14  17
ATOM     17  C   UNL     1      13.904  10.143  16.731  0.00  0.00    +0.038 A 
ATOM     21  C   UNL     1      14.563   9.986  15.511  0.00  0.00    +0.013 A 
ATOM     22  C   UNL     1      13.962  11.364  17.403  0.00  0.00    +0.013 A 
ATOM     23  C   UNL     1      15.279  11.050  14.963  0.00  0.00    +0.001 A 
ATOM     24  C   UNL     1      14.679  12.429  16.853  0.00  0.00    +0.001 A 
ATOM     25  C   UNL     1      15.336  12.272  15.634  0.00  0.00    +0.000 A 
ENDBRANCH  14  17
ENDBRANCH   7  11
TORSDOF 4
ENDMDL
MODEL 4
REMARK VINA RESULT:      -7.0     28.149     29.425
REMARK  Name = 51137729
REMARK  5 active torsions:
REMARK  status: ('A' for Active; 'I' for Inactive)
REMARK    1  A    between atoms: O_3  and  C_20
REMARK    2  A    between atoms: O_3  and  C_26
REMARK    3  A    between atoms: C_7  and  C_11
REMARK    4  A    between atoms: C_12  and  C_13
REMARK    5  A    between atoms: C_14  and  C_17
REMARK                            x       y       z     vdW  Elec       q    Type
REMARK                         _______ _______ _______ _____ _____    ______ ____
ROOT
ATOM      2  O   UNL     1      -4.487 -13.949  15.506  0.00  0.00    -0.270 OA
ATOM      4  N   UNL     1      -4.630 -12.143  16.959  0.00  0.00    -0.297 N 
ATOM      7  C   UNL     1      -5.257 -10.661  18.713  0.00  0.00    +0.095 C 
ATOM      8  C   UNL     1      -4.605 -11.919  19.308  0.00  0.00    +0.033 C 
ATOM      9  C   UNL     1      -4.781 -10.718  17.254  0.00  0.00    +0.121 C 
ATOM     10  C   UNL     1      -4.676 -12.937  18.177  0.00  0.00    +0.109 C 
ATOM     12  C   UNL     1      -4.539 -12.738  15.711  0.00  0.00    +0.247 C 
ENDROOT
BRANCH  12  13
ATOM     13  C   UNL     1      -4.516 -11.853  14.536  0.00  0.00    +0.037 A 
ATOM     15  C   UNL     1      -3.301 -11.363  14.056  0.00  0.00    +0.016 A 
ATOM     16  C   UNL     1      -5.708 -11.503  13.902  0.00  0.00    +0.016 A 
ATOM     18  C   UNL     1      -3.278 -10.523  12.943  0.00  0.00    +0.046 A 
ATOM     19  C   UNL     1      -5.685 -10.664  12.789  0.00  0.00    +0.046 A 
ATOM     20  C   UNL     1      -4.471 -10.173  12.309  0.00  0.00    +0.120 A 
BRANCH  20   3
ATOM      3  O   UNL     1      -4.450  -9.354  11.222  0.00  0.00    -0.495 OA
ATOM     26  C   UNL     1      -3.289  -9.405  10.394  0.00  0.00    +0.277 C 
ENDBRANCH  20   3
ENDBRANCH  12  13
BRANCH   7  11
ATOM      1  O   UNL     1      -7.496  -9.845  18.124  0.00  0.00    -0.420 OA
ATOM      5  N   UNL     1      -7.477 -11.307  19.816  0.00  0.00    -0.112 NA
ATOM      6  N   UNL     1      -8.789 -10.932  19.590  0.00  0.00    -0.107 NA
ATOM     11  C   UNL     1      -6.759 -10.648  18.937  0.00  0.00    +0.222 A 
ATOM     14  C   UNL     1      -8.752 -10.078  18.594  0.00  0.00    +0.248 A 
BRANCH  14  17
ATOM     17  C   UNL     1      -9.809  -9.366  17.938  0.00  0.00    +0.038 A 
ATOM     21  C   UNL     1     -11.122  -9.831  18.025  0.00  0.00    +0.013 A 
ATOM     22  C   UNL     1      -9.525  -8.209  17.212  0.00  0.00    +0.013 A 
ATOM     23  C   UNL     1     -12.150  -9.139  17.386  0.00  0.00    +0.001 A 
ATOM     24  C   UNL     1     -10.555  -7.517  16.573  0.00  0.00    +0.001 A 
ATOM     25  C   UNL     1     -11.867  -7.981  16.661  0.00  0.00    +0.000 A 
ENDBRANCH  14  17
ENDBRANCH   7  11
TORSDOF 4
ENDMDL
MODEL 5
REMARK VINA RESULT:      -6.8     17.535     21.189
REMARK  Name = 51137729
REMARK  5 active torsions:
REMARK  status: ('A' for Active; 'I' for Inactive)
REMARK    1  A    between atoms: O_3  and  C_20
REMARK    2  A    between atoms: O_3  and  C_26
REMARK    3  A    between atoms: C_7  and  C_11
REMARK    4  A    between atoms: C_12  and  C_13
REMARK    5  A    between atoms: C_14  and  C_17
REMARK                            x       y       z     vdW  Elec       q    Type
REMARK                         _______ _______ _______ _____ _____    ______ ____
ROOT
ATOM      2  O   UNL     1       8.416   7.234   3.916  0.00  0.00    -0.270 OA
ATOM      4  N   UNL     1      10.688   7.062   3.462  0.00  0.00    -0.297 N 
ATOM      7  C   UNL     1      12.791   6.612   2.443  0.00  0.00    +0.095 C 
ATOM      8  C   UNL     1      12.053   7.701   1.648  0.00  0.00    +0.033 C 
ATOM      9  C   UNL     1      12.053   6.649   3.790  0.00  0.00    +0.121 C 
ATOM     10  C   UNL     1      10.606   7.568   2.101  0.00  0.00    +0.109 C 
ATOM     12  C   UNL     1       9.560   6.940   4.259  0.00  0.00    +0.247 C 
ENDROOT
BRANCH  12  13
ATOM     13  C   UNL     1       9.740   6.403   5.616  0.00  0.00    +0.037 A 
ATOM     15  C   UNL     1       9.975   7.270   6.683  0.00  0.00    +0.016 A 
ATOM     16  C   UNL     1       9.678   5.027   5.837  0.00  0.00    +0.016 A 
ATOM     18  C   UNL     1      10.148   6.762   7.971  0.00  0.00    +0.046 A 
ATOM     19  C   UNL     1       9.850   4.519   7.124  0.00  0.00    +0.046 A 
ATOM     20  C   UNL     1      10.086   5.386   8.191  0.00  0.00    +0.120 A 
BRANCH  20   3
ATOM      3  O   UNL     1      10.253   4.889   9.447  0.00  0.00    -0.495 OA
ATOM     26  C   UNL     1       9.073   4.535  10.167  0.00  0.00    +0.277 C 
ENDBRANCH  20   3
ENDBRANCH  12  13
BRANCH   7  11
ATOM      1  O   UNL     1      12.798   5.334   0.346  0.00  0.00    -0.420 OA
ATOM      5  N   UNL     1      12.789   4.063   2.187  0.00  0.00    -0.112 NA
ATOM      6  N   UNL     1      12.793   3.224   1.089  0.00  0.00    -0.107 NA
ATOM     11  C   UNL     1      12.793   5.284   1.706  0.00  0.00    +0.222 A 
ATOM     14  C   UNL     1      12.799   4.009   0.037  0.00  0.00    +0.248 A 
BRANCH  14  17
ATOM     17  C   UNL     1      12.804   3.692  -1.362  0.00  0.00    +0.038 A 
ATOM     21  C   UNL     1      13.592   4.434  -2.242  0.00  0.00    +0.013 A 
ATOM     22  C   UNL     1      12.020   2.643  -1.842  0.00  0.00    +0.013 A 
ATOM     23  C   UNL     1      13.596   4.126  -3.603  0.00  0.00    +0.001 A 
ATOM     24  C   UNL     1      12.024   2.336  -3.204  0.00  0.00    +0.001 A 
ATOM     25  C   UNL     1      12.813   3.077  -4.083  0.00  0.00    +0.000 A 
ENDBRANCH  14  17
ENDBRANCH   7  11
TORSDOF 4
ENDMDL
MODEL 6
REMARK VINA RESULT:      -6.6     18.304     21.028
REMARK  Name = 51137729
REMARK  5 active torsions:
REMARK  status: ('A' for Active; 'I' for Inactive)
REMARK    1  A    between atoms: O_3  and  C_20
REMARK    2  A    between atoms: O_3  and  C_26
REMARK    3  A    between atoms: C_7  and  C_11
REMARK    4  A    between atoms: C_12  and  C_13
REMARK    5  A    between atoms: C_14  and  C_17
REMARK                            x       y       z     vdW  Elec       q    Type
REMARK                         _______ _______ _______ _____ _____    ______ ____
ROOT
ATOM      2  O   UNL     1      15.395   3.585   0.229  0.00  0.00    -0.270 OA
ATOM      4  N   UNL     1      13.840   5.189   0.866  0.00  0.00    -0.297 N 
ATOM      7  C   UNL     1      12.318   6.537   2.103  0.00  0.00    +0.095 C 
ATOM      8  C   UNL     1      13.752   6.797   2.590  0.00  0.00    +0.033 C 
ATOM      9  C   UNL     1      12.561   5.888   0.732  0.00  0.00    +0.121 C 
ATOM     10  C   UNL     1      14.536   5.597   2.076  0.00  0.00    +0.109 C 
ATOM     12  C   UNL     1      14.346   4.198   0.039  0.00  0.00    +0.247 C 
ENDROOT
BRANCH  12  13
ATOM     13  C   UNL     1      13.563   3.842  -1.153  0.00  0.00    +0.037 A 
ATOM     15  C   UNL     1      12.546   2.892  -1.062  0.00  0.00    +0.016 A 
ATOM     16  C   UNL     1      13.837   4.452  -2.378  0.00  0.00    +0.016 A 
ATOM     18  C   UNL     1      11.803   2.552  -2.192  0.00  0.00    +0.046 A 
ATOM     19  C   UNL     1      13.094   4.113  -3.508  0.00  0.00    +0.046 A 
ATOM     20  C   UNL     1      12.078   3.163  -3.416  0.00  0.00    +0.120 A 
BRANCH  20   3
ATOM      3  O   UNL     1      11.353   2.833  -4.520  0.00  0.00    -0.495 OA
ATOM     26  C   UNL     1      11.419   3.726  -5.631  0.00  0.00    +0.277 C 
ENDBRANCH  20   3
ENDBRANCH  12  13
BRANCH   7  11
ATOM      1  O   UNL     1      11.182   6.340   4.271  0.00  0.00    -0.420 OA
ATOM      5  N   UNL     1      11.106   4.479   3.033  0.00  0.00    -0.112 NA
ATOM      6  N   UNL     1      10.434   4.232   4.215  0.00  0.00    -0.107 NA
ATOM     11  C   UNL     1      11.524   5.721   3.109  0.00  0.00    +0.222 A 
ATOM     14  C   UNL     1      10.504   5.346   4.907  0.00  0.00    +0.248 A 
BRANCH  14  17
ATOM     17  C   UNL     1       9.986   5.670   6.204  0.00  0.00    +0.038 A 
ATOM     21  C   UNL     1       9.420   6.924   6.436  0.00  0.00    +0.013 A 
ATOM     22  C   UNL     1      10.051   4.732   7.235  0.00  0.00    +0.013 A 
ATOM     23  C   UNL     1       8.918   7.239   7.698  0.00  0.00    +0.001 A 
ATOM     24  C   UNL     1       9.548   5.049   8.498  0.00  0.00    +0.001 A 
ATOM     25  C   UNL     1       8.981   6.301   8.729  0.00  0.00    +0.000 A 
ENDBRANCH  14  17
ENDBRANCH   7  11
TORSDOF 4
ENDMDL
MODEL 7
REMARK VINA RESULT:      -6.5     27.385     29.254
REMARK  Name = 51137729
REMARK  5 active torsions:
REMARK  status: ('A' for Active; 'I' for Inactive)
REMARK    1  A    between atoms: O_3  and  C_20
REMARK    2  A    between atoms: O_3  and  C_26
REMARK    3  A    between atoms: C_7  and  C_11
REMARK    4  A    between atoms: C_12  and  C_13
REMARK    5  A    between atoms: C_14  and  C_17
REMARK                            x       y       z     vdW  Elec       q    Type
REMARK                         _______ _______ _______ _____ _____    ______ ____
ROOT
ATOM      2  O   UNL     1      -5.845 -13.360  11.364  0.00  0.00    -0.270 OA
ATOM      4  N   UNL     1      -3.808 -12.391  11.919  0.00  0.00    -0.297 N 
ATOM      7  C   UNL     1      -1.855 -11.669  13.072  0.00  0.00    +0.095 C 
ATOM      8  C   UNL     1      -1.819 -13.195  12.900  0.00  0.00    +0.033 C 
ATOM      9  C   UNL     1      -2.890 -11.255  12.015  0.00  0.00    +0.121 C 
ATOM     10  C   UNL     1      -3.263 -13.562  12.586  0.00  0.00    +0.109 C 
ATOM     12  C   UNL     1      -5.076 -12.400  11.359  0.00  0.00    +0.247 C 
ENDROOT
BRANCH  12  13
ATOM     13  C   UNL     1      -5.546 -11.163  10.719  0.00  0.00    +0.037 A 
ATOM     15  C   UNL     1      -6.228 -10.205  11.470  0.00  0.00    +0.016 A 
ATOM     16  C   UNL     1      -5.313 -10.945   9.361  0.00  0.00    +0.016 A 
ATOM     18  C   UNL     1      -6.676  -9.031  10.864  0.00  0.00    +0.046 A 
ATOM     19  C   UNL     1      -5.760  -9.772   8.755  0.00  0.00    +0.046 A 
ATOM     20  C   UNL     1      -6.442  -8.815   9.506  0.00  0.00    +0.120 A 
BRANCH  20   3
ATOM      3  O   UNL     1      -6.878  -7.669   8.914  0.00  0.00    -0.495 OA
ATOM     26  C   UNL     1      -8.265  -7.594   8.589  0.00  0.00    +0.277 C 
ENDBRANCH  20   3
ENDBRANCH  12  13
BRANCH   7  11
ATOM      1  O   UNL     1      -3.464 -11.093  14.835  0.00  0.00    -0.420 OA
ATOM      5  N   UNL     1      -1.332 -11.072  15.508  0.00  0.00    -0.112 NA
ATOM      6  N   UNL     1      -2.124 -10.733  16.589  0.00  0.00    -0.107 NA
ATOM     11  C   UNL     1      -2.156 -11.273  14.507  0.00  0.00    +0.222 A 
ATOM     14  C   UNL     1      -3.361 -10.758  16.150  0.00  0.00    +0.248 A 
BRANCH  14  17
ATOM     17  C   UNL     1      -4.596 -10.492  16.828  0.00  0.00    +0.038 A 
ATOM     21  C   UNL     1      -5.609  -9.784  16.181  0.00  0.00    +0.013 A 
ATOM     22  C   UNL     1      -4.783 -10.939  18.136  0.00  0.00    +0.013 A 
ATOM     23  C   UNL     1      -6.809  -9.524  16.841  0.00  0.00    +0.001 A 
ATOM     24  C   UNL     1      -5.985 -10.678  18.797  0.00  0.00    +0.001 A 
ATOM     25  C   UNL     1      -6.998  -9.972  18.149  0.00  0.00    +0.000 A 
ENDBRANCH  14  17
ENDBRANCH   7  11
TORSDOF 4
ENDMDL
MODEL 8
REMARK VINA RESULT:      -6.5     15.397     18.000
REMARK  Name = 51137729
REMARK  5 active torsions:
REMARK  status: ('A' for Active; 'I' for Inactive)
REMARK    1  A    between atoms: O_3  and  C_20
REMARK    2  A    between atoms: O_3  and  C_26
REMARK    3  A    between atoms: C_7  and  C_11
REMARK    4  A    between atoms: C_12  and  C_13
REMARK    5  A    between atoms: C_14  and  C_17
REMARK                            x       y       z     vdW  Elec       q    Type
REMARK                         _______ _______ _______ _____ _____    ______ ____
ROOT
ATOM      2  O   UNL     1       9.643   6.692   1.672  0.00  0.00    -0.270 OA
ATOM      4  N   UNL     1       9.776   6.143   3.925  0.00  0.00    -0.297 N 
ATOM      7  C   UNL     1       9.807   6.229   6.303  0.00  0.00    +0.095 C 
ATOM      8  C   UNL     1       8.389   6.529   5.794  0.00  0.00    +0.033 C 
ATOM      9  C   UNL     1      10.444   5.548   5.082  0.00  0.00    +0.121 C 
ATOM     10  C   UNL     1       8.595   6.890   4.329  0.00  0.00    +0.109 C 
ATOM     12  C   UNL     1      10.198   6.114   2.605  0.00  0.00    +0.247 C 
ENDROOT
BRANCH  12  13
ATOM     13  C   UNL     1      11.412   5.345   2.296  0.00  0.00    +0.037 A 
ATOM     15  C   UNL     1      12.643   5.995   2.194  0.00  0.00    +0.016 A 
ATOM     16  C   UNL     1      11.335   3.965   2.102  0.00  0.00    +0.016 A 
ATOM     18  C   UNL     1      13.795   5.266   1.899  0.00  0.00    +0.046 A 
ATOM     19  C   UNL     1      12.487   3.237   1.808  0.00  0.00    +0.046 A 
ATOM     20  C   UNL     1      13.717   3.886   1.706  0.00  0.00    +0.120 A 
BRANCH  20   3
ATOM      3  O   UNL     1      14.841   3.174   1.420  0.00  0.00    -0.495 OA
ATOM     26  C   UNL     1      15.790   3.784   0.546  0.00  0.00    +0.277 C 
ENDBRANCH  20   3
ENDBRANCH  12  13
BRANCH   7  11
ATOM      1  O   UNL     1      11.767   7.704   6.391  0.00  0.00    -0.420 OA
ATOM      5  N   UNL     1      10.045   8.406   7.633  0.00  0.00    -0.112 NA
ATOM      6  N   UNL     1      11.072   9.320   7.772  0.00  0.00    -0.107 NA
ATOM     11  C   UNL     1      10.495   7.481   6.818  0.00  0.00    +0.222 A 
ATOM     14  C   UNL     1      12.057   8.871   7.029  0.00  0.00    +0.248 A 
BRANCH  14  17
ATOM     17  C   UNL     1      13.365   9.407   6.792  0.00  0.00    +0.038 A 
ATOM     21  C   UNL     1      13.607  10.768   6.986  0.00  0.00    +0.013 A 
ATOM     22  C   UNL     1      14.396   8.569   6.367  0.00  0.00    +0.013 A 
ATOM     23  C   UNL     1      14.879  11.290   6.754  0.00  0.00    +0.001 A 
ATOM     24  C   UNL     1      15.669   9.093   6.136  0.00  0.00    +0.001 A 
ATOM     25  C   UNL     1      15.910  10.452   6.330  0.00  0.00    +0.000 A 
ENDBRANCH  14  17
ENDBRANCH   7  11
TORSDOF 4
ENDMDL
MODEL 9
REMARK VINA RESULT:      -6.5     14.415     17.382
REMARK  Name = 51137729
REMARK  5 active torsions:
REMARK  status: ('A' for Active; 'I' for Inactive)
REMARK    1  A    between atoms: O_3  and  C_20
REMARK    2  A    between atoms: O_3  and  C_26
REMARK    3  A    between atoms: C_7  and  C_11
REMARK    4  A    between atoms: C_12  and  C_13
REMARK    5  A    between atoms: C_14  and  C_17
REMARK                            x       y       z     vdW  Elec       q    Type
REMARK                         _______ _______ _______ _____ _____    ______ ____
ROOT
ATOM      2  O   UNL     1       9.899   8.791   4.596  0.00  0.00    -0.270 OA
ATOM      4  N   UNL     1      11.769   9.319   5.867  0.00  0.00    -0.297 N 
ATOM      7  C   UNL     1      13.970   9.885   6.576  0.00  0.00    +0.095 C 
ATOM      8  C   UNL     1      13.352  11.068   5.814  0.00  0.00    +0.033 C 
ATOM      9  C   UNL     1      12.727   9.061   6.944  0.00  0.00    +0.121 C 
ATOM     10  C   UNL     1      12.192  10.444   5.049  0.00  0.00    +0.109 C 
ATOM     12  C   UNL     1      10.637   8.581   5.556  0.00  0.00    +0.247 C 
ENDROOT
BRANCH  12  13
ATOM     13  C   UNL     1      10.299   7.451   6.434  0.00  0.00    +0.037 A 
ATOM     15  C   UNL     1      10.760   6.170   6.131  0.00  0.00    +0.016 A 
ATOM     16  C   UNL     1       9.515   7.658   7.570  0.00  0.00    +0.016 A 
ATOM     18  C   UNL     1      10.439   5.097   6.962  0.00  0.00    +0.046 A 
ATOM     19  C   UNL     1       9.194   6.586   8.401  0.00  0.00    +0.046 A 
ATOM     20  C   UNL     1       9.655   5.305   8.097  0.00  0.00    +0.120 A 
BRANCH  20   3
ATOM      3  O   UNL     1       9.342   4.259   8.910  0.00  0.00    -0.495 OA
ATOM     26  C   UNL     1       8.948   4.570  10.246  0.00  0.00    +0.277 C 
ENDBRANCH  20   3
ENDBRANCH  12  13
BRANCH   7  11
ATOM      1  O   UNL     1      16.304   9.208   6.232  0.00  0.00    -0.420 OA
ATOM      5  N   UNL     1      14.914   8.531   4.617  0.00  0.00    -0.112 NA
ATOM      6  N   UNL     1      16.183   8.085   4.301  0.00  0.00    -0.107 NA
ATOM     11  C   UNL     1      15.032   9.180   5.751  0.00  0.00    +0.222 A 
ATOM     14  C   UNL     1      16.962   8.503   5.271  0.00  0.00    +0.248 A 
BRANCH  14  17
ATOM     17  C   UNL     1      18.373   8.337   5.471  0.00  0.00    +0.038 A 
ATOM     21  C   UNL     1      19.165   7.814   4.448  0.00  0.00    +0.013 A 
ATOM     22  C   UNL     1      18.952   8.696   6.688  0.00  0.00    +0.013 A 
ATOM     23  C   UNL     1      20.536   7.651   4.643  0.00  0.00    +0.001 A 
ATOM     24  C   UNL     1      20.324   8.532   6.882  0.00  0.00    +0.001 A 
ATOM     25  C   UNL     1      21.116   8.011   5.860  0.00  0.00    +0.000 A 
ENDBRANCH  14  17
ENDBRANCH   7  11
TORSDOF 4
ENDMDL
MODEL 10
REMARK VINA RESULT:      -6.4     15.291     18.934
REMARK  Name = 51137729
REMARK  5 active torsions:
REMARK  status: ('A' for Active; 'I' for Inactive)
REMARK    1  A    between atoms: O_3  and  C_20
REMARK    2  A    between atoms: O_3  and  C_26
REMARK    3  A    between atoms: C_7  and  C_11
REMARK    4  A    between atoms: C_12  and  C_13
REMARK    5  A    between atoms: C_14  and  C_17
REMARK                            x       y       z     vdW  Elec       q    Type
REMARK                         _______ _______ _______ _____ _____    ______ ____
ROOT
ATOM      2  O   UNL     1       9.018   8.865   4.724  0.00  0.00    -0.270 OA
ATOM      4  N   UNL     1      11.270   9.052   5.261  0.00  0.00    -0.297 N 
ATOM      7  C   UNL     1      13.639   9.256   5.155  0.00  0.00    +0.095 C 
ATOM      8  C   UNL     1      12.987  10.550   4.647  0.00  0.00    +0.033 C 
ATOM      9  C   UNL     1      12.489   8.607   5.939  0.00  0.00    +0.121 C 
ATOM     10  C   UNL     1      11.553  10.140   4.338  0.00  0.00    +0.109 C 
ATOM     12  C   UNL     1      10.002   8.505   5.369  0.00  0.00    +0.247 C 
ENDROOT
BRANCH  12  13
ATOM     13  C   UNL     1       9.817   7.397   6.318  0.00  0.00    +0.037 A 
ATOM     15  C   UNL     1      10.091   6.088   5.924  0.00  0.00    +0.016 A 
ATOM     16  C   UNL     1       9.367   7.654   7.614  0.00  0.00    +0.016 A 
ATOM     18  C   UNL     1       9.915   5.036   6.823  0.00  0.00    +0.046 A 
ATOM     19  C   UNL     1       9.191   6.603   8.513  0.00  0.00    +0.046 A 
ATOM     20  C   UNL     1       9.465   5.294   8.118  0.00  0.00    +0.120 A 
BRANCH  20   3
ATOM      3  O   UNL     1       9.294   4.268   8.996  0.00  0.00    -0.495 OA
ATOM     26  C   UNL     1       8.916   4.612  10.329  0.00  0.00    +0.277 C 
ENDBRANCH  20   3
ENDBRANCH  12  13
BRANCH   7  11
ATOM      1  O   UNL     1      13.574   7.300   3.672  0.00  0.00    -0.420 OA
ATOM      5  N   UNL     1      15.301   8.669   3.295  0.00  0.00    -0.112 NA
ATOM      6  N   UNL     1      15.385   7.620   2.398  0.00  0.00    -0.107 NA
ATOM     11  C   UNL     1      14.229   8.441   4.017  0.00  0.00    +0.222 A 
ATOM     14  C   UNL     1      14.356   6.846   2.655  0.00  0.00    +0.248 A 
BRANCH  14  17
ATOM     17  C   UNL     1      13.938   5.619   2.042  0.00  0.00    +0.038 A 
ATOM     21  C   UNL     1      14.851   4.858   1.310  0.00  0.00    +0.013 A 
ATOM     22  C   UNL     1      12.619   5.186   2.176  0.00  0.00    +0.013 A 
ATOM     23  C   UNL     1      14.444   3.666   0.713  0.00  0.00    +0.001 A 
ATOM     24  C   UNL     1      12.213   3.992   1.578  0.00  0.00    +0.001 A 
ATOM     25  C   UNL     1      13.125   3.232   0.848  0.00  0.00    +0.000 A 
ENDBRANCH  14  17
ENDBRANCH   7  11
TORSDOF 4
ENDMDL
