MODEL 1
REMARK VINA RESULT:      -8.4      0.000      0.000
REMARK  Name = 51136861
REMARK  6 active torsions:
REMARK  status: ('A' for Active; 'I' for Inactive)
REMARK    1  A    between atoms: N_5  and  C_15
REMARK    2  A    between atoms: N_7  and  C_26
REMARK    3  A    between atoms: C_11  and  C_16
REMARK    4  A    between atoms: C_15  and  C_17
REMARK    5  A    between atoms: C_22  and  C_27
REMARK    6  A    between atoms: C_32  and  C_34
REMARK                            x       y       z     vdW  Elec       q    Type
REMARK                         _______ _______ _______ _____ _____    ______ ____
ROOT
ATOM      4  O   UNL     1      15.011   8.813  19.812  0.00  0.00    -0.336 OA
ATOM      8  N   UNL     1      15.894   6.872  19.128  0.00  0.00    -0.190 NA
ATOM      9  N   UNL     1      16.199   8.650  20.535  0.00  0.00    -0.056 NA
ATOM     16  C   UNL     1      14.907   7.723  19.007  0.00  0.00    +0.245 A 
ATOM     22  C   UNL     1      16.663   7.483  20.076  0.00  0.00    +0.204 A 
ENDROOT
BRANCH  22  27
ATOM      6  N   UNL     1      21.406   5.163  21.820  0.00  0.00    -0.313 N 
ATOM      7  N   UNL     1      23.905   3.948  22.478  0.00  0.00    -0.302 NA
ATOM     10  N   UNL     1      19.626   5.247  20.261  0.00  0.00    -0.240 NA
ATOM     18  C   UNL     1      21.624   3.737  21.550  0.00  0.00    +0.122 C 
ATOM     19  C   UNL     1      22.617   5.983  21.919  0.00  0.00    +0.122 C 
ATOM     20  C   UNL     1      22.666   3.162  22.513  0.00  0.00    +0.103 C 
ATOM     21  C   UNL     1      23.629   5.335  22.869  0.00  0.00    +0.103 C 
ATOM     23  C   UNL     1      20.212   5.742  21.375  0.00  0.00    +0.121 A 
ATOM     26  C   UNL     1      24.911   3.357  23.361  0.00  0.00    +0.105 C 
ATOM     27  C   UNL     1      17.886   6.901  20.544  0.00  0.00    +0.041 A 
ATOM     28  C   UNL     1      19.704   6.798  22.115  0.00  0.00    +0.044 A 
ATOM     31  C   UNL     1      18.518   7.383  21.686  0.00  0.00    +0.016 A 
ATOM     33  C   UNL     1      18.475   5.841  19.875  0.00  0.00    +0.124 A 
ENDBRANCH  22  27
BRANCH  16  11
ATOM      5  N   UNL     1      12.619   8.581  18.541  0.00  0.00    -0.287 NA
ATOM     11  C   UNL     1      13.688   7.659  18.111  0.00  0.00    +0.146 C 
ATOM     12  C   UNL     1      13.996   8.065  16.659  0.00  0.00    +0.030 C 
ATOM     13  C   UNL     1      13.010   9.181  16.341  0.00  0.00    +0.017 C 
ATOM     14  C   UNL     1      11.886   8.957  17.332  0.00  0.00    +0.085 C 
BRANCH   5  15
ATOM     15  C   UNL     1      11.744   8.014  19.559  0.00  0.00    +0.120 C 
BRANCH  15  17
ATOM     17  C   UNL     1      11.597   8.928  20.746  0.00  0.00    -0.033 A 
ATOM     24  C   UNL     1      11.032   8.450  21.929  0.00  0.00    +0.005 A 
ATOM     25  C   UNL     1      12.026  10.252  20.663  0.00  0.00    +0.005 A 
ATOM     29  C   UNL     1      10.897   9.297  23.028  0.00  0.00    +0.012 A 
ATOM     30  C   UNL     1      11.890  11.099  21.764  0.00  0.00    +0.012 A 
ATOM     32  C   UNL     1      11.326  10.621  22.946  0.00  0.00    +0.055 A 
BRANCH  32  34
ATOM      1  F   UNL     1      10.935  10.866  25.293  0.00  0.00    -0.166 F 
ATOM      2  F   UNL     1      10.160  12.415  23.981  0.00  0.00    -0.166 F 
ATOM      3  F   UNL     1      12.295  12.281  24.370  0.00  0.00    -0.166 F 
ATOM     34  C   UNL     1      11.184  11.525  24.123  0.00  0.00    +0.417 C 
ENDBRANCH  32  34
ENDBRANCH  15  17
ENDBRANCH   5  15
ENDBRANCH  16  11
TORSDOF 5
ENDMDL
MODEL 2
REMARK VINA RESULT:      -7.9     27.695     31.822
REMARK  Name = 51136861
REMARK  6 active torsions:
REMARK  status: ('A' for Active; 'I' for Inactive)
REMARK    1  A    between atoms: N_5  and  C_15
REMARK    2  A    between atoms: N_7  and  C_26
REMARK    3  A    between atoms: C_11  and  C_16
REMARK    4  A    between atoms: C_15  and  C_17
REMARK    5  A    between atoms: C_22  and  C_27
REMARK    6  A    between atoms: C_32  and  C_34
REMARK                            x       y       z     vdW  Elec       q    Type
REMARK                         _______ _______ _______ _____ _____    ______ ____
ROOT
ATOM      4  O   UNL     1     -15.055   3.825  24.359  0.00  0.00    -0.336 OA
ATOM      8  N   UNL     1     -15.745   4.396  22.305  0.00  0.00    -0.190 NA
ATOM      9  N   UNL     1     -14.091   4.706  23.855  0.00  0.00    -0.056 NA
ATOM     16  C   UNL     1     -15.993   3.697  23.384  0.00  0.00    +0.245 A 
ATOM     22  C   UNL     1     -14.568   4.999  22.641  0.00  0.00    +0.204 A 
ENDROOT
BRANCH  22  27
ATOM      6  N   UNL     1     -12.032   8.480  19.123  0.00  0.00    -0.313 N 
ATOM      7  N   UNL     1     -10.892  10.441  17.387  0.00  0.00    -0.302 NA
ATOM     10  N   UNL     1     -14.022   7.685  20.130  0.00  0.00    -0.240 NA
ATOM     18  C   UNL     1     -12.770   8.929  17.935  0.00  0.00    +0.122 C 
ATOM     19  C   UNL     1     -11.021   9.411  19.632  0.00  0.00    +0.122 C 
ATOM     20  C   UNL     1     -11.801   9.418  16.856  0.00  0.00    +0.103 C 
ATOM     21  C   UNL     1     -10.109   9.886  18.497  0.00  0.00    +0.103 C 
ATOM     23  C   UNL     1     -12.678   7.607  20.006  0.00  0.00    +0.121 A 
ATOM     26  C   UNL     1     -10.009  10.939  16.333  0.00  0.00    +0.105 C 
ATOM     27  C   UNL     1     -13.893   5.887  21.741  0.00  0.00    +0.041 A 
ATOM     28  C   UNL     1     -11.884   6.711  20.705  0.00  0.00    +0.044 A 
ATOM     31  C   UNL     1     -12.511   5.837  21.586  0.00  0.00    +0.016 A 
ATOM     33  C   UNL     1     -14.595   6.820  20.996  0.00  0.00    +0.124 A 
ENDBRANCH  22  27
BRANCH  16  11
ATOM      5  N   UNL     1     -17.422   2.655  25.135  0.00  0.00    -0.287 NA
ATOM     11  C   UNL     1     -17.162   2.782  23.687  0.00  0.00    +0.146 C 
ATOM     12  C   UNL     1     -18.487   3.293  23.094  0.00  0.00    +0.030 C 
ATOM     13  C   UNL     1     -19.448   3.364  24.272  0.00  0.00    +0.017 C 
ATOM     14  C   UNL     1     -18.855   2.397  25.276  0.00  0.00    +0.085 C 
BRANCH   5  15
ATOM     15  C   UNL     1     -16.613   1.628  25.778  0.00  0.00    +0.120 C 
BRANCH  15  17
ATOM     17  C   UNL     1     -16.326   1.959  27.218  0.00  0.00    -0.033 A 
ATOM     24  C   UNL     1     -16.348   0.951  28.183  0.00  0.00    +0.005 A 
ATOM     25  C   UNL     1     -16.037   3.272  27.587  0.00  0.00    +0.005 A 
ATOM     29  C   UNL     1     -16.081   1.258  29.517  0.00  0.00    +0.012 A 
ATOM     30  C   UNL     1     -15.771   3.578  28.923  0.00  0.00    +0.012 A 
ATOM     32  C   UNL     1     -15.793   2.571  29.887  0.00  0.00    +0.055 A 
BRANCH  32  34
ATOM      1  F   UNL     1     -15.329   1.797  32.102  0.00  0.00    -0.166 F 
ATOM      2  F   UNL     1     -16.508   3.611  31.901  0.00  0.00    -0.166 F 
ATOM      3  F   UNL     1     -14.375   3.644  31.486  0.00  0.00    -0.166 F 
ATOM     34  C   UNL     1     -15.506   2.897  31.312  0.00  0.00    +0.417 C 
ENDBRANCH  32  34
ENDBRANCH  15  17
ENDBRANCH   5  15
ENDBRANCH  16  11
TORSDOF 5
ENDMDL
MODEL 3
REMARK VINA RESULT:      -7.8     29.687     32.982
REMARK  Name = 51136861
REMARK  6 active torsions:
REMARK  status: ('A' for Active; 'I' for Inactive)
REMARK    1  A    between atoms: N_5  and  C_15
REMARK    2  A    between atoms: N_7  and  C_26
REMARK    3  A    between atoms: C_11  and  C_16
REMARK    4  A    between atoms: C_15  and  C_17
REMARK    5  A    between atoms: C_22  and  C_27
REMARK    6  A    between atoms: C_32  and  C_34
REMARK                            x       y       z     vdW  Elec       q    Type
REMARK                         _______ _______ _______ _____ _____    ______ ____
ROOT
ATOM      4  O   UNL     1     -16.730   2.232  23.911  0.00  0.00    -0.336 OA
ATOM      8  N   UNL     1     -17.723   3.744  25.232  0.00  0.00    -0.190 NA
ATOM      9  N   UNL     1     -16.066   2.169  25.142  0.00  0.00    -0.056 NA
ATOM     16  C   UNL     1     -17.690   3.184  24.049  0.00  0.00    +0.245 A 
ATOM     22  C   UNL     1     -16.709   3.089  25.868  0.00  0.00    +0.204 A 
ENDROOT
BRANCH  22  27
ATOM      6  N   UNL     1     -15.411   4.296  31.140  0.00  0.00    -0.313 N 
ATOM      7  N   UNL     1     -14.973   5.009  33.870  0.00  0.00    -0.302 NA
ATOM     10  N   UNL     1     -16.506   4.875  29.122  0.00  0.00    -0.240 NA
ATOM     18  C   UNL     1     -15.286   5.708  31.520  0.00  0.00    +0.122 C 
ATOM     19  C   UNL     1     -15.822   3.384  32.211  0.00  0.00    +0.122 C 
ATOM     20  C   UNL     1     -14.443   5.848  32.789  0.00  0.00    +0.103 C 
ATOM     21  C   UNL     1     -14.962   3.600  33.460  0.00  0.00    +0.103 C 
ATOM     23  C   UNL     1     -15.742   3.999  29.812  0.00  0.00    +0.121 A 
ATOM     26  C   UNL     1     -14.192   5.194  35.093  0.00  0.00    +0.105 C 
ATOM     27  C   UNL     1     -16.362   3.379  27.228  0.00  0.00    +0.041 A 
ATOM     28  C   UNL     1     -15.258   2.811  29.288  0.00  0.00    +0.044 A 
ATOM     31  C   UNL     1     -15.578   2.502  27.971  0.00  0.00    +0.016 A 
ATOM     33  C   UNL     1     -16.796   4.541  27.845  0.00  0.00    +0.124 A 
ENDBRANCH  22  27
BRANCH  16  11
ATOM      5  N   UNL     1     -17.790   3.965  21.689  0.00  0.00    -0.287 NA
ATOM     11  C   UNL     1     -18.559   3.446  22.838  0.00  0.00    +0.146 C 
ATOM     12  C   UNL     1     -19.242   2.173  22.308  0.00  0.00    +0.030 C 
ATOM     13  C   UNL     1     -18.848   2.091  20.840  0.00  0.00    +0.017 C 
ATOM     14  C   UNL     1     -18.494   3.520  20.486  0.00  0.00    +0.085 C 
BRANCH   5  15
ATOM     15  C   UNL     1     -17.616   5.412  21.720  0.00  0.00    +0.120 C 
BRANCH  15  17
ATOM     17  C   UNL     1     -16.186   5.809  21.470  0.00  0.00    -0.033 A 
ATOM     24  C   UNL     1     -15.894   6.828  20.561  0.00  0.00    +0.005 A 
ATOM     25  C   UNL     1     -15.153   5.160  22.146  0.00  0.00    +0.005 A 
ATOM     29  C   UNL     1     -14.568   7.196  20.330  0.00  0.00    +0.012 A 
ATOM     30  C   UNL     1     -13.827   5.530  21.914  0.00  0.00    +0.012 A 
ATOM     32  C   UNL     1     -13.536   6.547  21.006  0.00  0.00    +0.055 A 
BRANCH  32  34
ATOM      1  F   UNL     1     -11.724   6.786  19.463  0.00  0.00    -0.166 F 
ATOM      2  F   UNL     1     -11.234   6.218  21.503  0.00  0.00    -0.166 F 
ATOM      3  F   UNL     1     -11.859   8.252  21.055  0.00  0.00    -0.166 F 
ATOM     34  C   UNL     1     -12.120   6.944  20.760  0.00  0.00    +0.417 C 
ENDBRANCH  32  34
ENDBRANCH  15  17
ENDBRANCH   5  15
ENDBRANCH  16  11
TORSDOF 5
ENDMDL
MODEL 4
REMARK VINA RESULT:      -7.5     27.562     29.819
REMARK  Name = 51136861
REMARK  6 active torsions:
REMARK  status: ('A' for Active; 'I' for Inactive)
REMARK    1  A    between atoms: N_5  and  C_15
REMARK    2  A    between atoms: N_7  and  C_26
REMARK    3  A    between atoms: C_11  and  C_16
REMARK    4  A    between atoms: C_15  and  C_17
REMARK    5  A    between atoms: C_22  and  C_27
REMARK    6  A    between atoms: C_32  and  C_34
REMARK                            x       y       z     vdW  Elec       q    Type
REMARK                         _______ _______ _______ _____ _____    ______ ____
ROOT
ATOM      4  O   UNL     1     -12.300  11.611  19.201  0.00  0.00    -0.336 OA
ATOM      8  N   UNL     1     -11.236  10.371  20.733  0.00  0.00    -0.190 NA
ATOM      9  N   UNL     1     -12.991  11.800  20.404  0.00  0.00    -0.056 NA
ATOM     16  C   UNL     1     -11.282  10.756  19.483  0.00  0.00    +0.245 A 
ATOM     22  C   UNL     1     -12.304  11.038  21.259  0.00  0.00    +0.204 A 
ENDROOT
BRANCH  22  27
ATOM      6  N   UNL     1     -13.618  10.647  26.649  0.00  0.00    -0.313 N 
ATOM      7  N   UNL     1     -14.283  10.693  29.426  0.00  0.00    -0.302 NA
ATOM     10  N   UNL     1     -12.397  11.702  24.915  0.00  0.00    -0.240 NA
ATOM     18  C   UNL     1     -12.604  11.025  27.642  0.00  0.00    +0.122 C 
ATOM     19  C   UNL     1     -15.012  10.821  27.067  0.00  0.00    +0.122 C 
ATOM     20  C   UNL     1     -12.914  10.382  28.995  0.00  0.00    +0.103 C 
ATOM     21  C   UNL     1     -15.244  10.185  28.440  0.00  0.00    +0.103 C 
ATOM     23  C   UNL     1     -13.281  10.751  25.294  0.00  0.00    +0.121 A 
ATOM     26  C   UNL     1     -14.548  10.119  30.745  0.00  0.00    +0.105 C 
ATOM     27  C   UNL     1     -12.657  10.919  22.643  0.00  0.00    +0.041 A 
ATOM     28  C   UNL     1     -13.886   9.862  24.420  0.00  0.00    +0.044 A 
ATOM     31  C   UNL     1     -13.563   9.953  23.071  0.00  0.00    +0.016 A 
ATOM     33  C   UNL     1     -12.108  11.760  23.596  0.00  0.00    +0.124 A 
ENDBRANCH  22  27
BRANCH  16  11
ATOM      5  N   UNL     1     -11.020   9.471  17.367  0.00  0.00    -0.287 NA
ATOM     11  C   UNL     1     -10.373  10.386  18.329  0.00  0.00    +0.146 C 
ATOM     12  C   UNL     1      -9.952  11.604  17.489  0.00  0.00    +0.030 C 
ATOM     13  C   UNL     1     -10.348  11.258  16.060  0.00  0.00    +0.017 C 
ATOM     14  C   UNL     1     -10.413   9.745  16.065  0.00  0.00    +0.085 C 
BRANCH   5  15
ATOM     15  C   UNL     1     -10.908   8.068  17.742  0.00  0.00    +0.120 C 
BRANCH  15  17
ATOM     17  C   UNL     1     -11.911   7.686  18.796  0.00  0.00    -0.033 A 
ATOM     24  C   UNL     1     -11.488   7.050  19.964  0.00  0.00    +0.005 A 
ATOM     25  C   UNL     1     -13.264   7.968  18.607  0.00  0.00    +0.005 A 
ATOM     29  C   UNL     1     -12.418   6.697  20.941  0.00  0.00    +0.012 A 
ATOM     30  C   UNL     1     -14.194   7.615  19.585  0.00  0.00    +0.012 A 
ATOM     32  C   UNL     1     -13.771   6.979  20.752  0.00  0.00    +0.055 A 
BRANCH  32  34
ATOM      1  F   UNL     1     -14.281   6.703  23.073  0.00  0.00    -0.166 F 
ATOM      2  F   UNL     1     -15.199   5.317  21.673  0.00  0.00    -0.166 F 
ATOM      3  F   UNL     1     -15.892   7.375  21.784  0.00  0.00    -0.166 F 
ATOM     34  C   UNL     1     -14.764   6.604  21.799  0.00  0.00    +0.417 C 
ENDBRANCH  32  34
ENDBRANCH  15  17
ENDBRANCH   5  15
ENDBRANCH  16  11
TORSDOF 5
ENDMDL
MODEL 5
REMARK VINA RESULT:      -7.4      5.293      9.590
REMARK  Name = 51136861
REMARK  6 active torsions:
REMARK  status: ('A' for Active; 'I' for Inactive)
REMARK    1  A    between atoms: N_5  and  C_15
REMARK    2  A    between atoms: N_7  and  C_26
REMARK    3  A    between atoms: C_11  and  C_16
REMARK    4  A    between atoms: C_15  and  C_17
REMARK    5  A    between atoms: C_22  and  C_27
REMARK    6  A    between atoms: C_32  and  C_34
REMARK                            x       y       z     vdW  Elec       q    Type
REMARK                         _______ _______ _______ _____ _____    ______ ____
ROOT
ATOM      4  O   UNL     1      12.963  10.691  19.588  0.00  0.00    -0.336 OA
ATOM      8  N   UNL     1      13.245   9.611  17.646  0.00  0.00    -0.190 NA
ATOM      9  N   UNL     1      13.588  11.599  18.724  0.00  0.00    -0.056 NA
ATOM     16  C   UNL     1      12.798   9.546  18.874  0.00  0.00    +0.245 A 
ATOM     22  C   UNL     1      13.721  10.889  17.599  0.00  0.00    +0.204 A 
ENDROOT
BRANCH  22  27
ATOM      6  N   UNL     1      16.010  12.910  12.952  0.00  0.00    -0.313 N 
ATOM      7  N   UNL     1      16.963  13.926  10.459  0.00  0.00    -0.302 NA
ATOM     10  N   UNL     1      14.499  11.421  14.004  0.00  0.00    -0.240 NA
ATOM     18  C   UNL     1      16.143  12.016  11.795  0.00  0.00    +0.122 C 
ATOM     19  C   UNL     1      15.871  14.336  12.639  0.00  0.00    +0.122 C 
ATOM     20  C   UNL     1      17.220  12.532  10.840  0.00  0.00    +0.103 C 
ATOM     21  C   UNL     1      16.957  14.778  11.654  0.00  0.00    +0.103 C 
ATOM     23  C   UNL     1      15.429  12.396  14.117  0.00  0.00    +0.121 A 
ATOM     26  C   UNL     1      17.968  14.391   9.503  0.00  0.00    +0.105 C 
ATOM     27  C   UNL     1      14.324  11.425  16.415  0.00  0.00    +0.041 A 
ATOM     28  C   UNL     1      15.852  12.929  15.325  0.00  0.00    +0.044 A 
ATOM     31  C   UNL     1      15.285  12.429  16.491  0.00  0.00    +0.016 A 
ATOM     33  C   UNL     1      13.970  10.960  15.159  0.00  0.00    +0.124 A 
ENDBRANCH  22  27
BRANCH  16  11
ATOM      5  N   UNL     1      13.074   7.641  20.451  0.00  0.00    -0.287 NA
ATOM     11  C   UNL     1      12.134   8.392  19.595  0.00  0.00    +0.146 C 
ATOM     12  C   UNL     1      11.016   8.850  20.549  0.00  0.00    +0.030 C 
ATOM     13  C   UNL     1      11.382   8.259  21.904  0.00  0.00    +0.017 C 
ATOM     14  C   UNL     1      12.282   7.092  21.552  0.00  0.00    +0.085 C 
BRANCH   5  15
ATOM     15  C   UNL     1      13.806   6.606  19.732  0.00  0.00    +0.120 C 
BRANCH  15  17
ATOM     17  C   UNL     1      15.272   6.619  20.070  0.00  0.00    -0.033 A 
ATOM     24  C   UNL     1      16.209   6.196  19.125  0.00  0.00    +0.005 A 
ATOM     25  C   UNL     1      15.695   7.053  21.325  0.00  0.00    +0.005 A 
ATOM     29  C   UNL     1      17.568   6.209  19.438  0.00  0.00    +0.012 A 
ATOM     30  C   UNL     1      17.055   7.065  21.638  0.00  0.00    +0.012 A 
ATOM     32  C   UNL     1      17.991   6.643  20.694  0.00  0.00    +0.055 A 
BRANCH  32  34
ATOM      1  F   UNL     1      20.188   5.796  20.273  0.00  0.00    -0.166 F 
ATOM      2  F   UNL     1      19.691   6.315  22.323  0.00  0.00    -0.166 F 
ATOM      3  F   UNL     1      20.032   7.880  20.853  0.00  0.00    -0.166 F 
ATOM     34  C   UNL     1      19.444   6.659  21.026  0.00  0.00    +0.417 C 
ENDBRANCH  32  34
ENDBRANCH  15  17
ENDBRANCH   5  15
ENDBRANCH  16  11
TORSDOF 5
ENDMDL
MODEL 6
REMARK VINA RESULT:      -7.4      6.167     12.124
REMARK  Name = 51136861
REMARK  6 active torsions:
REMARK  status: ('A' for Active; 'I' for Inactive)
REMARK    1  A    between atoms: N_5  and  C_15
REMARK    2  A    between atoms: N_7  and  C_26
REMARK    3  A    between atoms: C_11  and  C_16
REMARK    4  A    between atoms: C_15  and  C_17
REMARK    5  A    between atoms: C_22  and  C_27
REMARK    6  A    between atoms: C_32  and  C_34
REMARK                            x       y       z     vdW  Elec       q    Type
REMARK                         _______ _______ _______ _____ _____    ______ ____
ROOT
ATOM      4  O   UNL     1      20.881   6.086  23.084  0.00  0.00    -0.336 OA
ATOM      8  N   UNL     1      20.409   5.712  20.926  0.00  0.00    -0.190 NA
ATOM      9  N   UNL     1      19.569   6.536  22.888  0.00  0.00    -0.056 NA
ATOM     16  C   UNL     1      21.301   5.617  21.879  0.00  0.00    +0.245 A 
ATOM     22  C   UNL     1      19.363   6.281  21.593  0.00  0.00    +0.204 A 
ENDROOT
BRANCH  22  27
ATOM      6  N   UNL     1      14.591   7.404  18.967  0.00  0.00    -0.313 N 
ATOM      7  N   UNL     1      12.136   7.744  17.547  0.00  0.00    -0.302 NA
ATOM     10  N   UNL     1      16.665   6.264  19.036  0.00  0.00    -0.240 NA
ATOM     18  C   UNL     1      14.579   7.369  17.499  0.00  0.00    +0.122 C 
ATOM     19  C   UNL     1      13.316   7.091  19.620  0.00  0.00    +0.122 C 
ATOM     20  C   UNL     1      13.404   8.184  16.953  0.00  0.00    +0.103 C 
ATOM     21  C   UNL     1      12.181   7.914  19.004  0.00  0.00    +0.103 C 
ATOM     23  C   UNL     1      15.794   7.117  19.621  0.00  0.00    +0.121 A 
ATOM     26  C   UNL     1      11.016   8.492  16.977  0.00  0.00    +0.105 C 
ATOM     27  C   UNL     1      18.127   6.585  20.934  0.00  0.00    +0.041 A 
ATOM     28  C   UNL     1      16.015   7.733  20.843  0.00  0.00    +0.044 A 
ATOM     31  C   UNL     1      17.205   7.458  21.505  0.00  0.00    +0.016 A 
ATOM     33  C   UNL     1      17.811   6.021  19.710  0.00  0.00    +0.124 A 
ENDBRANCH  22  27
BRANCH  16  11
ATOM      5  N   UNL     1      22.947   4.232  20.628  0.00  0.00    -0.287 NA
ATOM     11  C   UNL     1      22.710   5.066  21.824  0.00  0.00    +0.146 C 
ATOM     12  C   UNL     1      23.779   6.171  21.748  0.00  0.00    +0.030 C 
ATOM     13  C   UNL     1      24.606   5.841  20.513  0.00  0.00    +0.017 C 
ATOM     14  C   UNL     1      24.370   4.358  20.312  0.00  0.00    +0.085 C 
BRANCH   5  15
ATOM     15  C   UNL     1      22.546   2.842  20.807  0.00  0.00    +0.120 C 
BRANCH  15  17
ATOM     17  C   UNL     1      23.495   2.096  21.706  0.00  0.00    -0.033 A 
ATOM     24  C   UNL     1      23.391   2.228  23.092  0.00  0.00    +0.005 A 
ATOM     25  C   UNL     1      24.476   1.273  21.155  0.00  0.00    +0.005 A 
ATOM     29  C   UNL     1      24.270   1.536  23.924  0.00  0.00    +0.012 A 
ATOM     30  C   UNL     1      25.355   0.581  21.989  0.00  0.00    +0.012 A 
ATOM     32  C   UNL     1      25.252   0.713  23.374  0.00  0.00    +0.055 A 
BRANCH  32  34
ATOM      1  F   UNL     1      25.867   0.056  25.590  0.00  0.00    -0.166 F 
ATOM      2  F   UNL     1      27.472   0.424  24.172  0.00  0.00    -0.166 F 
ATOM      3  F   UNL     1      26.253  -1.368  24.000  0.00  0.00    -0.166 F 
ATOM     34  C   UNL     1      26.189  -0.029  24.265  0.00  0.00    +0.417 C 
ENDBRANCH  32  34
ENDBRANCH  15  17
ENDBRANCH   5  15
ENDBRANCH  16  11
TORSDOF 5
ENDMDL
MODEL 7
REMARK VINA RESULT:      -7.3     27.878     30.884
REMARK  Name = 51136861
REMARK  6 active torsions:
REMARK  status: ('A' for Active; 'I' for Inactive)
REMARK    1  A    between atoms: N_5  and  C_15
REMARK    2  A    between atoms: N_7  and  C_26
REMARK    3  A    between atoms: C_11  and  C_16
REMARK    4  A    between atoms: C_15  and  C_17
REMARK    5  A    between atoms: C_22  and  C_27
REMARK    6  A    between atoms: C_32  and  C_34
REMARK                            x       y       z     vdW  Elec       q    Type
REMARK                         _______ _______ _______ _____ _____    ______ ____
ROOT
ATOM      4  O   UNL     1      -2.285  -9.968  11.223  0.00  0.00    -0.336 OA
ATOM      8  N   UNL     1      -4.271 -10.973  10.977  0.00  0.00    -0.190 NA
ATOM      9  N   UNL     1      -2.981  -9.224  10.263  0.00  0.00    -0.056 NA
ATOM     16  C   UNL     1      -3.115 -10.979  11.591  0.00  0.00    +0.245 A 
ATOM     22  C   UNL     1      -4.144  -9.878  10.173  0.00  0.00    +0.204 A 
ENDROOT
BRANCH  22  27
ATOM      6  N   UNL     1      -8.252  -8.219   6.812  0.00  0.00    -0.313 N 
ATOM      7  N   UNL     1     -10.322  -7.137   5.169  0.00  0.00    -0.302 NA
ATOM     10  N   UNL     1      -7.107  -8.046   8.878  0.00  0.00    -0.240 NA
ATOM     18  C   UNL     1      -9.498  -7.737   7.421  0.00  0.00    +0.122 C 
ATOM     19  C   UNL     1      -7.926  -7.653   5.499  0.00  0.00    +0.122 C 
ATOM     20  C   UNL     1     -10.653  -7.829   6.421  0.00  0.00    +0.103 C 
ATOM     21  C   UNL     1      -9.133  -7.745   4.561  0.00  0.00    +0.103 C 
ATOM     23  C   UNL     1      -7.221  -8.631   7.664  0.00  0.00    +0.121 A 
ATOM     26  C   UNL     1     -11.454  -7.184   4.243  0.00  0.00    +0.105 C 
ATOM     27  C   UNL     1      -5.194  -9.466   9.290  0.00  0.00    +0.041 A 
ATOM     28  C   UNL     1      -6.373  -9.625   7.199  0.00  0.00    +0.044 A 
ATOM     31  C   UNL     1      -5.344 -10.045   8.034  0.00  0.00    +0.016 A 
ATOM     33  C   UNL     1      -6.094  -8.480   9.660  0.00  0.00    +0.124 A 
ENDBRANCH  22  27
BRANCH  16  11
ATOM      5  N   UNL     1      -3.373 -11.911  13.884  0.00  0.00    -0.287 NA
ATOM     11  C   UNL     1      -2.587 -11.941  12.635  0.00  0.00    +0.146 C 
ATOM     12  C   UNL     1      -2.640 -13.408  12.173  0.00  0.00    +0.030 C 
ATOM     13  C   UNL     1      -3.425 -14.137  13.255  0.00  0.00    +0.017 C 
ATOM     14  C   UNL     1      -3.267 -13.247  14.471  0.00  0.00    +0.085 C 
BRANCH   5  15
ATOM     15  C   UNL     1      -2.945 -10.870  14.809  0.00  0.00    +0.120 C 
BRANCH  15  17
ATOM     17  C   UNL     1      -3.795 -10.839  16.051  0.00  0.00    -0.033 A 
ATOM     24  C   UNL     1      -5.079 -10.295  16.003  0.00  0.00    +0.005 A 
ATOM     25  C   UNL     1      -3.299 -11.353  17.248  0.00  0.00    +0.005 A 
ATOM     29  C   UNL     1      -5.866 -10.267  17.154  0.00  0.00    +0.012 A 
ATOM     30  C   UNL     1      -4.087 -11.325  18.399  0.00  0.00    +0.012 A 
ATOM     32  C   UNL     1      -5.371 -10.782  18.352  0.00  0.00    +0.055 A 
BRANCH  32  34
ATOM      1  F   UNL     1      -6.306  -9.518  20.154  0.00  0.00    -0.166 F 
ATOM      2  F   UNL     1      -5.742 -11.577  20.561  0.00  0.00    -0.166 F 
ATOM      3  F   UNL     1      -7.506 -11.144  19.367  0.00  0.00    -0.166 F 
ATOM     34  C   UNL     1      -6.214 -10.754  19.581  0.00  0.00    +0.417 C 
ENDBRANCH  32  34
ENDBRANCH  15  17
ENDBRANCH   5  15
ENDBRANCH  16  11
TORSDOF 5
ENDMDL
MODEL 8
REMARK VINA RESULT:      -7.3     14.560     16.239
REMARK  Name = 51136861
REMARK  6 active torsions:
REMARK  status: ('A' for Active; 'I' for Inactive)
REMARK    1  A    between atoms: N_5  and  C_15
REMARK    2  A    between atoms: N_7  and  C_26
REMARK    3  A    between atoms: C_11  and  C_16
REMARK    4  A    between atoms: C_15  and  C_17
REMARK    5  A    between atoms: C_22  and  C_27
REMARK    6  A    between atoms: C_32  and  C_34
REMARK                            x       y       z     vdW  Elec       q    Type
REMARK                         _______ _______ _______ _____ _____    ______ ____
ROOT
ATOM      4  O   UNL     1      10.632  10.204   5.868  0.00  0.00    -0.336 OA
ATOM      8  N   UNL     1      11.844   9.570   4.094  0.00  0.00    -0.190 NA
ATOM      9  N   UNL     1      11.943  10.034   6.332  0.00  0.00    -0.056 NA
ATOM     16  C   UNL     1      10.662   9.911   4.542  0.00  0.00    +0.245 A 
ATOM     22  C   UNL     1      12.598   9.661   5.229  0.00  0.00    +0.204 A 
ENDROOT
BRANCH  22  27
ATOM      6  N   UNL     1      18.053   8.586   5.141  0.00  0.00    -0.313 N 
ATOM      7  N   UNL     1      20.890   8.272   5.035  0.00  0.00    -0.302 NA
ATOM     10  N   UNL     1      16.178   9.711   4.232  0.00  0.00    -0.240 NA
ATOM     18  C   UNL     1      18.751   8.630   3.850  0.00  0.00    +0.122 C 
ATOM     19  C   UNL     1      18.871   8.905   6.315  0.00  0.00    +0.122 C 
ATOM     20  C   UNL     1      20.051   7.826   3.916  0.00  0.00    +0.103 C 
ATOM     21  C   UNL     1      20.169   8.093   6.301  0.00  0.00    +0.103 C 
ATOM     23  C   UNL     1      16.681   8.861   5.156  0.00  0.00    +0.121 A 
ATOM     26  C   UNL     1      22.153   7.535   5.055  0.00  0.00    +0.105 C 
ATOM     27  C   UNL     1      14.001   9.369   5.225  0.00  0.00    +0.041 A 
ATOM     28  C   UNL     1      15.920   8.237   6.131  0.00  0.00    +0.044 A 
ATOM     31  C   UNL     1      14.555   8.500   6.159  0.00  0.00    +0.016 A 
ATOM     33  C   UNL     1      14.848   9.943   4.291  0.00  0.00    +0.124 A 
ENDBRANCH  22  27
BRANCH  16  11
ATOM      5  N   UNL     1       8.218   9.442   4.551  0.00  0.00    -0.287 NA
ATOM     11  C   UNL     1       9.348  10.020   3.797  0.00  0.00    +0.146 C 
ATOM     12  C   UNL     1       8.935  11.479   3.530  0.00  0.00    +0.030 C 
ATOM     13  C   UNL     1       7.537  11.610   4.117  0.00  0.00    +0.017 C 
ATOM     14  C   UNL     1       7.025  10.184   4.143  0.00  0.00    +0.085 C 
BRANCH   5  15
ATOM     15  C   UNL     1       8.067   8.007   4.351  0.00  0.00    +0.120 C 
BRANCH  15  17
ATOM     17  C   UNL     1       8.460   7.225   5.576  0.00  0.00    -0.033 A 
ATOM     24  C   UNL     1       8.350   7.808   6.840  0.00  0.00    +0.005 A 
ATOM     25  C   UNL     1       8.933   5.920   5.449  0.00  0.00    +0.005 A 
ATOM     29  C   UNL     1       8.714   7.083   7.975  0.00  0.00    +0.012 A 
ATOM     30  C   UNL     1       9.297   5.196   6.585  0.00  0.00    +0.012 A 
ATOM     32  C   UNL     1       9.187   5.778   7.847  0.00  0.00    +0.055 A 
BRANCH  32  34
ATOM      1  F   UNL     1       9.782   3.675   8.821  0.00  0.00    -0.166 F 
ATOM      2  F   UNL     1       8.623   5.052  10.040  0.00  0.00    -0.166 F 
ATOM      3  F   UNL     1      10.725   5.444   9.648  0.00  0.00    -0.166 F 
ATOM     34  C   UNL     1       9.573   5.004   9.061  0.00  0.00    +0.417 C 
ENDBRANCH  32  34
ENDBRANCH  15  17
ENDBRANCH   5  15
ENDBRANCH  16  11
TORSDOF 5
ENDMDL
MODEL 9
REMARK VINA RESULT:      -7.2     30.426     32.405
REMARK  Name = 51136861
REMARK  6 active torsions:
REMARK  status: ('A' for Active; 'I' for Inactive)
REMARK    1  A    between atoms: N_5  and  C_15
REMARK    2  A    between atoms: N_7  and  C_26
REMARK    3  A    between atoms: C_11  and  C_16
REMARK    4  A    between atoms: C_15  and  C_17
REMARK    5  A    between atoms: C_22  and  C_27
REMARK    6  A    between atoms: C_32  and  C_34
REMARK                            x       y       z     vdW  Elec       q    Type
REMARK                         _______ _______ _______ _____ _____    ______ ____
ROOT
ATOM      4  O   UNL     1     -14.374  -4.891  13.634  0.00  0.00    -0.336 OA
ATOM      8  N   UNL     1     -12.168  -5.058  13.282  0.00  0.00    -0.190 NA
ATOM      9  N   UNL     1     -13.918  -5.898  14.493  0.00  0.00    -0.056 NA
ATOM     16  C   UNL     1     -13.281  -4.450  12.957  0.00  0.00    +0.245 A 
ATOM     22  C   UNL     1     -12.609  -5.937  14.228  0.00  0.00    +0.204 A 
ENDROOT
BRANCH  22  27
ATOM      6  N   UNL     1      -9.158  -9.516  16.721  0.00  0.00    -0.313 N 
ATOM      7  N   UNL     1      -7.312 -11.423  17.776  0.00  0.00    -0.302 NA
ATOM     10  N   UNL     1     -10.638  -9.007  14.945  0.00  0.00    -0.240 NA
ATOM     18  C   UNL     1      -9.423 -10.952  16.578  0.00  0.00    +0.122 C 
ATOM     19  C   UNL     1      -7.753  -9.146  16.919  0.00  0.00    +0.122 C 
ATOM     20  C   UNL     1      -8.744 -11.737  17.704  0.00  0.00    +0.103 C 
ATOM     21  C   UNL     1      -7.127  -9.990  18.033  0.00  0.00    +0.103 C 
ATOM     23  C   UNL     1     -10.028  -8.621  16.088  0.00  0.00    +0.121 A 
ATOM     26  C   UNL     1      -6.664 -12.219  18.818  0.00  0.00    +0.105 C 
ATOM     27  C   UNL     1     -11.715  -6.843  14.888  0.00  0.00    +0.041 A 
ATOM     28  C   UNL     1     -10.208  -7.382  16.684  0.00  0.00    +0.044 A 
ATOM     31  C   UNL     1     -11.069  -6.482  16.067  0.00  0.00    +0.016 A 
ATOM     33  C   UNL     1     -11.468  -8.105  14.374  0.00  0.00    +0.124 A 
ENDBRANCH  22  27
BRANCH  16  11
ATOM      5  N   UNL     1     -13.134  -3.737  10.578  0.00  0.00    -0.287 NA
ATOM     11  C   UNL     1     -13.512  -3.343  11.950  0.00  0.00    +0.146 C 
ATOM     12  C   UNL     1     -14.991  -2.933  11.845  0.00  0.00    +0.030 C 
ATOM     13  C   UNL     1     -15.340  -3.070  10.370  0.00  0.00    +0.017 C 
ATOM     14  C   UNL     1     -13.997  -2.973   9.676  0.00  0.00    +0.085 C 
BRANCH   5  15
ATOM     15  C   UNL     1     -11.720  -3.532  10.289  0.00  0.00    +0.120 C 
BRANCH  15  17
ATOM     17  C   UNL     1     -11.098  -4.743   9.646  0.00  0.00    -0.033 A 
ATOM     24  C   UNL     1      -9.967  -4.601   8.841  0.00  0.00    +0.005 A 
ATOM     25  C   UNL     1     -11.652  -6.005   9.854  0.00  0.00    +0.005 A 
ATOM     29  C   UNL     1      -9.390  -5.723   8.246  0.00  0.00    +0.012 A 
ATOM     30  C   UNL     1     -11.075  -7.127   9.258  0.00  0.00    +0.012 A 
ATOM     32  C   UNL     1      -9.944  -6.986   8.455  0.00  0.00    +0.055 A 
BRANCH  32  34
ATOM      1  F   UNL     1      -8.867  -7.959   6.554  0.00  0.00    -0.166 F 
ATOM      2  F   UNL     1     -10.196  -9.230   7.712  0.00  0.00    -0.166 F 
ATOM      3  F   UNL     1      -8.250  -8.673   8.506  0.00  0.00    -0.166 F 
ATOM     34  C   UNL     1      -9.326  -8.185   7.820  0.00  0.00    +0.417 C 
ENDBRANCH  32  34
ENDBRANCH  15  17
ENDBRANCH   5  15
ENDBRANCH  16  11
TORSDOF 5
ENDMDL
MODEL 10
REMARK VINA RESULT:      -7.2     15.809     18.047
REMARK  Name = 51136861
REMARK  6 active torsions:
REMARK  status: ('A' for Active; 'I' for Inactive)
REMARK    1  A    between atoms: N_5  and  C_15
REMARK    2  A    between atoms: N_7  and  C_26
REMARK    3  A    between atoms: C_11  and  C_16
REMARK    4  A    between atoms: C_15  and  C_17
REMARK    5  A    between atoms: C_22  and  C_27
REMARK    6  A    between atoms: C_32  and  C_34
REMARK                            x       y       z     vdW  Elec       q    Type
REMARK                         _______ _______ _______ _____ _____    ______ ____
ROOT
ATOM      4  O   UNL     1      12.511   6.787   7.125  0.00  0.00    -0.336 OA
ATOM      8  N   UNL     1      12.972   8.269   5.510  0.00  0.00    -0.190 NA
ATOM      9  N   UNL     1      13.899   6.747   6.944  0.00  0.00    -0.056 NA
ATOM     16  C   UNL     1      12.043   7.709   6.242  0.00  0.00    +0.245 A 
ATOM     22  C   UNL     1      14.094   7.648   5.977  0.00  0.00    +0.204 A 
ENDROOT
BRANCH  22  27
ATOM      6  N   UNL     1      19.110   8.788   3.861  0.00  0.00    -0.313 N 
ATOM      7  N   UNL     1      21.569   9.453   2.571  0.00  0.00    -0.302 NA
ATOM     10  N   UNL     1      16.893   8.011   3.558  0.00  0.00    -0.240 NA
ATOM     18  C   UNL     1      19.584   7.988   2.725  0.00  0.00    +0.122 C 
ATOM     19  C   UNL     1      19.632  10.155   3.937  0.00  0.00    +0.122 C 
ATOM     20  C   UNL     1      21.109   8.060   2.619  0.00  0.00    +0.103 C 
ATOM     21  C   UNL     1      21.156  10.157   3.791  0.00  0.00    +0.103 C 
ATOM     23  C   UNL     1      17.845   8.498   4.387  0.00  0.00    +0.121 A 
ATOM     26  C   UNL     1      23.023   9.507   2.415  0.00  0.00    +0.105 C 
ATOM     27  C   UNL     1      15.394   7.949   5.454  0.00  0.00    +0.041 A 
ATOM     28  C   UNL     1      17.650   8.734   5.738  0.00  0.00    +0.044 A 
ATOM     31  C   UNL     1      16.399   8.451   6.275  0.00  0.00    +0.016 A 
ATOM     33  C   UNL     1      15.690   7.749   4.116  0.00  0.00    +0.124 A 
ENDBRANCH  22  27
BRANCH  16  11
ATOM      5  N   UNL     1       9.803   6.846   5.586  0.00  0.00    -0.287 NA
ATOM     11  C   UNL     1      10.547   7.942   6.240  0.00  0.00    +0.146 C 
ATOM     12  C   UNL     1       9.956   8.025   7.658  0.00  0.00    +0.030 C 
ATOM     13  C   UNL     1       8.847   6.982   7.689  0.00  0.00    +0.017 C 
ATOM     14  C   UNL     1       8.489   6.799   6.228  0.00  0.00    +0.085 C 
BRANCH   5  15
ATOM     15  C   UNL     1       9.702   7.002   4.141  0.00  0.00    +0.120 C 
BRANCH  15  17
ATOM     17  C   UNL     1      10.676   6.114   3.412  0.00  0.00    -0.033 A 
ATOM     24  C   UNL     1      10.474   4.733   3.384  0.00  0.00    +0.005 A 
ATOM     25  C   UNL     1      11.778   6.670   2.766  0.00  0.00    +0.005 A 
ATOM     29  C   UNL     1      11.375   3.911   2.709  0.00  0.00    +0.012 A 
ATOM     30  C   UNL     1      12.680   5.847   2.090  0.00  0.00    +0.012 A 
ATOM     32  C   UNL     1      12.478   4.468   2.062  0.00  0.00    +0.055 A 
BRANCH  32  34
ATOM      1  F   UNL     1      14.499   3.189   2.102  0.00  0.00    -0.166 F 
ATOM      2  F   UNL     1      13.986   4.194   0.245  0.00  0.00    -0.166 F 
ATOM      3  F   UNL     1      12.880   2.431   0.874  0.00  0.00    -0.166 F 
ATOM     34  C   UNL     1      13.439   3.588   1.338  0.00  0.00    +0.417 C 
ENDBRANCH  32  34
ENDBRANCH  15  17
ENDBRANCH   5  15
ENDBRANCH  16  11
TORSDOF 5
ENDMDL
