REMARK  Name = 11884447
REMARK  6 active torsions:
REMARK  status: ('A' for Active; 'I' for Inactive)
REMARK    1  A    between atoms: S_2  and  N_8
REMARK    2  A    between atoms: S_2  and  C_22
REMARK    3  A    between atoms: O_7  and  C_34
REMARK    4  A    between atoms: O_7  and  C_35
REMARK    5  A    between atoms: N_10  and  C_20
REMARK    6  A    between atoms: C_27  and  C_29
REMARK                            x       y       z     vdW  Elec       q    Type
REMARK                         _______ _______ _______ _____ _____    ______ ____
ROOT
ATOM      5  O   UNL     1      -1.604  -1.933   1.482  0.00  0.00    -0.266 OA
ATOM      8  N   UNL     1       2.932  -0.148   0.452  0.00  0.00    -0.176 NA
ATOM      9  N   UNL     1       0.225  -1.728   0.042  0.00  0.00    -0.310 N 
ATOM     11  C   UNL     1       2.557  -2.610   0.626  0.00  0.00    +0.025 C 
ATOM     12  C   UNL     1       2.187  -1.470  -1.518  0.00  0.00    +0.052 C 
ATOM     13  C   UNL     1       2.727  -2.748  -0.881  0.00  0.00    +0.017 C 
ATOM     14  C   UNL     1       3.345  -1.399   1.151  0.00  0.00    +0.114 C 
ATOM     15  C   UNL     1       3.013  -0.265  -1.035  0.00  0.00    +0.119 C 
ATOM     16  C   UNL     1       1.061  -2.522   0.952  0.00  0.00    +0.130 C 
ATOM     17  C   UNL     1       0.720  -1.273  -1.185  0.00  0.00    +0.026 A 
ATOM     18  C   UNL     1      -0.094  -0.648  -2.052  0.00  0.00    +0.024 A 
ATOM     19  C   UNL     1      -1.120  -1.537   0.420  0.00  0.00    +0.273 A 
ATOM     20  C   UNL     1      -1.988  -0.815  -0.563  0.00  0.00    +0.099 A 
ATOM     21  C   UNL     1      -1.474  -0.414  -1.731  0.00  0.00    +0.030 A 
ENDROOT
BRANCH  20  10
ATOM      6  O   UNL     1      -3.625   1.340  -1.469  0.00  0.00    -0.270 OA
ATOM     10  N   UNL     1      -3.292  -0.599  -0.229  0.00  0.00    -0.277 N 
ATOM     27  C   UNL     1      -4.037   0.471  -0.704  0.00  0.00    +0.248 C 
ATOM     36  H   UNL     1      -3.650  -1.191   0.513  0.00  0.00    +0.155 HD
BRANCH  27  29
ATOM     29  C   UNL     1      -5.450   0.526  -0.247  0.00  0.00    +0.037 A 
ATOM     30  C   UNL     1      -6.383   1.154  -1.045  0.00  0.00    +0.016 A 
ATOM     31  C   UNL     1      -5.783  -0.051   0.961  0.00  0.00    +0.016 A 
ATOM     32  C   UNL     1      -7.710   1.206  -0.617  0.00  0.00    +0.046 A 
ATOM     33  C   UNL     1      -7.109   0.001   1.389  0.00  0.00    +0.046 A 
ATOM     34  C   UNL     1      -8.073   0.629   0.601  0.00  0.00    +0.120 A 
BRANCH  34   7
ATOM      7  O   UNL     1      -9.367   0.678   1.018  0.00  0.00    -0.495 OA
ATOM     35  C   UNL     1     -10.301   1.334   0.162  0.00  0.00    +0.277 C 
ENDBRANCH  34   7
ENDBRANCH  27  29
ENDBRANCH  20  10
BRANCH   8   2
ATOM      2  S   UNL     1       3.545   1.306   1.114  0.00  0.00    +0.061 S 
ATOM      3  O   UNL     1       3.553   1.203   2.558  0.00  0.00    -0.153 OA
ATOM      4  O   UNL     1       2.915   2.428   0.451  0.00  0.00    -0.153 OA
BRANCH   2  22
ATOM      1 CL   UNL     1       9.476   0.993  -0.853  0.00  0.00    -0.084 Cl
ATOM     22  C   UNL     1       5.219   1.218   0.559  0.00  0.00    +0.106 A 
ATOM     23  C   UNL     1       5.558   1.772  -0.665  0.00  0.00    +0.030 A 
ATOM     24  C   UNL     1       6.165   0.595   1.356  0.00  0.00    +0.030 A 
ATOM     25  C   UNL     1       6.880   1.702  -1.103  0.00  0.00    +0.022 A 
ATOM     26  C   UNL     1       7.488   0.525   0.917  0.00  0.00    +0.022 A 
ATOM     28  C   UNL     1       7.845   1.079  -0.312  0.00  0.00    +0.041 A 
ENDBRANCH   2  22
ENDBRANCH   8   2
TORSDOF 5
