MODEL 1
REMARK VINA RESULT:      -7.4      0.000      0.000
REMARK  Name = 45784332
REMARK  5 active torsions:
REMARK  status: ('A' for Active; 'I' for Inactive)
REMARK    1  A    between atoms: S_1  and  C_22
REMARK    2  A    between atoms: S_1  and  C_24
REMARK    3  A    between atoms: N_5  and  C_7
REMARK    4  A    between atoms: C_8  and  C_17
REMARK    5  A    between atoms: C_24  and  C_25
REMARK                            x       y       z     vdW  Elec       q    Type
REMARK                         _______ _______ _______ _____ _____    ______ ____
ROOT
ATOM      2  O   UNL     1      14.797   6.562  19.320  0.00  0.00    -0.439 OA
ATOM      6  N   UNL     1      15.183   7.549  21.323  0.00  0.00    -0.213 NA
ATOM     17  C   UNL     1      14.311   7.263  20.382  0.00  0.00    +0.201 A 
ATOM     18  C   UNL     1      16.348   6.994  20.854  0.00  0.00    +0.111 A 
ATOM     19  C   UNL     1      16.116   6.388  19.627  0.00  0.00    +0.155 A 
ATOM     20  C   UNL     1      17.642   6.954  21.395  0.00  0.00    +0.058 A 
ATOM     21  C   UNL     1      17.081   5.730  18.874  0.00  0.00    +0.050 A 
ATOM     22  C   UNL     1      18.642   6.298  20.663  0.00  0.00    +0.090 A 
ATOM     23  C   UNL     1      18.365   5.701  19.428  0.00  0.00    +0.030 A 
ENDROOT
BRANCH  17   8
ATOM      5  N   UNL     1      11.229   9.056  21.227  0.00  0.00    -0.299 NA
ATOM      8  C   UNL     1      12.841   7.612  20.325  0.00  0.00    +0.090 C 
ATOM      9  C   UNL     1      12.565   9.091  20.627  0.00  0.00    +0.097 C 
ATOM     10  C   UNL     1      11.254   7.913  22.139  0.00  0.00    +0.085 C 
ATOM     13  C   UNL     1      11.955   6.839  21.318  0.00  0.00    +0.029 C 
BRANCH   5   7
ATOM      7  C   UNL     1      10.891  10.305  21.907  0.00  0.00    +0.057 C 
ATOM     11  C   UNL     1      11.738  11.450  21.344  0.00  0.00    +0.019 C 
ATOM     12  C   UNL     1      11.106  10.150  23.417  0.00  0.00    +0.019 C 
ATOM     14  C   UNL     1      11.467  12.759  22.084  0.00  0.00    +0.002 C 
ATOM     15  C   UNL     1      10.836  11.459  24.155  0.00  0.00    +0.002 C 
ATOM     16  C   UNL     1      11.669  12.606  23.589  0.00  0.00    +0.000 C 
ENDBRANCH   5   7
ENDBRANCH  17   8
BRANCH  22   1
ATOM      1  S   UNL     1      20.268   6.231  21.306  0.00  0.00    -0.003 S 
ATOM      3  O   UNL     1      21.033   7.344  20.764  0.00  0.00    -0.169 OA
ATOM      4  O   UNL     1      20.170   6.050  22.747  0.00  0.00    -0.169 OA
BRANCH   1  24
ATOM     24  C   UNL     1      20.952   4.744  20.611  0.00  0.00    +0.168 C 
ATOM     25  C   UNL     1      21.687   3.932  21.654  0.00  0.00    +0.028 C 
ENDBRANCH   1  24
ENDBRANCH  22   1
TORSDOF 4
ENDMDL
MODEL 2
REMARK VINA RESULT:      -7.2      3.338      9.741
REMARK  Name = 45784332
REMARK  5 active torsions:
REMARK  status: ('A' for Active; 'I' for Inactive)
REMARK    1  A    between atoms: S_1  and  C_22
REMARK    2  A    between atoms: S_1  and  C_24
REMARK    3  A    between atoms: N_5  and  C_7
REMARK    4  A    between atoms: C_8  and  C_17
REMARK    5  A    between atoms: C_24  and  C_25
REMARK                            x       y       z     vdW  Elec       q    Type
REMARK                         _______ _______ _______ _____ _____    ______ ____
ROOT
ATOM      2  O   UNL     1      18.197   7.770  21.349  0.00  0.00    -0.439 OA
ATOM      6  N   UNL     1      18.026   6.302  19.631  0.00  0.00    -0.213 NA
ATOM     17  C   UNL     1      18.801   6.860  20.534  0.00  0.00    +0.201 A 
ATOM     18  C   UNL     1      16.803   6.884  19.860  0.00  0.00    +0.111 A 
ATOM     19  C   UNL     1      16.904   7.784  20.911  0.00  0.00    +0.155 A 
ATOM     20  C   UNL     1      15.561   6.713  19.232  0.00  0.00    +0.058 A 
ATOM     21  C   UNL     1      15.852   8.548  21.404  0.00  0.00    +0.050 A 
ATOM     22  C   UNL     1      14.475   7.467  19.702  0.00  0.00    +0.090 A 
ATOM     23  C   UNL     1      14.621   8.365  20.765  0.00  0.00    +0.030 A 
ENDROOT
BRANCH  17   8
ATOM      5  N   UNL     1      21.802   5.024  21.554  0.00  0.00    -0.299 NA
ATOM      8  C   UNL     1      20.273   6.625  20.784  0.00  0.00    +0.090 C 
ATOM      9  C   UNL     1      20.679   5.154  20.624  0.00  0.00    +0.097 C 
ATOM     10  C   UNL     1      21.382   5.743  22.757  0.00  0.00    +0.085 C 
ATOM     13  C   UNL     1      20.759   7.012  22.191  0.00  0.00    +0.029 C 
BRANCH   5   7
ATOM      7  C   UNL     1      22.139   3.628  21.830  0.00  0.00    +0.057 C 
ATOM     11  C   UNL     1      22.533   3.469  23.302  0.00  0.00    +0.019 C 
ATOM     12  C   UNL     1      23.270   3.172  20.902  0.00  0.00    +0.019 C 
ATOM     14  C   UNL     1      22.966   2.035  23.610  0.00  0.00    +0.002 C 
ATOM     15  C   UNL     1      23.702   1.740  21.213  0.00  0.00    +0.002 C 
ATOM     16  C   UNL     1      24.084   1.573  22.681  0.00  0.00    +0.000 C 
ENDBRANCH   5   7
ENDBRANCH  17   8
BRANCH  22   1
ATOM      1  S   UNL     1      12.911   7.282  18.940  0.00  0.00    -0.003 S 
ATOM      3  O   UNL     1      13.094   7.236  17.497  0.00  0.00    -0.169 OA
ATOM      4  O   UNL     1      12.211   6.200  19.618  0.00  0.00    -0.169 OA
BRANCH   1  24
ATOM     24  C   UNL     1      12.062   8.800  19.308  0.00  0.00    +0.168 C 
ATOM     25  C   UNL     1      10.909   8.574  20.262  0.00  0.00    +0.028 C 
ENDBRANCH   1  24
ENDBRANCH  22   1
TORSDOF 4
ENDMDL
MODEL 3
REMARK VINA RESULT:      -6.7      4.258      8.895
REMARK  Name = 45784332
REMARK  5 active torsions:
REMARK  status: ('A' for Active; 'I' for Inactive)
REMARK    1  A    between atoms: S_1  and  C_22
REMARK    2  A    between atoms: S_1  and  C_24
REMARK    3  A    between atoms: N_5  and  C_7
REMARK    4  A    between atoms: C_8  and  C_17
REMARK    5  A    between atoms: C_24  and  C_25
REMARK                            x       y       z     vdW  Elec       q    Type
REMARK                         _______ _______ _______ _____ _____    ______ ____
ROOT
ATOM      2  O   UNL     1      12.448  10.643  20.227  0.00  0.00    -0.439 OA
ATOM      6  N   UNL     1      11.914   9.521  22.122  0.00  0.00    -0.213 NA
ATOM     17  C   UNL     1      12.350   9.454  20.884  0.00  0.00    +0.201 A 
ATOM     18  C   UNL     1      11.702  10.865  22.311  0.00  0.00    +0.111 A 
ATOM     19  C   UNL     1      12.028  11.556  21.152  0.00  0.00    +0.155 A 
ATOM     20  C   UNL     1      11.239  11.586  23.421  0.00  0.00    +0.058 A 
ATOM     21  C   UNL     1      11.932  12.934  20.998  0.00  0.00    +0.050 A 
ATOM     22  C   UNL     1      11.129  12.979  23.304  0.00  0.00    +0.090 A 
ATOM     23  C   UNL     1      11.468  13.637  22.115  0.00  0.00    +0.030 A 
ENDROOT
BRANCH  17   8
ATOM      5  N   UNL     1      14.560   6.793  19.678  0.00  0.00    -0.299 NA
ATOM      8  C   UNL     1      12.756   8.230  20.096  0.00  0.00    +0.090 C 
ATOM      9  C   UNL     1      13.837   7.397  20.799  0.00  0.00    +0.097 C 
ATOM     10  C   UNL     1      14.710   7.869  18.700  0.00  0.00    +0.085 C 
ATOM     13  C   UNL     1      13.334   8.522  18.701  0.00  0.00    +0.029 C 
BRANCH   5   7
ATOM      7  C   UNL     1      15.846   6.227  20.085  0.00  0.00    +0.057 C 
ATOM     11  C   UNL     1      16.523   7.153  21.101  0.00  0.00    +0.019 C 
ATOM     12  C   UNL     1      16.734   6.014  18.855  0.00  0.00    +0.019 C 
ATOM     14  C   UNL     1      17.906   6.633  21.493  0.00  0.00    +0.002 C 
ATOM     15  C   UNL     1      18.116   5.495  19.249  0.00  0.00    +0.002 C 
ATOM     16  C   UNL     1      18.789   6.408  20.270  0.00  0.00    +0.000 C 
ENDBRANCH   5   7
ENDBRANCH  17   8
BRANCH  22   1
ATOM      1  S   UNL     1      10.553  13.910  24.668  0.00  0.00    -0.003 S 
ATOM      3  O   UNL     1       9.551  14.857  24.200  0.00  0.00    -0.169 OA
ATOM      4  O   UNL     1      10.227  12.978  25.737  0.00  0.00    -0.169 OA
BRANCH   1  24
ATOM     24  C   UNL     1      11.966  14.860  25.179  0.00  0.00    +0.168 C 
ATOM     25  C   UNL     1      12.048  14.967  26.685  0.00  0.00    +0.028 C 
ENDBRANCH   1  24
ENDBRANCH  22   1
TORSDOF 4
ENDMDL
MODEL 4
REMARK VINA RESULT:      -6.6      3.508     10.100
REMARK  Name = 45784332
REMARK  5 active torsions:
REMARK  status: ('A' for Active; 'I' for Inactive)
REMARK    1  A    between atoms: S_1  and  C_22
REMARK    2  A    between atoms: S_1  and  C_24
REMARK    3  A    between atoms: N_5  and  C_7
REMARK    4  A    between atoms: C_8  and  C_17
REMARK    5  A    between atoms: C_24  and  C_25
REMARK                            x       y       z     vdW  Elec       q    Type
REMARK                         _______ _______ _______ _____ _____    ______ ____
ROOT
ATOM      2  O   UNL     1      19.604   6.075  20.275  0.00  0.00    -0.439 OA
ATOM      6  N   UNL     1      18.979   7.455  21.961  0.00  0.00    -0.213 NA
ATOM     17  C   UNL     1      19.951   6.783  21.386  0.00  0.00    +0.201 A 
ATOM     18  C   UNL     1      17.891   7.175  21.170  0.00  0.00    +0.111 A 
ATOM     19  C   UNL     1      18.269   6.330  20.137  0.00  0.00    +0.155 A 
ATOM     20  C   UNL     1      16.553   7.590  21.251  0.00  0.00    +0.058 A 
ATOM     21  C   UNL     1      17.413   5.850  19.153  0.00  0.00    +0.050 A 
ATOM     22  C   UNL     1      15.659   7.126  20.275  0.00  0.00    +0.090 A 
ATOM     23  C   UNL     1      16.083   6.272  19.249  0.00  0.00    +0.030 A 
ENDROOT
BRANCH  17   8
ATOM      5  N   UNL     1      23.261   5.263  21.788  0.00  0.00    -0.299 NA
ATOM      8  C   UNL     1      21.402   6.693  21.798  0.00  0.00    +0.090 C 
ATOM      9  C   UNL     1      22.228   5.776  20.885  0.00  0.00    +0.097 C 
ATOM     10  C   UNL     1      22.554   4.943  23.028  0.00  0.00    +0.085 C 
ATOM     13  C   UNL     1      21.639   6.146  23.216  0.00  0.00    +0.029 C 
BRANCH   5   7
ATOM      7  C   UNL     1      23.962   4.106  21.232  0.00  0.00    +0.057 C 
ATOM     11  C   UNL     1      23.092   2.853  21.376  0.00  0.00    +0.019 C 
ATOM     12  C   UNL     1      25.311   3.927  21.937  0.00  0.00    +0.019 C 
ATOM     14  C   UNL     1      23.824   1.608  20.875  0.00  0.00    +0.002 C 
ATOM     15  C   UNL     1      26.039   2.682  21.436  0.00  0.00    +0.002 C 
ATOM     16  C   UNL     1      25.173   1.432  21.566  0.00  0.00    +0.000 C 
ENDBRANCH   5   7
ENDBRANCH  17   8
BRANCH  22   1
ATOM      1  S   UNL     1      13.983   7.620  20.346  0.00  0.00    -0.003 S 
ATOM      3  O   UNL     1      13.258   6.979  19.258  0.00  0.00    -0.169 OA
ATOM      4  O   UNL     1      13.527   7.454  21.718  0.00  0.00    -0.169 OA
BRANCH   1  24
ATOM     24  C   UNL     1      14.023   9.361  19.987  0.00  0.00    +0.168 C 
ATOM     25  C   UNL     1      14.389   9.622  18.542  0.00  0.00    +0.028 C 
ENDBRANCH   1  24
ENDBRANCH  22   1
TORSDOF 4
ENDMDL
MODEL 5
REMARK VINA RESULT:      -6.5     28.457     31.568
REMARK  Name = 45784332
REMARK  5 active torsions:
REMARK  status: ('A' for Active; 'I' for Inactive)
REMARK    1  A    between atoms: S_1  and  C_22
REMARK    2  A    between atoms: S_1  and  C_24
REMARK    3  A    between atoms: N_5  and  C_7
REMARK    4  A    between atoms: C_8  and  C_17
REMARK    5  A    between atoms: C_24  and  C_25
REMARK                            x       y       z     vdW  Elec       q    Type
REMARK                         _______ _______ _______ _____ _____    ______ ____
ROOT
ATOM      2  O   UNL     1     -12.170  -7.989  16.691  0.00  0.00    -0.439 OA
ATOM      6  N   UNL     1     -10.395  -6.788  15.956  0.00  0.00    -0.213 NA
ATOM     17  C   UNL     1     -10.830  -7.746  16.743  0.00  0.00    +0.201 A 
ATOM     18  C   UNL     1     -11.535  -6.353  15.325  0.00  0.00    +0.111 A 
ATOM     19  C   UNL     1     -12.624  -7.086  15.773  0.00  0.00    +0.155 A 
ATOM     20  C   UNL     1     -11.741  -5.351  14.366  0.00  0.00    +0.058 A 
ATOM     21  C   UNL     1     -13.933  -6.905  15.340  0.00  0.00    +0.050 A 
ATOM     22  C   UNL     1     -13.049  -5.139  13.905  0.00  0.00    +0.090 A 
ATOM     23  C   UNL     1     -14.121  -5.901  14.384  0.00  0.00    +0.030 A 
ENDROOT
BRANCH  17   8
ATOM      5  N   UNL     1      -8.237 -10.107  17.801  0.00  0.00    -0.299 NA
ATOM      8  C   UNL     1     -10.039  -8.612  17.696  0.00  0.00    +0.090 C 
ATOM      9  C   UNL     1      -8.574  -8.784  17.273  0.00  0.00    +0.097 C 
ATOM     10  C   UNL     1      -9.395 -10.945  17.492  0.00  0.00    +0.085 C 
ATOM     13  C   UNL     1     -10.569 -10.047  17.858  0.00  0.00    +0.029 C 
BRANCH   5   7
ATOM      7  C   UNL     1      -6.999 -10.636  17.230  0.00  0.00    +0.057 C 
ATOM     11  C   UNL     1      -5.965 -10.854  18.341  0.00  0.00    +0.019 C 
ATOM     12  C   UNL     1      -6.467  -9.676  16.161  0.00  0.00    +0.019 C 
ATOM     14  C   UNL     1      -4.631 -11.336  17.772  0.00  0.00    +0.002 C 
ATOM     15  C   UNL     1      -5.133 -10.158  15.595  0.00  0.00    +0.002 C 
ATOM     16  C   UNL     1      -4.103 -10.388  16.698  0.00  0.00    +0.000 C 
ENDBRANCH   5   7
ENDBRANCH  17   8
BRANCH  22   1
ATOM      1  S   UNL     1     -13.344  -3.895  12.711  0.00  0.00    -0.003 S 
ATOM      3  O   UNL     1     -14.572  -3.195  13.056  0.00  0.00    -0.169 OA
ATOM      4  O   UNL     1     -12.108  -3.148  12.531  0.00  0.00    -0.169 OA
BRANCH   1  24
ATOM     24  C   UNL     1     -13.664  -4.795  11.211  0.00  0.00    +0.168 C 
ATOM     25  C   UNL     1     -14.196  -3.889  10.123  0.00  0.00    +0.028 C 
ENDBRANCH   1  24
ENDBRANCH  22   1
TORSDOF 4
ENDMDL
MODEL 6
REMARK VINA RESULT:      -6.4      1.714      2.146
REMARK  Name = 45784332
REMARK  5 active torsions:
REMARK  status: ('A' for Active; 'I' for Inactive)
REMARK    1  A    between atoms: S_1  and  C_22
REMARK    2  A    between atoms: S_1  and  C_24
REMARK    3  A    between atoms: N_5  and  C_7
REMARK    4  A    between atoms: C_8  and  C_17
REMARK    5  A    between atoms: C_24  and  C_25
REMARK                            x       y       z     vdW  Elec       q    Type
REMARK                         _______ _______ _______ _____ _____    ______ ____
ROOT
ATOM      2  O   UNL     1      16.436   6.374  19.085  0.00  0.00    -0.439 OA
ATOM      6  N   UNL     1      16.549   8.055  20.601  0.00  0.00    -0.213 NA
ATOM     17  C   UNL     1      15.859   7.474  19.645  0.00  0.00    +0.201 A 
ATOM     18  C   UNL     1      17.680   7.281  20.690  0.00  0.00    +0.111 A 
ATOM     19  C   UNL     1      17.615   6.250  19.763  0.00  0.00    +0.155 A 
ATOM     20  C   UNL     1      18.807   7.375  21.520  0.00  0.00    +0.058 A 
ATOM     21  C   UNL     1      18.596   5.282  19.585  0.00  0.00    +0.050 A 
ATOM     22  C   UNL     1      19.818   6.415  21.370  0.00  0.00    +0.090 A 
ATOM     23  C   UNL     1      19.713   5.391  20.421  0.00  0.00    +0.030 A 
ENDROOT
BRANCH  17   8
ATOM      5  N   UNL     1      12.493   8.920  19.648  0.00  0.00    -0.299 NA
ATOM      8  C   UNL     1      14.511   7.868  19.086  0.00  0.00    +0.090 C 
ATOM      9  C   UNL     1      13.939   9.133  19.740  0.00  0.00    +0.097 C 
ATOM     10  C   UNL     1      12.293   7.518  20.011  0.00  0.00    +0.085 C 
ATOM     13  C   UNL     1      13.408   6.810  19.253  0.00  0.00    +0.029 C 
BRANCH   5   7
ATOM      7  C   UNL     1      11.740   9.831  20.509  0.00  0.00    +0.057 C 
ATOM     11  C   UNL     1      12.517  11.140  20.687  0.00  0.00    +0.019 C 
ATOM     12  C   UNL     1      11.465   9.163  21.860  0.00  0.00    +0.019 C 
ATOM     14  C   UNL     1      11.796  12.089  21.644  0.00  0.00    +0.002 C 
ATOM     15  C   UNL     1      10.746  10.114  22.815  0.00  0.00    +0.002 C 
ATOM     16  C   UNL     1      11.510  11.424  22.987  0.00  0.00    +0.000 C 
ENDBRANCH   5   7
ENDBRANCH  17   8
BRANCH  22   1
ATOM      1  S   UNL     1      21.239   6.502  22.386  0.00  0.00    -0.003 S 
ATOM      3  O   UNL     1      20.854   6.206  23.758  0.00  0.00    -0.169 OA
ATOM      4  O   UNL     1      22.293   5.730  21.745  0.00  0.00    -0.169 OA
BRANCH   1  24
ATOM     24  C   UNL     1      21.708   8.217  22.337  0.00  0.00    +0.168 C 
ATOM     25  C   UNL     1      22.344   8.580  21.013  0.00  0.00    +0.028 C 
ENDBRANCH   1  24
ENDBRANCH  22   1
TORSDOF 4
ENDMDL
MODEL 7
REMARK VINA RESULT:      -6.4      1.953      3.420
REMARK  Name = 45784332
REMARK  5 active torsions:
REMARK  status: ('A' for Active; 'I' for Inactive)
REMARK    1  A    between atoms: S_1  and  C_22
REMARK    2  A    between atoms: S_1  and  C_24
REMARK    3  A    between atoms: N_5  and  C_7
REMARK    4  A    between atoms: C_8  and  C_17
REMARK    5  A    between atoms: C_24  and  C_25
REMARK                            x       y       z     vdW  Elec       q    Type
REMARK                         _______ _______ _______ _____ _____    ______ ____
ROOT
ATOM      2  O   UNL     1      18.212   6.110  19.815  0.00  0.00    -0.439 OA
ATOM      6  N   UNL     1      18.322   7.395  21.679  0.00  0.00    -0.213 NA
ATOM     17  C   UNL     1      17.671   7.104  20.575  0.00  0.00    +0.201 A 
ATOM     18  C   UNL     1      19.386   6.526  21.658  0.00  0.00    +0.111 A 
ATOM     19  C   UNL     1      19.322   5.737  20.518  0.00  0.00    +0.155 A 
ATOM     20  C   UNL     1      20.447   6.335  22.555  0.00  0.00    +0.058 A 
ATOM     21  C   UNL     1      20.243   4.751  20.185  0.00  0.00    +0.050 A 
ATOM     22  C   UNL     1      21.397   5.349  22.253  0.00  0.00    +0.090 A 
ATOM     23  C   UNL     1      21.295   4.575  21.090  0.00  0.00    +0.030 A 
ENDROOT
BRANCH  17   8
ATOM      5  N   UNL     1      14.182   8.221  20.605  0.00  0.00    -0.299 NA
ATOM      8  C   UNL     1      16.403   7.727  20.039  0.00  0.00    +0.090 C 
ATOM      9  C   UNL     1      15.540   8.364  21.136  0.00  0.00    +0.097 C 
ATOM     10  C   UNL     1      14.132   6.866  20.057  0.00  0.00    +0.085 C 
ATOM     13  C   UNL     1      15.458   6.751  19.317  0.00  0.00    +0.029 C 
BRANCH   5   7
ATOM      7  C   UNL     1      13.159   8.448  21.625  0.00  0.00    +0.057 C 
ATOM     11  C   UNL     1      11.911   7.619  21.302  0.00  0.00    +0.019 C 
ATOM     12  C   UNL     1      12.825   9.941  21.705  0.00  0.00    +0.019 C 
ATOM     14  C   UNL     1      10.790   7.888  22.305  0.00  0.00    +0.002 C 
ATOM     15  C   UNL     1      11.703  10.208  22.707  0.00  0.00    +0.002 C 
ATOM     16  C   UNL     1      10.462   9.375  22.396  0.00  0.00    +0.000 C 
ENDBRANCH   5   7
ENDBRANCH  17   8
BRANCH  22   1
ATOM      1  S   UNL     1      22.735   5.084  23.347  0.00  0.00    -0.003 S 
ATOM      3  O   UNL     1      23.612   6.245  23.305  0.00  0.00    -0.169 OA
ATOM      4  O   UNL     1      22.188   4.634  24.619  0.00  0.00    -0.169 OA
BRANCH   1  24
ATOM     24  C   UNL     1      23.631   3.730  22.625  0.00  0.00    +0.168 C 
ATOM     25  C   UNL     1      23.828   2.603  23.615  0.00  0.00    +0.028 C 
ENDBRANCH   1  24
ENDBRANCH  22   1
TORSDOF 4
ENDMDL
MODEL 8
REMARK VINA RESULT:      -6.4      1.802      2.101
REMARK  Name = 45784332
REMARK  5 active torsions:
REMARK  status: ('A' for Active; 'I' for Inactive)
REMARK    1  A    between atoms: S_1  and  C_22
REMARK    2  A    between atoms: S_1  and  C_24
REMARK    3  A    between atoms: N_5  and  C_7
REMARK    4  A    between atoms: C_8  and  C_17
REMARK    5  A    between atoms: C_24  and  C_25
REMARK                            x       y       z     vdW  Elec       q    Type
REMARK                         _______ _______ _______ _____ _____    ______ ____
ROOT
ATOM      2  O   UNL     1      15.142   8.232  19.669  0.00  0.00    -0.439 OA
ATOM      6  N   UNL     1      16.082   9.602  21.210  0.00  0.00    -0.213 NA
ATOM     17  C   UNL     1      15.078   9.386  20.391  0.00  0.00    +0.201 A 
ATOM     18  C   UNL     1      16.886   8.504  21.022  0.00  0.00    +0.111 A 
ATOM     19  C   UNL     1      16.314   7.663  20.078  0.00  0.00    +0.155 A 
ATOM     20  C   UNL     1      18.110   8.139  21.602  0.00  0.00    +0.058 A 
ATOM     21  C   UNL     1      16.865   6.461  19.651  0.00  0.00    +0.050 A 
ATOM     22  C   UNL     1      18.697   6.931  21.196  0.00  0.00    +0.090 A 
ATOM     23  C   UNL     1      18.086   6.111  20.240  0.00  0.00    +0.030 A 
ENDROOT
BRANCH  17   8
ATOM      5  N   UNL     1      11.928  11.085  21.176  0.00  0.00    -0.299 NA
ATOM      8  C   UNL     1      13.862  10.249  20.146  0.00  0.00    +0.090 C 
ATOM      9  C   UNL     1      13.368  10.960  21.414  0.00  0.00    +0.097 C 
ATOM     10  C   UNL     1      11.523   9.794  20.620  0.00  0.00    +0.085 C 
ATOM     13  C   UNL     1      12.630   9.496  19.617  0.00  0.00    +0.029 C 
BRANCH   5   7
ATOM      7  C   UNL     1      11.190  11.423  22.392  0.00  0.00    +0.057 C 
ATOM     11  C   UNL     1      10.953  12.936  22.453  0.00  0.00    +0.019 C 
ATOM     12  C   UNL     1      11.961  10.935  23.623  0.00  0.00    +0.019 C 
ATOM     14  C   UNL     1      10.250  13.338  23.749  0.00  0.00    +0.002 C 
ATOM     15  C   UNL     1      11.258  11.338  24.917  0.00  0.00    +0.002 C 
ATOM     16  C   UNL     1      11.009  12.843  24.977  0.00  0.00    +0.000 C 
ENDBRANCH   5   7
ENDBRANCH  17   8
BRANCH  22   1
ATOM      1  S   UNL     1      20.224   6.445  21.896  0.00  0.00    -0.003 S 
ATOM      3  O   UNL     1      20.058   6.307  23.335  0.00  0.00    -0.169 OA
ATOM      4  O   UNL     1      20.737   5.329  21.114  0.00  0.00    -0.169 OA
BRANCH   1  24
ATOM     24  C   UNL     1      21.293   7.840  21.628  0.00  0.00    +0.168 C 
ATOM     25  C   UNL     1      22.010   7.743  20.300  0.00  0.00    +0.028 C 
ENDBRANCH   1  24
ENDBRANCH  22   1
TORSDOF 4
ENDMDL
MODEL 9
REMARK VINA RESULT:      -6.4     27.634     29.737
REMARK  Name = 45784332
REMARK  5 active torsions:
REMARK  status: ('A' for Active; 'I' for Inactive)
REMARK    1  A    between atoms: S_1  and  C_22
REMARK    2  A    between atoms: S_1  and  C_24
REMARK    3  A    between atoms: N_5  and  C_7
REMARK    4  A    between atoms: C_8  and  C_17
REMARK    5  A    between atoms: C_24  and  C_25
REMARK                            x       y       z     vdW  Elec       q    Type
REMARK                         _______ _______ _______ _____ _____    ______ ____
ROOT
ATOM      2  O   UNL     1      -3.609 -11.331  17.128  0.00  0.00    -0.439 OA
ATOM      6  N   UNL     1      -5.231 -11.255  15.546  0.00  0.00    -0.213 NA
ATOM     17  C   UNL     1      -3.943 -11.243  15.810  0.00  0.00    +0.201 A 
ATOM     18  C   UNL     1      -5.807 -11.359  16.789  0.00  0.00    +0.111 A 
ATOM     19  C   UNL     1      -4.818 -11.405  17.760  0.00  0.00    +0.155 A 
ATOM     20  C   UNL     1      -7.151 -11.420  17.187  0.00  0.00    +0.058 A 
ATOM     21  C   UNL     1      -5.053 -11.510  19.126  0.00  0.00    +0.050 A 
ATOM     22  C   UNL     1      -7.427 -11.526  18.558  0.00  0.00    +0.090 A 
ATOM     23  C   UNL     1      -6.398 -11.569  19.506  0.00  0.00    +0.030 A 
ENDROOT
BRANCH  17   8
ATOM      5  N   UNL     1      -2.259 -11.152  12.557  0.00  0.00    -0.299 NA
ATOM      8  C   UNL     1      -2.787 -11.145  14.842  0.00  0.00    +0.090 C 
ATOM      9  C   UNL     1      -3.182 -10.515  13.499  0.00  0.00    +0.097 C 
ATOM     10  C   UNL     1      -2.234 -12.562  12.947  0.00  0.00    +0.085 C 
ATOM     13  C   UNL     1      -2.143 -12.491  14.466  0.00  0.00    +0.029 C 
BRANCH   5   7
ATOM      7  C   UNL     1      -2.667 -10.967  11.166  0.00  0.00    +0.057 C 
ATOM     11  C   UNL     1      -3.305  -9.584  10.990  0.00  0.00    +0.019 C 
ATOM     12  C   UNL     1      -3.639 -12.079  10.755  0.00  0.00    +0.019 C 
ATOM     14  C   UNL     1      -3.814  -9.383   9.564  0.00  0.00    +0.002 C 
ATOM     15  C   UNL     1      -4.148 -11.875   9.330  0.00  0.00    +0.002 C 
ATOM     16  C   UNL     1      -4.773 -10.494   9.147  0.00  0.00    +0.000 C 
ENDBRANCH   5   7
ENDBRANCH  17   8
BRANCH  22   1
ATOM      1  S   UNL     1      -9.091 -11.602  19.092  0.00  0.00    -0.003 S 
ATOM      3  O   UNL     1      -9.493 -12.998  19.181  0.00  0.00    -0.169 OA
ATOM      4  O   UNL     1      -9.227 -10.732  20.251  0.00  0.00    -0.169 OA
BRANCH   1  24
ATOM     24  C   UNL     1     -10.014 -10.881  17.754  0.00  0.00    +0.168 C 
ATOM     25  C   UNL     1     -10.285  -9.412  17.994  0.00  0.00    +0.028 C 
ENDBRANCH   1  24
ENDBRANCH  22   1
TORSDOF 4
ENDMDL
MODEL 10
REMARK VINA RESULT:      -6.1     27.417     29.510
REMARK  Name = 45784332
REMARK  5 active torsions:
REMARK  status: ('A' for Active; 'I' for Inactive)
REMARK    1  A    between atoms: S_1  and  C_22
REMARK    2  A    between atoms: S_1  and  C_24
REMARK    3  A    between atoms: N_5  and  C_7
REMARK    4  A    between atoms: C_8  and  C_17
REMARK    5  A    between atoms: C_24  and  C_25
REMARK                            x       y       z     vdW  Elec       q    Type
REMARK                         _______ _______ _______ _____ _____    ______ ____
ROOT
ATOM      2  O   UNL     1      -3.008 -10.710  13.914  0.00  0.00    -0.439 OA
ATOM      6  N   UNL     1      -5.153 -10.303  13.307  0.00  0.00    -0.213 NA
ATOM     17  C   UNL     1      -3.911 -10.489  12.918  0.00  0.00    +0.201 A 
ATOM     18  C   UNL     1      -5.076 -10.407  14.674  0.00  0.00    +0.111 A 
ATOM     19  C   UNL     1      -3.763 -10.657  15.050  0.00  0.00    +0.155 A 
ATOM     20  C   UNL     1      -6.058 -10.306  15.670  0.00  0.00    +0.058 A 
ATOM     21  C   UNL     1      -3.332 -10.818  16.361  0.00  0.00    +0.050 A 
ATOM     22  C   UNL     1      -5.661 -10.464  17.006  0.00  0.00    +0.090 A 
ATOM     23  C   UNL     1      -4.324 -10.714  17.342  0.00  0.00    +0.030 A 
ENDROOT
BRANCH  17   8
ATOM      5  N   UNL     1      -3.956 -10.165   9.269  0.00  0.00    -0.299 NA
ATOM      8  C   UNL     1      -3.357 -10.490  11.512  0.00  0.00    +0.090 C 
ATOM      9  C   UNL     1      -4.094  -9.522  10.578  0.00  0.00    +0.097 C 
ATOM     10  C   UNL     1      -4.206 -11.584   9.517  0.00  0.00    +0.085 C 
ATOM     13  C   UNL     1      -3.419 -11.848  10.794  0.00  0.00    +0.029 C 
BRANCH   5   7
ATOM      7  C   UNL     1      -4.868  -9.604   8.274  0.00  0.00    +0.057 C 
ATOM     11  C   UNL     1      -6.158  -9.134   8.956  0.00  0.00    +0.019 C 
ATOM     12  C   UNL     1      -5.164 -10.648   7.192  0.00  0.00    +0.019 C 
ATOM     14  C   UNL     1      -7.168  -8.612   7.936  0.00  0.00    +0.002 C 
ATOM     15  C   UNL     1      -6.176 -10.124   6.174  0.00  0.00    +0.002 C 
ATOM     16  C   UNL     1      -7.457  -9.644   6.850  0.00  0.00    +0.000 C 
ENDBRANCH   5   7
ENDBRANCH  17   8
BRANCH  22   1
ATOM      1  S   UNL     1      -6.858 -10.342  18.275  0.00  0.00    -0.003 S 
ATOM      3  O   UNL     1      -6.178 -10.329  19.562  0.00  0.00    -0.169 OA
ATOM      4  O   UNL     1      -7.769  -9.262  17.925  0.00  0.00    -0.169 OA
BRANCH   1  24
ATOM     24  C   UNL     1      -7.757 -11.873  18.178  0.00  0.00    +0.168 C 
ATOM     25  C   UNL     1      -6.848 -13.029  17.826  0.00  0.00    +0.028 C 
ENDBRANCH   1  24
ENDBRANCH  22   1
TORSDOF 4
ENDMDL
