MODEL 1
REMARK VINA RESULT:      -5.6      0.000      0.000
REMARK  Name = 56774033
REMARK  11 active torsions:
REMARK  status: ('A' for Active; 'I' for Inactive)
REMARK    1  A    between atoms: N_3  and  C_9
REMARK    2  A    between atoms: N_5  and  C_19
REMARK    3  A    between atoms: N_6  and  C_18
REMARK    4  A    between atoms: N_6  and  C_21
REMARK    5  A    between atoms: N_6  and  C_22
REMARK    6  A    between atoms: C_7  and  C_12
REMARK    7  A    between atoms: C_7  and  C_13
REMARK    8  A    between atoms: C_8  and  C_11
REMARK    9  A    between atoms: C_11  and  C_14
REMARK   10  A    between atoms: C_17  and  C_18
REMARK   11  A    between atoms: C_19  and  C_20
REMARK                            x       y       z     vdW  Elec       q    Type
REMARK                         _______ _______ _______ _____ _____    ______ ____
ROOT
ATOM      7  C   UNL     1      -6.300 -11.536  17.906  0.00  0.00    -0.013 C 
ATOM      8  C   UNL     1      -5.435 -10.929  16.781  0.00  0.00    +0.004 C 
ATOM      9  C   UNL     1      -7.481 -10.728  17.331  0.00  0.00    +0.081 C 
ATOM     10  C   UNL     1      -6.433  -9.752  16.755  0.00  0.00    +0.027 C 
ATOM     12  C   UNL     1      -5.935 -11.116  19.318  0.00  0.00    +0.013 C 
ATOM     13  C   UNL     1      -6.421 -13.042  17.830  0.00  0.00    +0.013 C 
ENDROOT
BRANCH   9   3
ATOM      2  O   UNL     1     -10.016 -11.752  18.260  0.00  0.00    -0.253 OA
ATOM      3  N   UNL     1      -8.377 -10.112  18.324  0.00  0.00    -0.296 N 
ATOM      5  N   UNL     1     -10.243  -9.911  19.657  0.00  0.00    -0.300 N 
ATOM     15  C   UNL     1      -9.587 -10.689  18.708  0.00  0.00    +0.300 C 
ATOM     23  H   UNL     1      -8.128  -9.226  18.757  0.00  0.00    +0.151 HD
ATOM     24  H   UNL     1      -9.813  -9.041  19.961  0.00  0.00    +0.150 HD
BRANCH   5  19
ATOM     19  C   UNL     1     -11.518 -10.282  20.223  0.00  0.00    +0.102 C 
ATOM     20  C   UNL     1     -12.668  -9.700  19.427  0.00  0.00    +0.024 C 
ENDBRANCH   5  19
ENDBRANCH   9   3
BRANCH   8  11
ATOM     11  C   UNL     1      -4.015 -10.550  17.127  0.00  0.00    +0.063 C 
BRANCH  11  14
ATOM      1  O   UNL     1      -1.312 -10.717  14.743  0.00  0.00    -0.358 OA
ATOM      4  N   UNL     1      -1.806 -10.622  16.038  0.00  0.00    -0.083 NA
ATOM     14  C   UNL     1      -3.135 -10.637  15.903  0.00  0.00    +0.084 A 
ATOM     16  C   UNL     1      -3.534 -10.738  14.559  0.00  0.00    +0.072 A 
ATOM     17  C   UNL     1      -2.351 -10.786  13.870  0.00  0.00    +0.151 A 
BRANCH  17  18
ATOM     18  C   UNL     1      -2.006 -10.892  12.448  0.00  0.00    +0.161 C 
BRANCH  18   6
ATOM      6  N   UNL     1      -3.157 -10.676  11.554  0.00  0.00    -0.301 NA
ATOM     21  C   UNL     1      -2.861  -9.607  10.606  0.00  0.00    +0.105 C 
ATOM     22  C   UNL     1      -3.486 -11.913  10.855  0.00  0.00    +0.105 C 
ENDBRANCH  18   6
ENDBRANCH  17  18
ENDBRANCH  11  14
ENDBRANCH   8  11
TORSDOF 6
ENDMDL
MODEL 2
REMARK VINA RESULT:      -5.5     27.860     31.124
REMARK  Name = 56774033
REMARK  11 active torsions:
REMARK  status: ('A' for Active; 'I' for Inactive)
REMARK    1  A    between atoms: N_3  and  C_9
REMARK    2  A    between atoms: N_5  and  C_19
REMARK    3  A    between atoms: N_6  and  C_18
REMARK    4  A    between atoms: N_6  and  C_21
REMARK    5  A    between atoms: N_6  and  C_22
REMARK    6  A    between atoms: C_7  and  C_12
REMARK    7  A    between atoms: C_7  and  C_13
REMARK    8  A    between atoms: C_8  and  C_11
REMARK    9  A    between atoms: C_11  and  C_14
REMARK   10  A    between atoms: C_17  and  C_18
REMARK   11  A    between atoms: C_19  and  C_20
REMARK                            x       y       z     vdW  Elec       q    Type
REMARK                         _______ _______ _______ _____ _____    ______ ____
ROOT
ATOM      7  C   UNL     1      21.025   6.191  21.109  0.00  0.00    -0.013 C 
ATOM      8  C   UNL     1      19.594   6.256  20.534  0.00  0.00    +0.004 C 
ATOM      9  C   UNL     1      21.237   4.936  20.236  0.00  0.00    +0.081 C 
ATOM     10  C   UNL     1      19.707   4.737  20.286  0.00  0.00    +0.027 C 
ATOM     12  C   UNL     1      21.125   5.895  22.594  0.00  0.00    +0.013 C 
ATOM     13  C   UNL     1      21.871   7.395  20.764  0.00  0.00    +0.013 C 
ENDROOT
BRANCH   9   3
ATOM      2  O   UNL     1      24.050   4.364  19.923  0.00  0.00    -0.253 OA
ATOM      3  N   UNL     1      21.996   3.842  20.864  0.00  0.00    -0.296 N 
ATOM      5  N   UNL     1      23.836   2.549  21.357  0.00  0.00    -0.300 N 
ATOM     15  C   UNL     1      23.359   3.649  20.649  0.00  0.00    +0.300 C 
ATOM     23  H   UNL     1      21.526   3.183  21.481  0.00  0.00    +0.151 HD
ATOM     24  H   UNL     1      23.186   2.013  21.924  0.00  0.00    +0.150 HD
BRANCH   5  19
ATOM     19  C   UNL     1      25.216   2.130  21.308  0.00  0.00    +0.102 C 
ATOM     20  C   UNL     1      25.420   0.809  22.019  0.00  0.00    +0.024 C 
ENDBRANCH   5  19
ENDBRANCH   9   3
BRANCH   8  11
ATOM     11  C   UNL     1      18.487   6.665  21.475  0.00  0.00    +0.063 C 
BRANCH  11  14
ATOM      1  O   UNL     1      15.747   6.343  19.149  0.00  0.00    -0.358 OA
ATOM      4  N   UNL     1      17.095   6.276  19.479  0.00  0.00    -0.083 NA
ATOM     14  C   UNL     1      17.154   6.626  20.767  0.00  0.00    +0.084 A 
ATOM     16  C   UNL     1      15.887   6.923  21.297  0.00  0.00    +0.072 A 
ATOM     17  C   UNL     1      15.037   6.729  20.241  0.00  0.00    +0.151 A 
BRANCH  17  18
ATOM     18  C   UNL     1      13.585   6.850  20.069  0.00  0.00    +0.161 C 
BRANCH  18   6
ATOM      6  N   UNL     1      12.861   7.023  21.340  0.00  0.00    -0.301 NA
ATOM     21  C   UNL     1      12.553   8.433  21.554  0.00  0.00    +0.105 C 
ATOM     22  C   UNL     1      11.644   6.219  21.336  0.00  0.00    +0.105 C 
ENDBRANCH  18   6
ENDBRANCH  17  18
ENDBRANCH  11  14
ENDBRANCH   8  11
TORSDOF 6
ENDMDL
MODEL 3
REMARK VINA RESULT:      -5.5      1.794      2.120
REMARK  Name = 56774033
REMARK  11 active torsions:
REMARK  status: ('A' for Active; 'I' for Inactive)
REMARK    1  A    between atoms: N_3  and  C_9
REMARK    2  A    between atoms: N_5  and  C_19
REMARK    3  A    between atoms: N_6  and  C_18
REMARK    4  A    between atoms: N_6  and  C_21
REMARK    5  A    between atoms: N_6  and  C_22
REMARK    6  A    between atoms: C_7  and  C_12
REMARK    7  A    between atoms: C_7  and  C_13
REMARK    8  A    between atoms: C_8  and  C_11
REMARK    9  A    between atoms: C_11  and  C_14
REMARK   10  A    between atoms: C_17  and  C_18
REMARK   11  A    between atoms: C_19  and  C_20
REMARK                            x       y       z     vdW  Elec       q    Type
REMARK                         _______ _______ _______ _____ _____    ______ ____
ROOT
ATOM      7  C   UNL     1      -6.280 -11.375  17.910  0.00  0.00    -0.013 C 
ATOM      8  C   UNL     1      -5.533 -10.767  16.704  0.00  0.00    +0.004 C 
ATOM      9  C   UNL     1      -7.557 -10.709  17.358  0.00  0.00    +0.081 C 
ATOM     10  C   UNL     1      -6.632  -9.684  16.667  0.00  0.00    +0.027 C 
ATOM     12  C   UNL     1      -5.881 -10.837  19.273  0.00  0.00    +0.013 C 
ATOM     13  C   UNL     1      -6.269 -12.887  17.928  0.00  0.00    +0.013 C 
ENDROOT
BRANCH   9   3
ATOM      2  O   UNL     1     -10.022 -11.820  18.372  0.00  0.00    -0.253 OA
ATOM      3  N   UNL     1      -8.453 -10.112  18.363  0.00  0.00    -0.296 N 
ATOM      5  N   UNL     1     -10.290  -9.963  19.742  0.00  0.00    -0.300 N 
ATOM     15  C   UNL     1      -9.627 -10.732  18.789  0.00  0.00    +0.300 C 
ATOM     23  H   UNL     1      -8.230  -9.209  18.773  0.00  0.00    +0.151 HD
ATOM     24  H   UNL     1      -9.890  -9.071  20.018  0.00  0.00    +0.150 HD
BRANCH   5  19
ATOM     19  C   UNL     1     -11.534 -10.377  20.347  0.00  0.00    +0.102 C 
ATOM     20  C   UNL     1     -12.721  -9.713  19.683  0.00  0.00    +0.024 C 
ENDBRANCH   5  19
ENDBRANCH   9   3
BRANCH   8  11
ATOM     11  C   UNL     1      -4.137 -10.245  16.946  0.00  0.00    +0.063 C 
BRANCH  11  14
ATOM      1  O   UNL     1      -1.231 -11.499  15.212  0.00  0.00    -0.358 OA
ATOM      4  N   UNL     1      -1.843 -10.692  16.164  0.00  0.00    -0.083 NA
ATOM     14  C   UNL     1      -3.148 -10.953  16.050  0.00  0.00    +0.084 A 
ATOM     16  C   UNL     1      -3.417 -11.905  15.052  0.00  0.00    +0.072 A 
ATOM     17  C   UNL     1      -2.179 -12.217  14.557  0.00  0.00    +0.151 A 
BRANCH  17  18
ATOM     18  C   UNL     1      -1.703 -13.128  13.510  0.00  0.00    +0.161 C 
BRANCH  18   6
ATOM      6  N   UNL     1      -1.766 -14.547  13.901  0.00  0.00    -0.301 NA
ATOM     21  C   UNL     1      -2.994 -15.152  13.395  0.00  0.00    +0.105 C 
ATOM     22  C   UNL     1      -0.593 -15.256  13.403  0.00  0.00    +0.105 C 
ENDBRANCH  18   6
ENDBRANCH  17  18
ENDBRANCH  11  14
ENDBRANCH   8  11
TORSDOF 6
ENDMDL
MODEL 4
REMARK VINA RESULT:      -5.4      2.330      7.483
REMARK  Name = 56774033
REMARK  11 active torsions:
REMARK  status: ('A' for Active; 'I' for Inactive)
REMARK    1  A    between atoms: N_3  and  C_9
REMARK    2  A    between atoms: N_5  and  C_19
REMARK    3  A    between atoms: N_6  and  C_18
REMARK    4  A    between atoms: N_6  and  C_21
REMARK    5  A    between atoms: N_6  and  C_22
REMARK    6  A    between atoms: C_7  and  C_12
REMARK    7  A    between atoms: C_7  and  C_13
REMARK    8  A    between atoms: C_8  and  C_11
REMARK    9  A    between atoms: C_11  and  C_14
REMARK   10  A    between atoms: C_17  and  C_18
REMARK   11  A    between atoms: C_19  and  C_20
REMARK                            x       y       z     vdW  Elec       q    Type
REMARK                         _______ _______ _______ _____ _____    ______ ____
ROOT
ATOM      7  C   UNL     1      -4.446 -11.951  18.381  0.00  0.00    -0.013 C 
ATOM      8  C   UNL     1      -5.319 -10.702  18.624  0.00  0.00    +0.004 C 
ATOM      9  C   UNL     1      -3.800 -11.180  17.212  0.00  0.00    +0.081 C 
ATOM     10  C   UNL     1      -5.105 -10.358  17.135  0.00  0.00    +0.027 C 
ATOM     12  C   UNL     1      -5.187 -13.195  17.924  0.00  0.00    +0.013 C 
ATOM     13  C   UNL     1      -3.538 -12.289  19.542  0.00  0.00    +0.013 C 
ENDROOT
BRANCH   9   3
ATOM      2  O   UNL     1      -2.159 -10.408  14.965  0.00  0.00    -0.253 OA
ATOM      3  N   UNL     1      -3.528 -11.968  15.999  0.00  0.00    -0.296 N 
ATOM      5  N   UNL     1      -2.619 -12.439  13.936  0.00  0.00    -0.300 N 
ATOM     15  C   UNL     1      -2.716 -11.505  14.965  0.00  0.00    +0.300 C 
ATOM     23  H   UNL     1      -3.942 -12.891  15.886  0.00  0.00    +0.151 HD
ATOM     24  H   UNL     1      -3.124 -13.316  14.022  0.00  0.00    +0.150 HD
BRANCH   5  19
ATOM     19  C   UNL     1      -1.838 -12.207  12.745  0.00  0.00    +0.102 C 
ATOM     20  C   UNL     1      -2.622 -11.425  11.712  0.00  0.00    +0.024 C 
ENDBRANCH   5  19
ENDBRANCH   9   3
BRANCH   8  11
ATOM     11  C   UNL     1      -6.758 -10.929  19.021  0.00  0.00    +0.063 C 
BRANCH  11  14
ATOM      1  O   UNL     1      -9.087 -10.581  16.287  0.00  0.00    -0.358 OA
ATOM      4  N   UNL     1      -8.333 -11.342  17.171  0.00  0.00    -0.083 NA
ATOM     14  C   UNL     1      -7.687 -10.452  17.930  0.00  0.00    +0.084 A 
ATOM     16  C   UNL     1      -7.990  -9.127  17.574  0.00  0.00    +0.072 A 
ATOM     17  C   UNL     1      -8.875  -9.263  16.537  0.00  0.00    +0.151 A 
BRANCH  17  18
ATOM     18  C   UNL     1      -9.600  -8.311  15.688  0.00  0.00    +0.161 C 
BRANCH  18   6
ATOM      6  N   UNL     1     -10.476  -7.403  16.450  0.00  0.00    -0.301 NA
ATOM     21  C   UNL     1     -10.758  -6.205  15.667  0.00  0.00    +0.105 C 
ATOM     22  C   UNL     1     -11.711  -8.089  16.814  0.00  0.00    +0.105 C 
ENDBRANCH  18   6
ENDBRANCH  17  18
ENDBRANCH  11  14
ENDBRANCH   8  11
TORSDOF 6
ENDMDL
MODEL 5
REMARK VINA RESULT:      -5.4     22.703     26.672
REMARK  Name = 56774033
REMARK  11 active torsions:
REMARK  status: ('A' for Active; 'I' for Inactive)
REMARK    1  A    between atoms: N_3  and  C_9
REMARK    2  A    between atoms: N_5  and  C_19
REMARK    3  A    between atoms: N_6  and  C_18
REMARK    4  A    between atoms: N_6  and  C_21
REMARK    5  A    between atoms: N_6  and  C_22
REMARK    6  A    between atoms: C_7  and  C_12
REMARK    7  A    between atoms: C_7  and  C_13
REMARK    8  A    between atoms: C_8  and  C_11
REMARK    9  A    between atoms: C_11  and  C_14
REMARK   10  A    between atoms: C_17  and  C_18
REMARK   11  A    between atoms: C_19  and  C_20
REMARK                            x       y       z     vdW  Elec       q    Type
REMARK                         _______ _______ _______ _____ _____    ______ ____
ROOT
ATOM      7  C   UNL     1      10.091   6.770   4.680  0.00  0.00    -0.013 C 
ATOM      8  C   UNL     1      10.676   6.240   3.353  0.00  0.00    +0.004 C 
ATOM      9  C   UNL     1      10.803   5.592   5.376  0.00  0.00    +0.081 C 
ATOM     10  C   UNL     1      10.735   4.852   4.024  0.00  0.00    +0.027 C 
ATOM     12  C   UNL     1       8.580   6.701   4.809  0.00  0.00    +0.013 C 
ATOM     13  C   UNL     1      10.577   8.155   5.044  0.00  0.00    +0.013 C 
ENDROOT
BRANCH   9   3
ATOM      2  O   UNL     1      11.300   5.757   8.216  0.00  0.00    -0.253 OA
ATOM      3  N   UNL     1      10.044   4.931   6.450  0.00  0.00    -0.296 N 
ATOM      5  N   UNL     1       9.494   4.349   8.609  0.00  0.00    -0.300 N 
ATOM     15  C   UNL     1      10.364   5.074   7.799  0.00  0.00    +0.300 C 
ATOM     23  H   UNL     1       9.251   4.335   6.223  0.00  0.00    +0.151 HD
ATOM     24  H   UNL     1       8.755   3.807   8.171  0.00  0.00    +0.150 HD
BRANCH   5  19
ATOM     19  C   UNL     1       9.606   4.326  10.048  0.00  0.00    +0.102 C 
ATOM     20  C   UNL     1       8.318   4.767  10.711  0.00  0.00    +0.024 C 
ENDBRANCH   5  19
ENDBRANCH   9   3
BRANCH   8  11
ATOM     11  C   UNL     1       9.795   6.317   2.129  0.00  0.00    +0.063 C 
BRANCH  11  14
ATOM      1  O   UNL     1      10.456   4.136  -0.669  0.00  0.00    -0.358 OA
ATOM      4  N   UNL     1       9.605   4.722   0.259  0.00  0.00    -0.083 NA
ATOM     14  C   UNL     1      10.391   5.507   1.002  0.00  0.00    +0.084 A 
ATOM     16  C   UNL     1      11.734   5.457   0.593  0.00  0.00    +0.072 A 
ATOM     17  C   UNL     1      11.722   4.581  -0.460  0.00  0.00    +0.151 A 
BRANCH  17  18
ATOM     18  C   UNL     1      12.757   4.059  -1.360  0.00  0.00    +0.161 C 
BRANCH  18   6
ATOM      6  N   UNL     1      12.353   4.066  -2.777  0.00  0.00    -0.301 NA
ATOM     21  C   UNL     1      13.126   5.061  -3.513  0.00  0.00    +0.105 C 
ATOM     22  C   UNL     1      12.530   2.739  -3.354  0.00  0.00    +0.105 C 
ENDBRANCH  18   6
ENDBRANCH  17  18
ENDBRANCH  11  14
ENDBRANCH   8  11
TORSDOF 6
ENDMDL
MODEL 6
REMARK VINA RESULT:      -5.4     19.072     21.709
REMARK  Name = 56774033
REMARK  11 active torsions:
REMARK  status: ('A' for Active; 'I' for Inactive)
REMARK    1  A    between atoms: N_3  and  C_9
REMARK    2  A    between atoms: N_5  and  C_19
REMARK    3  A    between atoms: N_6  and  C_18
REMARK    4  A    between atoms: N_6  and  C_21
REMARK    5  A    between atoms: N_6  and  C_22
REMARK    6  A    between atoms: C_7  and  C_12
REMARK    7  A    between atoms: C_7  and  C_13
REMARK    8  A    between atoms: C_8  and  C_11
REMARK    9  A    between atoms: C_11  and  C_14
REMARK   10  A    between atoms: C_17  and  C_18
REMARK   11  A    between atoms: C_19  and  C_20
REMARK                            x       y       z     vdW  Elec       q    Type
REMARK                         _______ _______ _______ _____ _____    ______ ____
ROOT
ATOM      7  C   UNL     1     -12.437   8.934  19.396  0.00  0.00    -0.013 C 
ATOM      8  C   UNL     1     -12.501   7.399  19.553  0.00  0.00    +0.004 C 
ATOM      9  C   UNL     1     -11.611   8.692  18.115  0.00  0.00    +0.081 C 
ATOM     10  C   UNL     1     -11.197   7.338  18.731  0.00  0.00    +0.027 C 
ATOM     12  C   UNL     1     -11.656   9.674  20.466  0.00  0.00    +0.013 C 
ATOM     13  C   UNL     1     -13.791   9.579  19.205  0.00  0.00    +0.013 C 
ENDROOT
BRANCH   9   3
ATOM      2  O   UNL     1     -11.546  10.989  16.367  0.00  0.00    -0.253 OA
ATOM      3  N   UNL     1     -10.482   9.613  17.900  0.00  0.00    -0.296 N 
ATOM      5  N   UNL     1      -9.354  11.410  17.008  0.00  0.00    -0.300 N 
ATOM     15  C   UNL     1     -10.551  10.699  17.030  0.00  0.00    +0.300 C 
ATOM     23  H   UNL     1      -9.603   9.467  18.392  0.00  0.00    +0.151 HD
ATOM     24  H   UNL     1      -8.582  11.088  17.585  0.00  0.00    +0.150 HD
BRANCH   5  19
ATOM     19  C   UNL     1      -9.158  12.582  16.188  0.00  0.00    +0.102 C 
ATOM     20  C   UNL     1      -7.852  13.274  16.513  0.00  0.00    +0.024 C 
ENDBRANCH   5  19
ENDBRANCH   9   3
BRANCH   8  11
ATOM     11  C   UNL     1     -12.396   6.841  20.952  0.00  0.00    +0.063 C 
BRANCH  11  14
ATOM      1  O   UNL     1     -14.912   4.597  22.236  0.00  0.00    -0.358 OA
ATOM      4  N   UNL     1     -13.595   5.017  22.094  0.00  0.00    -0.083 NA
ATOM     14  C   UNL     1     -13.661   6.104  21.320  0.00  0.00    +0.084 A 
ATOM     16  C   UNL     1     -14.979   6.414  20.946  0.00  0.00    +0.072 A 
ATOM     17  C   UNL     1     -15.728   5.437  21.548  0.00  0.00    +0.151 A 
BRANCH  17  18
ATOM     18  C   UNL     1     -17.163   5.137  21.591  0.00  0.00    +0.161 C 
BRANCH  18   6
ATOM      6  N   UNL     1     -17.504   3.835  20.992  0.00  0.00    -0.301 NA
ATOM     21  C   UNL     1     -18.200   3.002  21.967  0.00  0.00    +0.105 C 
ATOM     22  C   UNL     1     -18.318   4.030  19.798  0.00  0.00    +0.105 C 
ENDBRANCH  18   6
ENDBRANCH  17  18
ENDBRANCH  11  14
ENDBRANCH   8  11
TORSDOF 6
ENDMDL
MODEL 7
REMARK VINA RESULT:      -5.3      1.536      8.333
REMARK  Name = 56774033
REMARK  11 active torsions:
REMARK  status: ('A' for Active; 'I' for Inactive)
REMARK    1  A    between atoms: N_3  and  C_9
REMARK    2  A    between atoms: N_5  and  C_19
REMARK    3  A    between atoms: N_6  and  C_18
REMARK    4  A    between atoms: N_6  and  C_21
REMARK    5  A    between atoms: N_6  and  C_22
REMARK    6  A    between atoms: C_7  and  C_12
REMARK    7  A    between atoms: C_7  and  C_13
REMARK    8  A    between atoms: C_8  and  C_11
REMARK    9  A    between atoms: C_11  and  C_14
REMARK   10  A    between atoms: C_17  and  C_18
REMARK   11  A    between atoms: C_19  and  C_20
REMARK                            x       y       z     vdW  Elec       q    Type
REMARK                         _______ _______ _______ _____ _____    ______ ____
ROOT
ATOM      7  C   UNL     1      -5.426 -11.114  16.315  0.00  0.00    -0.013 C 
ATOM      8  C   UNL     1      -5.125 -11.439  17.794  0.00  0.00    +0.004 C 
ATOM      9  C   UNL     1      -3.971 -11.523  16.008  0.00  0.00    +0.081 C 
ATOM     10  C   UNL     1      -3.641 -11.162  17.472  0.00  0.00    +0.027 C 
ATOM     12  C   UNL     1      -5.703  -9.654  16.004  0.00  0.00    +0.013 C 
ATOM     13  C   UNL     1      -6.506 -11.985  15.713  0.00  0.00    +0.013 C 
ENDROOT
BRANCH   9   3
ATOM      2  O   UNL     1      -3.286 -12.234  13.294  0.00  0.00    -0.253 OA
ATOM      3  N   UNL     1      -3.267 -10.686  15.021  0.00  0.00    -0.296 N 
ATOM      5  N   UNL     1      -2.313 -10.146  12.997  0.00  0.00    -0.300 N 
ATOM     15  C   UNL     1      -2.982 -11.123  13.728  0.00  0.00    +0.300 C 
ATOM     23  H   UNL     1      -2.961  -9.749  15.272  0.00  0.00    +0.151 HD
ATOM     24  H   UNL     1      -2.096  -9.261  13.445  0.00  0.00    +0.150 HD
BRANCH   5  19
ATOM     19  C   UNL     1      -1.901 -10.344  11.628  0.00  0.00    +0.102 C 
ATOM     20  C   UNL     1      -2.792  -9.587  10.666  0.00  0.00    +0.024 C 
ENDBRANCH   5  19
ENDBRANCH   9   3
BRANCH   8  11
ATOM     11  C   UNL     1      -5.728 -10.531  18.839  0.00  0.00    +0.063 C 
BRANCH  11  14
ATOM      1  O   UNL     1      -8.725 -12.071  20.129  0.00  0.00    -0.358 OA
ATOM      4  N   UNL     1      -7.345 -11.919  20.076  0.00  0.00    -0.083 NA
ATOM     14  C   UNL     1      -7.137 -10.966  19.163  0.00  0.00    +0.084 A 
ATOM     16  C   UNL     1      -8.336 -10.484  18.612  0.00  0.00    +0.072 A 
ATOM     17  C   UNL     1      -9.305 -11.210  19.253  0.00  0.00    +0.151 A 
BRANCH  17  18
ATOM     18  C   UNL     1     -10.770 -11.237  19.180  0.00  0.00    +0.161 C 
BRANCH  18   6
ATOM      6  N   UNL     1     -11.391  -9.934  19.475  0.00  0.00    -0.301 NA
ATOM     21  C   UNL     1     -11.946  -9.356  18.256  0.00  0.00    +0.105 C 
ATOM     22  C   UNL     1     -12.424 -10.091  20.493  0.00  0.00    +0.105 C 
ENDBRANCH  18   6
ENDBRANCH  17  18
ENDBRANCH  11  14
ENDBRANCH   8  11
TORSDOF 6
ENDMDL
MODEL 8
REMARK VINA RESULT:      -5.3      3.432      8.835
REMARK  Name = 56774033
REMARK  11 active torsions:
REMARK  status: ('A' for Active; 'I' for Inactive)
REMARK    1  A    between atoms: N_3  and  C_9
REMARK    2  A    between atoms: N_5  and  C_19
REMARK    3  A    between atoms: N_6  and  C_18
REMARK    4  A    between atoms: N_6  and  C_21
REMARK    5  A    between atoms: N_6  and  C_22
REMARK    6  A    between atoms: C_7  and  C_12
REMARK    7  A    between atoms: C_7  and  C_13
REMARK    8  A    between atoms: C_8  and  C_11
REMARK    9  A    between atoms: C_11  and  C_14
REMARK   10  A    between atoms: C_17  and  C_18
REMARK   11  A    between atoms: C_19  and  C_20
REMARK                            x       y       z     vdW  Elec       q    Type
REMARK                         _______ _______ _______ _____ _____    ______ ____
ROOT
ATOM      7  C   UNL     1      -4.195  -9.906  10.749  0.00  0.00    -0.013 C 
ATOM      8  C   UNL     1      -3.604 -10.886  11.785  0.00  0.00    +0.004 C 
ATOM      9  C   UNL     1      -4.608 -11.145   9.927  0.00  0.00    +0.081 C 
ATOM     10  C   UNL     1      -3.461 -11.900  10.631  0.00  0.00    +0.027 C 
ATOM     12  C   UNL     1      -3.190  -9.030  10.023  0.00  0.00    +0.013 C 
ATOM     13  C   UNL     1      -5.323  -9.059  11.292  0.00  0.00    +0.013 C 
ENDROOT
BRANCH   9   3
ATOM      2  O   UNL     1      -6.668 -11.290   7.909  0.00  0.00    -0.253 OA
ATOM      3  N   UNL     1      -4.433 -11.031   8.469  0.00  0.00    -0.296 N 
ATOM      5  N   UNL     1      -5.066 -10.976   6.256  0.00  0.00    -0.300 N 
ATOM     15  C   UNL     1      -5.497 -11.115   7.573  0.00  0.00    +0.300 C 
ATOM     23  H   UNL     1      -3.506 -10.891   8.076  0.00  0.00    +0.151 HD
ATOM     24  H   UNL     1      -4.075 -10.844   6.076  0.00  0.00    +0.150 HD
BRANCH   5  19
ATOM     19  C   UNL     1      -5.970 -11.025   5.132  0.00  0.00    +0.102 C 
ATOM     20  C   UNL     1      -5.493 -12.004   4.080  0.00  0.00    +0.024 C 
ENDBRANCH   5  19
ENDBRANCH   9   3
BRANCH   8  11
ATOM     11  C   UNL     1      -2.307 -10.493  12.449  0.00  0.00    +0.063 C 
BRANCH  11  14
ATOM      1  O   UNL     1      -1.897 -10.319  16.030  0.00  0.00    -0.358 OA
ATOM      4  N   UNL     1      -1.450 -10.121  14.730  0.00  0.00    -0.083 NA
ATOM     14  C   UNL     1      -2.444 -10.557  13.952  0.00  0.00    +0.084 A 
ATOM     16  C   UNL     1      -3.533 -11.038  14.698  0.00  0.00    +0.072 A 
ATOM     17  C   UNL     1      -3.140 -10.866  15.999  0.00  0.00    +0.151 A 
BRANCH  17  18
ATOM     18  C   UNL     1      -3.766 -11.143  17.296  0.00  0.00    +0.161 C 
BRANCH  18   6
ATOM      6  N   UNL     1      -5.138 -11.667  17.178  0.00  0.00    -0.301 NA
ATOM     21  C   UNL     1      -5.307 -12.827  18.048  0.00  0.00    +0.105 C 
ATOM     22  C   UNL     1      -6.103 -10.625  17.508  0.00  0.00    +0.105 C 
ENDBRANCH  18   6
ENDBRANCH  17  18
ENDBRANCH  11  14
ENDBRANCH   8  11
TORSDOF 6
ENDMDL
MODEL 9
REMARK VINA RESULT:      -5.1      2.467      8.464
REMARK  Name = 56774033
REMARK  11 active torsions:
REMARK  status: ('A' for Active; 'I' for Inactive)
REMARK    1  A    between atoms: N_3  and  C_9
REMARK    2  A    between atoms: N_5  and  C_19
REMARK    3  A    between atoms: N_6  and  C_18
REMARK    4  A    between atoms: N_6  and  C_21
REMARK    5  A    between atoms: N_6  and  C_22
REMARK    6  A    between atoms: C_7  and  C_12
REMARK    7  A    between atoms: C_7  and  C_13
REMARK    8  A    between atoms: C_8  and  C_11
REMARK    9  A    between atoms: C_11  and  C_14
REMARK   10  A    between atoms: C_17  and  C_18
REMARK   11  A    between atoms: C_19  and  C_20
REMARK                            x       y       z     vdW  Elec       q    Type
REMARK                         _______ _______ _______ _____ _____    ______ ____
ROOT
ATOM      7  C   UNL     1      -5.554 -11.232  16.469  0.00  0.00    -0.013 C 
ATOM      8  C   UNL     1      -5.188 -11.588  17.925  0.00  0.00    +0.004 C 
ATOM      9  C   UNL     1      -4.097 -11.578  16.098  0.00  0.00    +0.081 C 
ATOM     10  C   UNL     1      -3.728 -11.248  17.560  0.00  0.00    +0.027 C 
ATOM     12  C   UNL     1      -5.894  -9.775  16.212  0.00  0.00    +0.013 C 
ATOM     13  C   UNL     1      -6.624 -12.123  15.879  0.00  0.00    +0.013 C 
ENDROOT
BRANCH   9   3
ATOM      2  O   UNL     1      -2.985 -12.325  13.539  0.00  0.00    -0.253 OA
ATOM      3  N   UNL     1      -3.460 -10.688  15.113  0.00  0.00    -0.296 N 
ATOM      5  N   UNL     1      -2.404 -10.110  13.151  0.00  0.00    -0.300 N 
ATOM     15  C   UNL     1      -2.952 -11.148  13.899  0.00  0.00    +0.300 C 
ATOM     23  H   UNL     1      -3.371  -9.694  15.306  0.00  0.00    +0.151 HD
ATOM     24  H   UNL     1      -2.414  -9.170  13.536  0.00  0.00    +0.150 HD
BRANCH   5  19
ATOM     19  C   UNL     1      -1.809 -10.315  11.852  0.00  0.00    +0.102 C 
ATOM     20  C   UNL     1      -2.623  -9.657  10.759  0.00  0.00    +0.024 C 
ENDBRANCH   5  19
ENDBRANCH   9   3
BRANCH   8  11
ATOM     11  C   UNL     1      -5.784 -10.734  19.018  0.00  0.00    +0.063 C 
BRANCH  11  14
ATOM      1  O   UNL     1      -9.193 -11.252  20.080  0.00  0.00    -0.358 OA
ATOM      4  N   UNL     1      -8.118 -10.436  19.750  0.00  0.00    -0.083 NA
ATOM     14  C   UNL     1      -7.129 -11.278  19.436  0.00  0.00    +0.084 A 
ATOM     16  C   UNL     1      -7.518 -12.623  19.548  0.00  0.00    +0.072 A 
ATOM     17  C   UNL     1      -8.824 -12.553  19.955  0.00  0.00    +0.151 A 
BRANCH  17  18
ATOM     18  C   UNL     1      -9.848 -13.556  20.267  0.00  0.00    +0.161 C 
BRANCH  18   6
ATOM      6  N   UNL     1      -9.291 -14.901  20.501  0.00  0.00    -0.301 NA
ATOM     21  C   UNL     1      -9.000 -15.083  21.919  0.00  0.00    +0.105 C 
ATOM     22  C   UNL     1     -10.223 -15.917  20.026  0.00  0.00    +0.105 C 
ENDBRANCH  18   6
ENDBRANCH  17  18
ENDBRANCH  11  14
ENDBRANCH   8  11
TORSDOF 6
ENDMDL
MODEL 10
REMARK VINA RESULT:      -5.1     29.054     30.749
REMARK  Name = 56774033
REMARK  11 active torsions:
REMARK  status: ('A' for Active; 'I' for Inactive)
REMARK    1  A    between atoms: N_3  and  C_9
REMARK    2  A    between atoms: N_5  and  C_19
REMARK    3  A    between atoms: N_6  and  C_18
REMARK    4  A    between atoms: N_6  and  C_21
REMARK    5  A    between atoms: N_6  and  C_22
REMARK    6  A    between atoms: C_7  and  C_12
REMARK    7  A    between atoms: C_7  and  C_13
REMARK    8  A    between atoms: C_8  and  C_11
REMARK    9  A    between atoms: C_11  and  C_14
REMARK   10  A    between atoms: C_17  and  C_18
REMARK   11  A    between atoms: C_19  and  C_20
REMARK                            x       y       z     vdW  Elec       q    Type
REMARK                         _______ _______ _______ _____ _____    ______ ____
ROOT
ATOM      7  C   UNL     1      14.827  -6.068  -4.040  0.00  0.00    -0.013 C 
ATOM      8  C   UNL     1      16.047  -5.123  -4.056  0.00  0.00    +0.004 C 
ATOM      9  C   UNL     1      14.920  -6.091  -5.580  0.00  0.00    +0.081 C 
ATOM     10  C   UNL     1      15.617  -4.717  -5.481  0.00  0.00    +0.027 C 
ATOM     12  C   UNL     1      13.528  -5.461  -3.542  0.00  0.00    +0.013 C 
ATOM     13  C   UNL     1      15.087  -7.381  -3.336  0.00  0.00    +0.013 C 
ENDROOT
BRANCH   9   3
ATOM      2  O   UNL     1      13.568  -8.302  -6.853  0.00  0.00    -0.253 OA
ATOM      3  N   UNL     1      13.636  -6.051  -6.299  0.00  0.00    -0.296 N 
ATOM      5  N   UNL     1      11.852  -6.875  -7.498  0.00  0.00    -0.300 N 
ATOM     15  C   UNL     1      13.063  -7.180  -6.882  0.00  0.00    +0.300 C 
ATOM     23  H   UNL     1      13.130  -5.173  -6.392  0.00  0.00    +0.151 HD
ATOM     24  H   UNL     1      11.519  -5.915  -7.478  0.00  0.00    +0.150 HD
BRANCH   5  19
ATOM     19  C   UNL     1      11.053  -7.866  -8.178  0.00  0.00    +0.102 C 
ATOM     20  C   UNL     1       9.640  -7.374  -8.411  0.00  0.00    +0.024 C 
ENDBRANCH   5  19
ENDBRANCH   9   3
BRANCH   8  11
ATOM     11  C   UNL     1      16.062  -3.996  -3.052  0.00  0.00    +0.063 C 
BRANCH  11  14
ATOM      1  O   UNL     1      19.175  -2.809  -1.666  0.00  0.00    -0.358 OA
ATOM      4  N   UNL     1      17.896  -2.606  -2.169  0.00  0.00    -0.083 NA
ATOM     14  C   UNL     1      17.446  -3.827  -2.472  0.00  0.00    +0.084 A 
ATOM     16  C   UNL     1      18.389  -4.829  -2.185  0.00  0.00    +0.072 A 
ATOM     17  C   UNL     1      19.457  -4.137  -1.680  0.00  0.00    +0.151 A 
BRANCH  17  18
ATOM     18  C   UNL     1      20.778  -4.531  -1.177  0.00  0.00    +0.161 C 
BRANCH  18   6
ATOM      6  N   UNL     1      20.715  -5.527  -0.093  0.00  0.00    -0.301 NA
ATOM     21  C   UNL     1      22.060  -5.848   0.371  0.00  0.00    +0.105 C 
ATOM     22  C   UNL     1      19.893  -5.024   1.001  0.00  0.00    +0.105 C 
ENDBRANCH  18   6
ENDBRANCH  17  18
ENDBRANCH  11  14
ENDBRANCH   8  11
TORSDOF 6
ENDMDL
