MODEL 1
REMARK VINA RESULT:      -6.5      0.000      0.000
REMARK  Name = 25390478
REMARK  9 active torsions:
REMARK  status: ('A' for Active; 'I' for Inactive)
REMARK    1  A    between atoms: O_3  and  C_12
REMARK    2  A    between atoms: O_4  and  C_13
REMARK    3  A    between atoms: N_6  and  C_8
REMARK    4  A    between atoms: N_7  and  C_16
REMARK    5  A    between atoms: N_7  and  C_18
REMARK    6  A    between atoms: C_9  and  C_15
REMARK    7  A    between atoms: C_14  and  C_16
REMARK    8  A    between atoms: C_15  and  C_17
REMARK    9  A    between atoms: C_18  and  C_19
REMARK                            x       y       z     vdW  Elec       q    Type
REMARK                         _______ _______ _______ _____ _____    ______ ____
ROOT
ATOM      2  O   UNL     1      11.934   9.017  20.126  0.00  0.00    -0.366 OA
ATOM      9  C   UNL     1      11.626   7.683  19.684  0.00  0.00    +0.158 C 
ATOM     12  C   UNL     1      11.893   6.783  20.878  0.00  0.00    +0.175 C 
ATOM     13  C   UNL     1      11.463   7.670  22.029  0.00  0.00    +0.175 C 
ATOM     14  C   UNL     1      11.949   9.040  21.572  0.00  0.00    +0.163 C 
ENDROOT
BRANCH  12   3
ATOM      3  O   UNL     1      11.168   5.574  20.804  0.00  0.00    -0.387 OA
ATOM     26  H   UNL     1      11.127   5.203  21.701  0.00  0.00    +0.210 HD
ENDBRANCH  12   3
BRANCH  13   4
ATOM      4  O   UNL     1      10.039   7.711  22.117  0.00  0.00    -0.387 OA
ATOM     27  H   UNL     1       9.717   8.229  21.359  0.00  0.00    +0.210 HD
ENDBRANCH  13   4
BRANCH   9  15
ATOM     15  C   UNL     1      12.470   7.339  18.470  0.00  0.00    +0.130 C 
BRANCH  15  17
ATOM      5  O   UNL     1      11.825   8.544  16.473  0.00  0.00    -0.276 OA
ATOM      6  N   UNL     1      13.503   9.411  17.823  0.00  0.00    -0.312 N 
ATOM     17  C   UNL     1      12.540   8.476  17.469  0.00  0.00    +0.216 C 
ATOM     25  H   UNL     1      14.056   9.272  18.664  0.00  0.00    +0.149 HD
BRANCH   6   8
ATOM      8  C   UNL     1      13.765  10.583  17.037  0.00  0.00    +0.073 C 
ATOM     10  C   UNL     1      15.034  11.364  17.209  0.00  0.00    +0.024 C 
ATOM     11  C   UNL     1      14.804  10.575  15.954  0.00  0.00    +0.024 C 
ENDBRANCH   6   8
ENDBRANCH  15  17
ENDBRANCH   9  15
BRANCH  14  16
ATOM     16  C   UNL     1      13.371   9.348  22.018  0.00  0.00    +0.115 C 
BRANCH  16   7
ATOM      7  N   UNL     1      14.252   9.532  20.872  0.00  0.00    -0.309 NA
ATOM     28  H   UNL     1      14.096   8.779  20.202  0.00  0.00    +0.122 HD
BRANCH   7  18
ATOM     18  C   UNL     1      15.648   9.545  21.284  0.00  0.00    +0.116 C 
BRANCH  18  19
ATOM      1  F   UNL     1      18.447   5.049  19.361  0.00  0.00    -0.205 F 
ATOM     19  C   UNL     1      16.396   8.344  20.770  0.00  0.00    -0.033 A 
ATOM     20  C   UNL     1      17.677   8.062  21.248  0.00  0.00    +0.008 A 
ATOM     21  C   UNL     1      15.810   7.513  19.816  0.00  0.00    +0.008 A 
ATOM     22  C   UNL     1      18.370   6.949  20.771  0.00  0.00    +0.038 A 
ATOM     23  C   UNL     1      16.502   6.400  19.340  0.00  0.00    +0.038 A 
ATOM     24  C   UNL     1      17.783   6.118  19.818  0.00  0.00    +0.123 A 
ENDBRANCH  18  19
ENDBRANCH   7  18
ENDBRANCH  16   7
ENDBRANCH  14  16
TORSDOF 9
ENDMDL
MODEL 2
REMARK VINA RESULT:      -6.3      2.033      3.793
REMARK  Name = 25390478
REMARK  9 active torsions:
REMARK  status: ('A' for Active; 'I' for Inactive)
REMARK    1  A    between atoms: O_3  and  C_12
REMARK    2  A    between atoms: O_4  and  C_13
REMARK    3  A    between atoms: N_6  and  C_8
REMARK    4  A    between atoms: N_7  and  C_16
REMARK    5  A    between atoms: N_7  and  C_18
REMARK    6  A    between atoms: C_9  and  C_15
REMARK    7  A    between atoms: C_14  and  C_16
REMARK    8  A    between atoms: C_15  and  C_17
REMARK    9  A    between atoms: C_18  and  C_19
REMARK                            x       y       z     vdW  Elec       q    Type
REMARK                         _______ _______ _______ _____ _____    ______ ____
ROOT
ATOM      2  O   UNL     1      13.234   6.687  20.296  0.00  0.00    -0.366 OA
ATOM      9  C   UNL     1      11.857   7.098  20.373  0.00  0.00    +0.158 C 
ATOM     12  C   UNL     1      11.738   8.305  19.458  0.00  0.00    +0.175 C 
ATOM     13  C   UNL     1      12.699   7.938  18.345  0.00  0.00    +0.175 C 
ATOM     14  C   UNL     1      13.831   7.266  19.114  0.00  0.00    +0.163 C 
ENDROOT
BRANCH  12   3
ATOM      3  O   UNL     1      10.413   8.501  19.010  0.00  0.00    -0.387 OA
ATOM     26  H   UNL     1      10.154   7.710  18.510  0.00  0.00    +0.210 HD
ENDBRANCH  12   3
BRANCH  13   4
ATOM      4  O   UNL     1      12.110   6.966  17.483  0.00  0.00    -0.387 OA
ATOM     27  H   UNL     1      12.826   6.577  16.952  0.00  0.00    +0.210 HD
ENDBRANCH  13   4
BRANCH   9  15
ATOM     15  C   UNL     1      11.493   7.399  21.816  0.00  0.00    +0.130 C 
BRANCH  15  17
ATOM      5  O   UNL     1      10.801   9.663  22.322  0.00  0.00    -0.276 OA
ATOM      6  N   UNL     1      13.064   9.146  22.328  0.00  0.00    -0.312 N 
ATOM     17  C   UNL     1      11.715   8.855  22.180  0.00  0.00    +0.216 C 
ATOM     25  H   UNL     1      13.756   8.416  22.185  0.00  0.00    +0.149 HD
BRANCH   6   8
ATOM      8  C   UNL     1      13.537  10.456  22.670  0.00  0.00    +0.073 C 
ATOM     10  C   UNL     1      14.996  10.717  22.908  0.00  0.00    +0.024 C 
ATOM     11  C   UNL     1      14.322  11.280  21.691  0.00  0.00    +0.024 C 
ENDBRANCH   6   8
ENDBRANCH  15  17
ENDBRANCH   9  15
BRANCH  14  16
ATOM     16  C   UNL     1      14.907   8.242  19.566  0.00  0.00    +0.115 C 
BRANCH  16   7
ATOM      7  N   UNL     1      15.580   7.763  20.765  0.00  0.00    -0.309 NA
ATOM     28  H   UNL     1      15.040   8.037  21.586  0.00  0.00    +0.122 HD
BRANCH   7  18
ATOM     18  C   UNL     1      16.929   8.304  20.858  0.00  0.00    +0.116 C 
BRANCH  18  19
ATOM      1  F   UNL     1      20.847   4.287  20.348  0.00  0.00    -0.205 F 
ATOM     19  C   UNL     1      17.975   7.230  20.723  0.00  0.00    -0.033 A 
ATOM     20  C   UNL     1      17.806   6.205  19.791  0.00  0.00    +0.008 A 
ATOM     21  C   UNL     1      19.114   7.261  21.526  0.00  0.00    +0.008 A 
ATOM     22  C   UNL     1      18.776   5.210  19.665  0.00  0.00    +0.038 A 
ATOM     23  C   UNL     1      20.084   6.266  21.401  0.00  0.00    +0.038 A 
ATOM     24  C   UNL     1      19.914   5.240  20.469  0.00  0.00    +0.123 A 
ENDBRANCH  18  19
ENDBRANCH   7  18
ENDBRANCH  16   7
ENDBRANCH  14  16
TORSDOF 9
ENDMDL
MODEL 3
REMARK VINA RESULT:      -6.3      3.157      4.099
REMARK  Name = 25390478
REMARK  9 active torsions:
REMARK  status: ('A' for Active; 'I' for Inactive)
REMARK    1  A    between atoms: O_3  and  C_12
REMARK    2  A    between atoms: O_4  and  C_13
REMARK    3  A    between atoms: N_6  and  C_8
REMARK    4  A    between atoms: N_7  and  C_16
REMARK    5  A    between atoms: N_7  and  C_18
REMARK    6  A    between atoms: C_9  and  C_15
REMARK    7  A    between atoms: C_14  and  C_16
REMARK    8  A    between atoms: C_15  and  C_17
REMARK    9  A    between atoms: C_18  and  C_19
REMARK                            x       y       z     vdW  Elec       q    Type
REMARK                         _______ _______ _______ _____ _____    ______ ____
ROOT
ATOM      2  O   UNL     1      10.580   8.225  20.301  0.00  0.00    -0.366 OA
ATOM      9  C   UNL     1      11.752   7.914  19.527  0.00  0.00    +0.158 C 
ATOM     12  C   UNL     1      12.696   7.202  20.482  0.00  0.00    +0.175 C 
ATOM     13  C   UNL     1      11.725   6.418  21.341  0.00  0.00    +0.175 C 
ATOM     14  C   UNL     1      10.569   7.400  21.488  0.00  0.00    +0.163 C 
ENDROOT
BRANCH  12   3
ATOM      3  O   UNL     1      13.624   6.385  19.799  0.00  0.00    -0.387 OA
ATOM     26  H   UNL     1      13.665   5.536  20.269  0.00  0.00    +0.210 HD
ENDBRANCH  12   3
BRANCH  13   4
ATOM      4  O   UNL     1      11.249   5.275  20.631  0.00  0.00    -0.387 OA
ATOM     27  H   UNL     1      10.803   4.699  21.276  0.00  0.00    +0.210 HD
ENDBRANCH  13   4
BRANCH   9  15
ATOM     15  C   UNL     1      12.334   9.190  18.945  0.00  0.00    +0.130 C 
BRANCH  15  17
ATOM      5  O   UNL     1      13.082   7.894  17.042  0.00  0.00    -0.276 OA
ATOM      6  N   UNL     1      13.071  10.211  16.896  0.00  0.00    -0.312 N 
ATOM     17  C   UNL     1      12.865   8.997  17.538  0.00  0.00    +0.216 C 
ATOM     25  H   UNL     1      12.870  11.080  17.385  0.00  0.00    +0.149 HD
BRANCH   6   8
ATOM      8  C   UNL     1      13.570  10.299  15.555  0.00  0.00    +0.073 C 
ATOM     10  C   UNL     1      13.941  11.622  14.950  0.00  0.00    +0.024 C 
ATOM     11  C   UNL     1      15.011  10.622  15.281  0.00  0.00    +0.024 C 
ENDBRANCH   6   8
ENDBRANCH  15  17
ENDBRANCH   9  15
BRANCH  14  16
ATOM     16  C   UNL     1      10.716   8.317  22.694  0.00  0.00    +0.115 C 
BRANCH  16   7
ATOM      7  N   UNL     1      10.211   9.652  22.402  0.00  0.00    -0.309 NA
ATOM     28  H   UNL     1      10.205   9.796  21.392  0.00  0.00    +0.122 HD
BRANCH   7  18
ATOM     18  C   UNL     1      11.032  10.671  23.041  0.00  0.00    +0.116 C 
BRANCH  18  19
ATOM      1  F   UNL     1      14.980  12.674  19.556  0.00  0.00    -0.205 F 
ATOM     19  C   UNL     1      12.087  11.207  22.110  0.00  0.00    -0.033 A 
ATOM     20  C   UNL     1      13.394  10.722  22.184  0.00  0.00    +0.008 A 
ATOM     21  C   UNL     1      11.759  12.187  21.174  0.00  0.00    +0.008 A 
ATOM     22  C   UNL     1      14.371  11.219  21.321  0.00  0.00    +0.038 A 
ATOM     23  C   UNL     1      12.736  12.683  20.311  0.00  0.00    +0.038 A 
ATOM     24  C   UNL     1      14.043  12.199  20.385  0.00  0.00    +0.123 A 
ENDBRANCH  18  19
ENDBRANCH   7  18
ENDBRANCH  16   7
ENDBRANCH  14  16
TORSDOF 9
ENDMDL
MODEL 4
REMARK VINA RESULT:      -6.2      2.189      3.325
REMARK  Name = 25390478
REMARK  9 active torsions:
REMARK  status: ('A' for Active; 'I' for Inactive)
REMARK    1  A    between atoms: O_3  and  C_12
REMARK    2  A    between atoms: O_4  and  C_13
REMARK    3  A    between atoms: N_6  and  C_8
REMARK    4  A    between atoms: N_7  and  C_16
REMARK    5  A    between atoms: N_7  and  C_18
REMARK    6  A    between atoms: C_9  and  C_15
REMARK    7  A    between atoms: C_14  and  C_16
REMARK    8  A    between atoms: C_15  and  C_17
REMARK    9  A    between atoms: C_18  and  C_19
REMARK                            x       y       z     vdW  Elec       q    Type
REMARK                         _______ _______ _______ _____ _____    ______ ____
ROOT
ATOM      2  O   UNL     1      12.725   8.637  21.973  0.00  0.00    -0.366 OA
ATOM      9  C   UNL     1      11.379   8.463  22.451  0.00  0.00    +0.158 C 
ATOM     12  C   UNL     1      10.657   7.684  21.365  0.00  0.00    +0.175 C 
ATOM     13  C   UNL     1      11.756   6.769  20.865  0.00  0.00    +0.175 C 
ATOM     14  C   UNL     1      12.976   7.681  20.918  0.00  0.00    +0.163 C 
ENDROOT
BRANCH  12   3
ATOM      3  O   UNL     1       9.536   6.988  21.868  0.00  0.00    -0.387 OA
ATOM     26  H   UNL     1       8.742   7.477  21.594  0.00  0.00    +0.210 HD
ENDBRANCH  12   3
BRANCH  13   4
ATOM      4  O   UNL     1      11.963   5.697  21.785  0.00  0.00    -0.387 OA
ATOM     27  H   UNL     1      11.282   5.025  21.605  0.00  0.00    +0.210 HD
ENDBRANCH  13   4
BRANCH   9  15
ATOM     15  C   UNL     1      10.758   9.819  22.733  0.00  0.00    +0.130 C 
BRANCH  15  17
ATOM      5  O   UNL     1      12.338  11.514  23.434  0.00  0.00    -0.276 OA
ATOM      6  N   UNL     1      11.847  11.293  21.175  0.00  0.00    -0.312 N 
ATOM     17  C   UNL     1      11.733  10.961  22.519  0.00  0.00    +0.216 C 
ATOM     25  H   UNL     1      11.302  10.786  20.483  0.00  0.00    +0.149 HD
BRANCH   6   8
ATOM      8  C   UNL     1      12.707  12.343  20.711  0.00  0.00    +0.073 C 
ATOM     10  C   UNL     1      14.175  12.108  20.504  0.00  0.00    +0.024 C 
ATOM     11  C   UNL     1      13.276  12.323  19.321  0.00  0.00    +0.024 C 
ENDBRANCH   6   8
ENDBRANCH  15  17
ENDBRANCH   9  15
BRANCH  14  16
ATOM     16  C   UNL     1      13.195   8.458  19.628  0.00  0.00    +0.115 C 
BRANCH  16   7
ATOM      7  N   UNL     1      14.538   8.244  19.107  0.00  0.00    -0.309 NA
ATOM     28  H   UNL     1      14.553   8.466  18.112  0.00  0.00    +0.122 HD
BRANCH   7  18
ATOM     18  C   UNL     1      14.963   6.866  19.313  0.00  0.00    +0.116 C 
BRANCH  18  19
ATOM      1  F   UNL     1      20.255   6.559  21.223  0.00  0.00    -0.205 F 
ATOM     19  C   UNL     1      16.377   6.785  19.822  0.00  0.00    -0.033 A 
ATOM     20  C   UNL     1      16.789   7.606  20.873  0.00  0.00    +0.008 A 
ATOM     21  C   UNL     1      17.276   5.888  19.246  0.00  0.00    +0.008 A 
ATOM     22  C   UNL     1      18.099   7.531  21.345  0.00  0.00    +0.038 A 
ATOM     23  C   UNL     1      18.586   5.812  19.719  0.00  0.00    +0.038 A 
ATOM     24  C   UNL     1      18.998   6.634  20.769  0.00  0.00    +0.123 A 
ENDBRANCH  18  19
ENDBRANCH   7  18
ENDBRANCH  16   7
ENDBRANCH  14  16
TORSDOF 9
ENDMDL
MODEL 5
REMARK VINA RESULT:      -6.1      2.193      4.115
REMARK  Name = 25390478
REMARK  9 active torsions:
REMARK  status: ('A' for Active; 'I' for Inactive)
REMARK    1  A    between atoms: O_3  and  C_12
REMARK    2  A    between atoms: O_4  and  C_13
REMARK    3  A    between atoms: N_6  and  C_8
REMARK    4  A    between atoms: N_7  and  C_16
REMARK    5  A    between atoms: N_7  and  C_18
REMARK    6  A    between atoms: C_9  and  C_15
REMARK    7  A    between atoms: C_14  and  C_16
REMARK    8  A    between atoms: C_15  and  C_17
REMARK    9  A    between atoms: C_18  and  C_19
REMARK                            x       y       z     vdW  Elec       q    Type
REMARK                         _______ _______ _______ _____ _____    ______ ____
ROOT
ATOM      2  O   UNL     1      12.878   8.850  22.090  0.00  0.00    -0.366 OA
ATOM      9  C   UNL     1      11.502   8.544  22.377  0.00  0.00    +0.158 C 
ATOM     12  C   UNL     1      10.965   7.861  21.131  0.00  0.00    +0.175 C 
ATOM     13  C   UNL     1      12.176   7.076  20.669  0.00  0.00    +0.175 C 
ATOM     14  C   UNL     1      13.315   8.043  20.972  0.00  0.00    +0.163 C 
ENDROOT
BRANCH  12   3
ATOM      3  O   UNL     1       9.846   7.047  21.413  0.00  0.00    -0.387 OA
ATOM     26  H   UNL     1      10.168   6.265  21.891  0.00  0.00    +0.210 HD
ENDBRANCH  12   3
BRANCH  13   4
ATOM      4  O   UNL     1      12.352   5.915  21.481  0.00  0.00    -0.387 OA
ATOM     27  H   UNL     1      13.310   5.774  21.581  0.00  0.00    +0.210 HD
ENDBRANCH  13   4
BRANCH   9  15
ATOM     15  C   UNL     1      10.758   9.819  22.733  0.00  0.00    +0.130 C 
BRANCH  15  17
ATOM      5  O   UNL     1      11.675  11.951  22.044  0.00  0.00    -0.276 OA
ATOM      6  N   UNL     1      12.516  10.922  23.948  0.00  0.00    -0.312 N 
ATOM     17  C   UNL     1      11.681  11.018  22.843  0.00  0.00    +0.216 C 
ATOM     25  H   UNL     1      12.458  10.109  24.555  0.00  0.00    +0.149 HD
BRANCH   6   8
ATOM      8  C   UNL     1      13.483  11.931  24.273  0.00  0.00    +0.073 C 
ATOM     10  C   UNL     1      14.510  11.705  25.343  0.00  0.00    +0.024 C 
ATOM     11  C   UNL     1      14.929  11.769  23.904  0.00  0.00    +0.024 C 
ENDBRANCH   6   8
ENDBRANCH  15  17
ENDBRANCH   9  15
BRANCH  14  16
ATOM     16  C   UNL     1      13.624   8.981  19.814  0.00  0.00    +0.115 C 
BRANCH  16   7
ATOM      7  N   UNL     1      15.024   8.887  19.423  0.00  0.00    -0.309 NA
ATOM     28  H   UNL     1      15.146   8.090  18.799  0.00  0.00    +0.122 HD
BRANCH   7  18
ATOM     18  C   UNL     1      15.883   8.738  20.589  0.00  0.00    +0.116 C 
BRANCH  18  19
ATOM      1  F   UNL     1      19.661   4.614  19.902  0.00  0.00    -0.205 F 
ATOM     19  C   UNL     1      16.892   7.636  20.406  0.00  0.00    -0.033 A 
ATOM     20  C   UNL     1      16.685   6.654  19.436  0.00  0.00    +0.008 A 
ATOM     21  C   UNL     1      18.034   7.596  21.205  0.00  0.00    +0.008 A 
ATOM     22  C   UNL     1      17.620   5.633  19.266  0.00  0.00    +0.038 A 
ATOM     23  C   UNL     1      18.969   6.575  21.036  0.00  0.00    +0.038 A 
ATOM     24  C   UNL     1      18.761   5.593  20.066  0.00  0.00    +0.123 A 
ENDBRANCH  18  19
ENDBRANCH   7  18
ENDBRANCH  16   7
ENDBRANCH  14  16
TORSDOF 9
ENDMDL
MODEL 6
REMARK VINA RESULT:      -6.1      2.756      4.676
REMARK  Name = 25390478
REMARK  9 active torsions:
REMARK  status: ('A' for Active; 'I' for Inactive)
REMARK    1  A    between atoms: O_3  and  C_12
REMARK    2  A    between atoms: O_4  and  C_13
REMARK    3  A    between atoms: N_6  and  C_8
REMARK    4  A    between atoms: N_7  and  C_16
REMARK    5  A    between atoms: N_7  and  C_18
REMARK    6  A    between atoms: C_9  and  C_15
REMARK    7  A    between atoms: C_14  and  C_16
REMARK    8  A    between atoms: C_15  and  C_17
REMARK    9  A    between atoms: C_18  and  C_19
REMARK                            x       y       z     vdW  Elec       q    Type
REMARK                         _______ _______ _______ _____ _____    ______ ____
ROOT
ATOM      2  O   UNL     1      13.433   8.638  21.371  0.00  0.00    -0.366 OA
ATOM      9  C   UNL     1      12.038   8.793  21.686  0.00  0.00    +0.158 C 
ATOM     12  C   UNL     1      11.292   7.950  20.666  0.00  0.00    +0.175 C 
ATOM     13  C   UNL     1      12.239   6.781  20.487  0.00  0.00    +0.175 C 
ATOM     14  C   UNL     1      13.600   7.465  20.544  0.00  0.00    +0.163 C 
ENDROOT
BRANCH  12   3
ATOM      3  O   UNL     1      10.013   7.568  21.128  0.00  0.00    -0.387 OA
ATOM     26  H   UNL     1       9.594   7.045  20.425  0.00  0.00    +0.210 HD
ENDBRANCH  12   3
BRANCH  13   4
ATOM      4  O   UNL     1      12.143   5.892  21.600  0.00  0.00    -0.387 OA
ATOM     27  H   UNL     1      11.916   6.427  22.380  0.00  0.00    +0.210 HD
ENDBRANCH  13   4
BRANCH   9  15
ATOM     15  C   UNL     1      11.664  10.264  21.639  0.00  0.00    +0.130 C 
BRANCH  15  17
ATOM      5  O   UNL     1      10.913  10.034  23.929  0.00  0.00    -0.276 OA
ATOM      6  N   UNL     1      10.768  12.109  22.896  0.00  0.00    -0.312 N 
ATOM     17  C   UNL     1      11.081  10.757  22.950  0.00  0.00    +0.216 C 
ATOM     25  H   UNL     1      10.935  12.631  22.040  0.00  0.00    +0.149 HD
BRANCH   6   8
ATOM      8  C   UNL     1      10.202  12.814  24.010  0.00  0.00    +0.073 C 
ATOM     10  C   UNL     1      11.076  13.432  25.061  0.00  0.00    +0.024 C 
ATOM     11  C   UNL     1      10.306  14.308  24.117  0.00  0.00    +0.024 C 
ENDBRANCH   6   8
ENDBRANCH  15  17
ENDBRANCH   9  15
BRANCH  14  16
ATOM     16  C   UNL     1      14.093   7.924  19.179  0.00  0.00    +0.115 C 
BRANCH  16   7
ATOM      7  N   UNL     1      15.330   7.248  18.813  0.00  0.00    -0.309 NA
ATOM     28  H   UNL     1      15.175   6.695  17.970  0.00  0.00    +0.122 HD
BRANCH   7  18
ATOM     18  C   UNL     1      15.792   6.385  19.891  0.00  0.00    +0.116 C 
BRANCH  18  19
ATOM      1  F   UNL     1      20.895   7.886  21.749  0.00  0.00    -0.205 F 
ATOM     19  C   UNL     1      17.155   6.787  20.387  0.00  0.00    -0.033 A 
ATOM     20  C   UNL     1      17.303   7.930  21.173  0.00  0.00    +0.008 A 
ATOM     21  C   UNL     1      18.271   6.016  20.062  0.00  0.00    +0.008 A 
ATOM     22  C   UNL     1      18.566   8.302  21.633  0.00  0.00    +0.038 A 
ATOM     23  C   UNL     1      19.534   6.387  20.521  0.00  0.00    +0.038 A 
ATOM     24  C   UNL     1      19.682   7.531  21.307  0.00  0.00    +0.123 A 
ENDBRANCH  18  19
ENDBRANCH   7  18
ENDBRANCH  16   7
ENDBRANCH  14  16
TORSDOF 9
ENDMDL
MODEL 7
REMARK VINA RESULT:      -6.0      4.174      5.878
REMARK  Name = 25390478
REMARK  9 active torsions:
REMARK  status: ('A' for Active; 'I' for Inactive)
REMARK    1  A    between atoms: O_3  and  C_12
REMARK    2  A    between atoms: O_4  and  C_13
REMARK    3  A    between atoms: N_6  and  C_8
REMARK    4  A    between atoms: N_7  and  C_16
REMARK    5  A    between atoms: N_7  and  C_18
REMARK    6  A    between atoms: C_9  and  C_15
REMARK    7  A    between atoms: C_14  and  C_16
REMARK    8  A    between atoms: C_15  and  C_17
REMARK    9  A    between atoms: C_18  and  C_19
REMARK                            x       y       z     vdW  Elec       q    Type
REMARK                         _______ _______ _______ _____ _____    ______ ____
ROOT
ATOM      2  O   UNL     1      11.533   8.512  20.058  0.00  0.00    -0.366 OA
ATOM      9  C   UNL     1      11.771   7.093  20.050  0.00  0.00    +0.158 C 
ATOM     12  C   UNL     1      11.902   6.692  21.510  0.00  0.00    +0.175 C 
ATOM     13  C   UNL     1      10.903   7.620  22.171  0.00  0.00    +0.175 C 
ATOM     14  C   UNL     1      11.094   8.907  21.377  0.00  0.00    +0.163 C 
ENDROOT
BRANCH  12   3
ATOM      3  O   UNL     1      11.612   5.324  21.712  0.00  0.00    -0.387 OA
ATOM     26  H   UNL     1      12.089   4.822  21.031  0.00  0.00    +0.210 HD
ENDBRANCH  12   3
BRANCH  13   4
ATOM      4  O   UNL     1       9.572   7.155  21.948  0.00  0.00    -0.387 OA
ATOM     27  H   UNL     1       9.294   7.481  21.075  0.00  0.00    +0.210 HD
ENDBRANCH  13   4
BRANCH   9  15
ATOM     15  C   UNL     1      13.010   6.786  19.228  0.00  0.00    +0.130 C 
BRANCH  15  17
ATOM      5  O   UNL     1      12.869   7.826  17.047  0.00  0.00    -0.276 OA
ATOM      6  N   UNL     1      14.111   8.861  18.713  0.00  0.00    -0.312 N 
ATOM     17  C   UNL     1      13.303   7.858  18.196  0.00  0.00    +0.216 C 
ATOM     25  H   UNL     1      14.431   8.804  19.677  0.00  0.00    +0.149 HD
BRANCH   6   8
ATOM      8  C   UNL     1      14.532   9.990  17.935  0.00  0.00    +0.073 C 
ATOM     10  C   UNL     1      13.744  11.268  17.933  0.00  0.00    +0.024 C 
ATOM     11  C   UNL     1      15.093  11.219  18.590  0.00  0.00    +0.024 C 
ENDBRANCH   6   8
ENDBRANCH  15  17
ENDBRANCH   9  15
BRANCH  14  16
ATOM     16  C   UNL     1      12.160   9.819  21.969  0.00  0.00    +0.115 C 
BRANCH  16   7
ATOM      7  N   UNL     1      11.905  10.077  23.379  0.00  0.00    -0.309 NA
ATOM     28  H   UNL     1      11.612   9.211  23.832  0.00  0.00    +0.122 HD
BRANCH   7  18
ATOM     18  C   UNL     1      10.878  11.095  23.547  0.00  0.00    +0.116 C 
BRANCH  18  19
ATOM      1  F   UNL     1      12.473  15.118  27.156  0.00  0.00    -0.205 F 
ATOM     19  C   UNL     1      11.304  12.169  24.512  0.00  0.00    -0.033 A 
ATOM     20  C   UNL     1      12.596  12.161  25.040  0.00  0.00    +0.008 A 
ATOM     21  C   UNL     1      10.409  13.174  24.877  0.00  0.00    +0.008 A 
ATOM     22  C   UNL     1      12.990  13.156  25.934  0.00  0.00    +0.038 A 
ATOM     23  C   UNL     1      10.803  14.170  25.771  0.00  0.00    +0.038 A 
ATOM     24  C   UNL     1      12.095  14.160  26.299  0.00  0.00    +0.123 A 
ENDBRANCH  18  19
ENDBRANCH   7  18
ENDBRANCH  16   7
ENDBRANCH  14  16
TORSDOF 9
ENDMDL
MODEL 8
REMARK VINA RESULT:      -5.9      3.153      5.867
REMARK  Name = 25390478
REMARK  9 active torsions:
REMARK  status: ('A' for Active; 'I' for Inactive)
REMARK    1  A    between atoms: O_3  and  C_12
REMARK    2  A    between atoms: O_4  and  C_13
REMARK    3  A    between atoms: N_6  and  C_8
REMARK    4  A    between atoms: N_7  and  C_16
REMARK    5  A    between atoms: N_7  and  C_18
REMARK    6  A    between atoms: C_9  and  C_15
REMARK    7  A    between atoms: C_14  and  C_16
REMARK    8  A    between atoms: C_15  and  C_17
REMARK    9  A    between atoms: C_18  and  C_19
REMARK                            x       y       z     vdW  Elec       q    Type
REMARK                         _______ _______ _______ _____ _____    ______ ____
ROOT
ATOM      2  O   UNL     1      13.941   8.833  18.061  0.00  0.00    -0.366 OA
ATOM      9  C   UNL     1      12.839   7.910  17.999  0.00  0.00    +0.158 C 
ATOM     12  C   UNL     1      11.745   8.629  17.227  0.00  0.00    +0.175 C 
ATOM     13  C   UNL     1      12.555   9.419  16.219  0.00  0.00    +0.175 C 
ATOM     14  C   UNL     1      13.761   9.848  17.048  0.00  0.00    +0.163 C 
ENDROOT
BRANCH  12   3
ATOM      3  O   UNL     1      10.837   7.727  16.630  0.00  0.00    -0.387 OA
ATOM     26  H   UNL     1      10.784   6.945  17.204  0.00  0.00    +0.210 HD
ENDBRANCH  12   3
BRANCH  13   4
ATOM      4  O   UNL     1      13.017   8.563  15.174  0.00  0.00    -0.387 OA
ATOM     27  H   UNL     1      12.741   8.961  14.330  0.00  0.00    +0.210 HD
ENDBRANCH  13   4
BRANCH   9  15
ATOM     15  C   UNL     1      12.422   7.516  19.405  0.00  0.00    +0.130 C 
BRANCH  15  17
ATOM      5  O   UNL     1      13.619   7.620  21.507  0.00  0.00    -0.276 OA
ATOM      6  N   UNL     1      14.666   6.687  19.656  0.00  0.00    -0.312 N 
ATOM     17  C   UNL     1      13.610   7.294  20.322  0.00  0.00    +0.216 C 
ATOM     25  H   UNL     1      14.575   6.456  18.670  0.00  0.00    +0.149 HD
BRANCH   6   8
ATOM      8  C   UNL     1      15.906   6.370  20.304  0.00  0.00    +0.073 C 
ATOM     10  C   UNL     1      17.155   6.124  19.510  0.00  0.00    +0.024 C 
ATOM     11  C   UNL     1      17.033   7.361  20.350  0.00  0.00    +0.024 C 
ENDBRANCH   6   8
ENDBRANCH  15  17
ENDBRANCH   9  15
BRANCH  14  16
ATOM     16  C   UNL     1      13.554  11.180  17.755  0.00  0.00    +0.115 C 
BRANCH  16   7
ATOM      7  N   UNL     1      13.855  11.072  19.175  0.00  0.00    -0.309 NA
ATOM     28  H   UNL     1      13.344  10.282  19.569  0.00  0.00    +0.122 HD
BRANCH   7  18
ATOM     18  C   UNL     1      13.493  12.294  19.880  0.00  0.00    +0.116 C 
BRANCH  18  19
ATOM      1  F   UNL     1      10.442  11.234  24.497  0.00  0.00    -0.205 F 
ATOM     19  C   UNL     1      12.679  12.010  21.114  0.00  0.00    -0.033 A 
ATOM     20  C   UNL     1      12.614  12.954  22.140  0.00  0.00    +0.008 A 
ATOM     21  C   UNL     1      11.987  10.805  21.231  0.00  0.00    +0.008 A 
ATOM     22  C   UNL     1      11.859  12.691  23.283  0.00  0.00    +0.038 A 
ATOM     23  C   UNL     1      11.232  10.542  22.374  0.00  0.00    +0.038 A 
ATOM     24  C   UNL     1      11.168  11.486  23.400  0.00  0.00    +0.123 A 
ENDBRANCH  18  19
ENDBRANCH   7  18
ENDBRANCH  16   7
ENDBRANCH  14  16
TORSDOF 9
ENDMDL
MODEL 9
REMARK VINA RESULT:      -5.9      1.977      2.942
REMARK  Name = 25390478
REMARK  9 active torsions:
REMARK  status: ('A' for Active; 'I' for Inactive)
REMARK    1  A    between atoms: O_3  and  C_12
REMARK    2  A    between atoms: O_4  and  C_13
REMARK    3  A    between atoms: N_6  and  C_8
REMARK    4  A    between atoms: N_7  and  C_16
REMARK    5  A    between atoms: N_7  and  C_18
REMARK    6  A    between atoms: C_9  and  C_15
REMARK    7  A    between atoms: C_14  and  C_16
REMARK    8  A    between atoms: C_15  and  C_17
REMARK    9  A    between atoms: C_18  and  C_19
REMARK                            x       y       z     vdW  Elec       q    Type
REMARK                         _______ _______ _______ _____ _____    ______ ____
ROOT
ATOM      2  O   UNL     1      13.571   8.980  21.932  0.00  0.00    -0.366 OA
ATOM      9  C   UNL     1      13.071  10.318  22.104  0.00  0.00    +0.158 C 
ATOM     12  C   UNL     1      11.628  10.281  21.632  0.00  0.00    +0.175 C 
ATOM     13  C   UNL     1      11.198   8.898  22.078  0.00  0.00    +0.175 C 
ATOM     14  C   UNL     1      12.451   8.074  21.806  0.00  0.00    +0.163 C 
ENDROOT
BRANCH  12   3
ATOM      3  O   UNL     1      10.857  11.317  22.202  0.00  0.00    -0.387 OA
ATOM     26  H   UNL     1      11.467  12.028  22.459  0.00  0.00    +0.210 HD
ENDBRANCH  12   3
BRANCH  13   4
ATOM      4  O   UNL     1      10.956   8.886  23.485  0.00  0.00    -0.387 OA
ATOM     27  H   UNL     1      10.454   9.691  23.700  0.00  0.00    +0.210 HD
ENDBRANCH  13   4
BRANCH   9  15
ATOM     15  C   UNL     1      13.935  11.291  21.321  0.00  0.00    +0.130 C 
BRANCH  15  17
ATOM      5  O   UNL     1      12.775  12.525  19.591  0.00  0.00    -0.276 OA
ATOM      6  N   UNL     1      13.755  10.488  19.061  0.00  0.00    -0.312 N 
ATOM     17  C   UNL     1      13.416  11.528  19.915  0.00  0.00    +0.216 C 
ATOM     25  H   UNL     1      14.284   9.695  19.416  0.00  0.00    +0.149 HD
BRANCH   6   8
ATOM      8  C   UNL     1      13.380  10.474  17.677  0.00  0.00    +0.073 C 
ATOM     10  C   UNL     1      14.094   9.599  16.688  0.00  0.00    +0.024 C 
ATOM     11  C   UNL     1      12.676   9.292  17.075  0.00  0.00    +0.024 C 
ENDBRANCH   6   8
ENDBRANCH  15  17
ENDBRANCH   9  15
BRANCH  14  16
ATOM     16  C   UNL     1      12.484   7.485  20.403  0.00  0.00    +0.115 C 
BRANCH  16   7
ATOM      7  N   UNL     1      13.582   6.540  20.257  0.00  0.00    -0.309 NA
ATOM     28  H   UNL     1      14.052   6.428  21.155  0.00  0.00    +0.122 HD
BRANCH   7  18
ATOM     18  C   UNL     1      14.535   6.998  19.255  0.00  0.00    +0.116 C 
BRANCH  18  19
ATOM      1  F   UNL     1      19.847   5.820  20.717  0.00  0.00    -0.205 F 
ATOM     19  C   UNL     1      15.954   6.684  19.645  0.00  0.00    -0.033 A 
ATOM     20  C   UNL     1      16.480   7.191  20.835  0.00  0.00    +0.008 A 
ATOM     21  C   UNL     1      16.744   5.884  18.820  0.00  0.00    +0.008 A 
ATOM     22  C   UNL     1      17.795   6.900  21.196  0.00  0.00    +0.038 A 
ATOM     23  C   UNL     1      18.060   5.593  19.181  0.00  0.00    +0.038 A 
ATOM     24  C   UNL     1      18.585   6.101  20.370  0.00  0.00    +0.123 A 
ENDBRANCH  18  19
ENDBRANCH   7  18
ENDBRANCH  16   7
ENDBRANCH  14  16
TORSDOF 9
ENDMDL
MODEL 10
REMARK VINA RESULT:      -5.8     13.629     16.606
REMARK  Name = 25390478
REMARK  9 active torsions:
REMARK  status: ('A' for Active; 'I' for Inactive)
REMARK    1  A    between atoms: O_3  and  C_12
REMARK    2  A    between atoms: O_4  and  C_13
REMARK    3  A    between atoms: N_6  and  C_8
REMARK    4  A    between atoms: N_7  and  C_16
REMARK    5  A    between atoms: N_7  and  C_18
REMARK    6  A    between atoms: C_9  and  C_15
REMARK    7  A    between atoms: C_14  and  C_16
REMARK    8  A    between atoms: C_15  and  C_17
REMARK    9  A    between atoms: C_18  and  C_19
REMARK                            x       y       z     vdW  Elec       q    Type
REMARK                         _______ _______ _______ _____ _____    ______ ____
ROOT
ATOM      2  O   UNL     1       9.975   6.264   5.875  0.00  0.00    -0.366 OA
ATOM      9  C   UNL     1      11.405   6.212   6.020  0.00  0.00    +0.158 C 
ATOM     12  C   UNL     1      11.673   6.390   7.505  0.00  0.00    +0.175 C 
ATOM     13  C   UNL     1      10.495   5.659   8.116  0.00  0.00    +0.175 C 
ATOM     14  C   UNL     1       9.363   6.032   7.164  0.00  0.00    +0.163 C 
ENDROOT
BRANCH  12   3
ATOM      3  O   UNL     1      12.922   5.852   7.886  0.00  0.00    -0.387 OA
ATOM     26  H   UNL     1      12.844   5.560   8.809  0.00  0.00    +0.210 HD
ENDBRANCH  12   3
BRANCH  13   4
ATOM      4  O   UNL     1      10.693   4.248   8.038  0.00  0.00    -0.387 OA
ATOM     27  H   UNL     1       9.849   3.851   7.761  0.00  0.00    +0.210 HD
ENDBRANCH  13   4
BRANCH   9  15
ATOM     15  C   UNL     1      12.046   7.287   5.160  0.00  0.00    +0.130 C 
BRANCH  15  17
ATOM      5  O   UNL     1      12.259   7.735   2.791  0.00  0.00    -0.276 OA
ATOM      6  N   UNL     1      11.837   5.563   3.496  0.00  0.00    -0.312 N 
ATOM     17  C   UNL     1      12.065   6.919   3.688  0.00  0.00    +0.216 C 
ATOM     25  H   UNL     1      11.679   4.959   4.298  0.00  0.00    +0.149 HD
BRANCH   6   8
ATOM      8  C   UNL     1      11.805   4.964   2.193  0.00  0.00    +0.073 C 
ATOM     10  C   UNL     1      12.108   3.507   2.001  0.00  0.00    +0.024 C 
ATOM     11  C   UNL     1      10.710   4.015   1.801  0.00  0.00    +0.024 C 
ENDBRANCH   6   8
ENDBRANCH  15  17
ENDBRANCH   9  15
BRANCH  14  16
ATOM     16  C   UNL     1       8.637   7.306   7.572  0.00  0.00    +0.115 C 
BRANCH  16   7
ATOM      7  N   UNL     1       7.733   7.753   6.522  0.00  0.00    -0.309 NA
ATOM     28  H   UNL     1       7.685   7.041   5.793  0.00  0.00    +0.122 HD
BRANCH   7  18
ATOM     18  C   UNL     1       8.180   9.015   5.950  0.00  0.00    +0.116 C 
BRANCH  18  19
ATOM      1  F   UNL     1       7.052   9.338   0.439  0.00  0.00    -0.205 F 
ATOM     19  C   UNL     1       7.880   9.102   4.477  0.00  0.00    -0.033 A 
ATOM     20  C   UNL     1       8.712   8.465   3.556  0.00  0.00    +0.008 A 
ATOM     21  C   UNL     1       6.768   9.818   4.034  0.00  0.00    +0.008 A 
ATOM     22  C   UNL     1       8.433   8.546   2.191  0.00  0.00    +0.038 A 
ATOM     23  C   UNL     1       6.488   9.898   2.669  0.00  0.00    +0.038 A 
ATOM     24  C   UNL     1       7.322   9.262   1.748  0.00  0.00    +0.123 A 
ENDBRANCH  18  19
ENDBRANCH   7  18
ENDBRANCH  16   7
ENDBRANCH  14  16
TORSDOF 9
ENDMDL
