MODEL 1
REMARK VINA RESULT:      -7.0      0.000      0.000
REMARK  Name = 86769003
REMARK  7 active torsions:
REMARK  status: ('A' for Active; 'I' for Inactive)
REMARK    1  A    between atoms: O_3  and  C_8
REMARK    2  A    between atoms: N_5  and  C_7
REMARK    3  A    between atoms: N_5  and  C_12
REMARK    4  A    between atoms: N_6  and  C_11
REMARK    5  A    between atoms: C_9  and  C_11
REMARK    6  A    between atoms: C_12  and  C_13
REMARK    7  A    between atoms: C_14  and  C_16
REMARK                            x       y       z     vdW  Elec       q    Type
REMARK                         _______ _______ _______ _____ _____    ______ ____
ROOT
ATOM      2  O   UNL     1      12.955   6.645  20.487  0.00  0.00    -0.371 OA
ATOM      7  C   UNL     1      10.879   7.683  20.991  0.00  0.00    +0.111 C 
ATOM      8  C   UNL     1      11.466   8.330  19.751  0.00  0.00    +0.164 C 
ATOM      9  C   UNL     1      12.439   7.252  19.291  0.00  0.00    +0.165 C 
ATOM     10  C   UNL     1      12.103   7.008  21.588  0.00  0.00    +0.181 C 
ENDROOT
BRANCH   8   3
ATOM      3  O   UNL     1      10.490   8.615  18.769  0.00  0.00    -0.388 OA
ATOM     25  H   UNL     1       9.653   8.201  19.040  0.00  0.00    +0.210 HD
ENDBRANCH   8   3
BRANCH   7   5
ATOM      5  N   UNL     1      10.253   8.628  21.902  0.00  0.00    -0.304 NA
ATOM     24  H   UNL     1       9.550   8.138  22.456  0.00  0.00    +0.123 HD
BRANCH   5  12
ATOM     12  C   UNL     1      11.237   9.223  22.798  0.00  0.00    +0.124 C 
BRANCH  12  13
ATOM      1  S   UNL     1      10.925  11.595  24.218  0.00  0.00    -0.100 S 
ATOM     13  C   UNL     1      11.189  10.728  22.764  0.00  0.00    +0.004 A 
ATOM     15  C   UNL     1      11.331  11.567  21.680  0.00  0.00    +0.012 A 
ATOM     17  C   UNL     1      11.224  12.938  22.048  0.00  0.00    +0.008 A 
ATOM     18  C   UNL     1      11.002  13.097  23.399  0.00  0.00    +0.045 A 
ENDBRANCH  12  13
ENDBRANCH   5  12
ENDBRANCH   7   5
BRANCH   9  11
ATOM     11  C   UNL     1      13.584   7.794  18.455  0.00  0.00    +0.138 C 
BRANCH  11   6
ATOM      4  O   UNL     1      15.268   9.255  20.266  0.00  0.00    -0.270 OA
ATOM      6  N   UNL     1      14.854   7.373  18.973  0.00  0.00    -0.309 N 
ATOM     14  C   UNL     1      15.605   8.148  19.851  0.00  0.00    +0.244 C 
ATOM     26  H   UNL     1      15.223   6.499  18.615  0.00  0.00    +0.149 HD
BRANCH  14  16
ATOM     16  C   UNL     1      16.910   7.581  20.277  0.00  0.00    +0.037 A 
ATOM     19  C   UNL     1      17.376   6.396  19.707  0.00  0.00    +0.013 A 
ATOM     20  C   UNL     1      17.670   8.235  21.248  0.00  0.00    +0.013 A 
ATOM     21  C   UNL     1      18.602   5.865  20.107  0.00  0.00    +0.001 A 
ATOM     22  C   UNL     1      18.896   7.703  21.648  0.00  0.00    +0.001 A 
ATOM     23  C   UNL     1      19.362   6.518  21.078  0.00  0.00    +0.000 A 
ENDBRANCH  14  16
ENDBRANCH  11   6
ENDBRANCH   9  11
TORSDOF 7
ENDMDL
MODEL 2
REMARK VINA RESULT:      -6.8      2.018      7.060
REMARK  Name = 86769003
REMARK  7 active torsions:
REMARK  status: ('A' for Active; 'I' for Inactive)
REMARK    1  A    between atoms: O_3  and  C_8
REMARK    2  A    between atoms: N_5  and  C_7
REMARK    3  A    between atoms: N_5  and  C_12
REMARK    4  A    between atoms: N_6  and  C_11
REMARK    5  A    between atoms: C_9  and  C_11
REMARK    6  A    between atoms: C_12  and  C_13
REMARK    7  A    between atoms: C_14  and  C_16
REMARK                            x       y       z     vdW  Elec       q    Type
REMARK                         _______ _______ _______ _____ _____    ______ ____
ROOT
ATOM      2  O   UNL     1      10.579   8.526  19.995  0.00  0.00    -0.371 OA
ATOM      7  C   UNL     1      12.488   7.311  19.272  0.00  0.00    +0.111 C 
ATOM      8  C   UNL     1      12.366   7.187  20.779  0.00  0.00    +0.164 C 
ATOM      9  C   UNL     1      10.896   7.530  20.982  0.00  0.00    +0.165 C 
ATOM     10  C   UNL     1      11.615   8.525  18.997  0.00  0.00    +0.181 C 
ENDROOT
BRANCH   8   3
ATOM      3  O   UNL     1      12.674   5.889  21.247  0.00  0.00    -0.388 OA
ATOM     25  H   UNL     1      12.052   5.664  21.959  0.00  0.00    +0.210 HD
ENDBRANCH   8   3
BRANCH   7   5
ATOM      5  N   UNL     1      13.856   7.482  18.809  0.00  0.00    -0.304 NA
ATOM     24  H   UNL     1      13.847   8.011  17.936  0.00  0.00    +0.123 HD
BRANCH   5  12
ATOM     12  C   UNL     1      14.658   8.200  19.793  0.00  0.00    +0.124 C 
BRANCH  12  13
ATOM      1  S   UNL     1      17.091   8.224  21.140  0.00  0.00    -0.100 S 
ATOM     13  C   UNL     1      16.004   7.556  19.997  0.00  0.00    +0.004 A 
ATOM     15  C   UNL     1      16.529   6.448  19.369  0.00  0.00    +0.012 A 
ATOM     17  C   UNL     1      17.841   6.143  19.833  0.00  0.00    +0.008 A 
ATOM     18  C   UNL     1      18.269   7.029  20.797  0.00  0.00    +0.045 A 
ENDBRANCH  12  13
ENDBRANCH   5  12
ENDBRANCH   7   5
BRANCH   9  11
ATOM     11  C   UNL     1      10.592   8.068  22.369  0.00  0.00    +0.138 C 
BRANCH  11   6
ATOM      4  O   UNL     1      12.608  10.054  22.857  0.00  0.00    -0.270 OA
ATOM      6  N   UNL     1      10.415   9.491  22.350  0.00  0.00    -0.309 N 
ATOM     14  C   UNL     1      11.453  10.383  22.599  0.00  0.00    +0.244 C 
ATOM     26  H   UNL     1       9.469   9.829  22.212  0.00  0.00    +0.149 HD
BRANCH  14  16
ATOM     16  C   UNL     1      11.101  11.826  22.566  0.00  0.00    +0.037 A 
ATOM     19  C   UNL     1      11.307  12.569  21.403  0.00  0.00    +0.013 A 
ATOM     20  C   UNL     1      10.564  12.438  23.699  0.00  0.00    +0.013 A 
ATOM     21  C   UNL     1      10.976  13.923  21.373  0.00  0.00    +0.001 A 
ATOM     22  C   UNL     1      10.233  13.793  23.669  0.00  0.00    +0.001 A 
ATOM     23  C   UNL     1      10.439  14.536  22.506  0.00  0.00    +0.000 A 
ENDBRANCH  14  16
ENDBRANCH  11   6
ENDBRANCH   9  11
TORSDOF 7
ENDMDL
MODEL 3
REMARK VINA RESULT:      -6.6      2.660      5.948
REMARK  Name = 86769003
REMARK  7 active torsions:
REMARK  status: ('A' for Active; 'I' for Inactive)
REMARK    1  A    between atoms: O_3  and  C_8
REMARK    2  A    between atoms: N_5  and  C_7
REMARK    3  A    between atoms: N_5  and  C_12
REMARK    4  A    between atoms: N_6  and  C_11
REMARK    5  A    between atoms: C_9  and  C_11
REMARK    6  A    between atoms: C_12  and  C_13
REMARK    7  A    between atoms: C_14  and  C_16
REMARK                            x       y       z     vdW  Elec       q    Type
REMARK                         _______ _______ _______ _____ _____    ______ ____
ROOT
ATOM      2  O   UNL     1      10.596   8.463  19.813  0.00  0.00    -0.371 OA
ATOM      7  C   UNL     1      12.581   7.316  19.193  0.00  0.00    +0.111 C 
ATOM      8  C   UNL     1      12.492   7.367  20.707  0.00  0.00    +0.164 C 
ATOM      9  C   UNL     1      11.004   7.622  20.904  0.00  0.00    +0.165 C 
ATOM     10  C   UNL     1      11.613   8.419  18.797  0.00  0.00    +0.181 C 
ENDROOT
BRANCH   8   3
ATOM      3  O   UNL     1      12.907   6.163  21.320  0.00  0.00    -0.388 OA
ATOM     25  H   UNL     1      12.316   5.981  22.069  0.00  0.00    +0.210 HD
ENDBRANCH   8   3
BRANCH   7   5
ATOM      5  N   UNL     1      13.925   7.531  18.681  0.00  0.00    -0.304 NA
ATOM     24  H   UNL     1      13.864   8.018  17.785  0.00  0.00    +0.123 HD
BRANCH   5  12
ATOM     12  C   UNL     1      14.718   8.333  19.605  0.00  0.00    +0.124 C 
BRANCH  12  13
ATOM      1  S   UNL     1      17.136   8.469  20.973  0.00  0.00    -0.100 S 
ATOM     13  C   UNL     1      16.034   7.676  19.928  0.00  0.00    +0.004 A 
ATOM     15  C   UNL     1      16.520   6.465  19.488  0.00  0.00    +0.012 A 
ATOM     17  C   UNL     1      17.813   6.183  20.015  0.00  0.00    +0.008 A 
ATOM     18  C   UNL     1      18.267   7.191  20.838  0.00  0.00    +0.045 A 
ENDBRANCH  12  13
ENDBRANCH   5  12
ENDBRANCH   7   5
BRANCH   9  11
ATOM     11  C   UNL     1      10.680   8.299  22.224  0.00  0.00    +0.138 C 
BRANCH  11   6
ATOM      4  O   UNL     1      11.116  11.126  21.968  0.00  0.00    -0.270 OA
ATOM      6  N   UNL     1      11.804   9.041  22.719  0.00  0.00    -0.309 N 
ATOM     14  C   UNL     1      11.934  10.415  22.549  0.00  0.00    +0.244 C 
ATOM     26  H   UNL     1      12.549   8.503  23.147  0.00  0.00    +0.149 HD
BRANCH  14  16
ATOM     16  C   UNL     1      13.168  11.032  23.098  0.00  0.00    +0.037 A 
ATOM     19  C   UNL     1      14.401  10.784  22.493  0.00  0.00    +0.013 A 
ATOM     20  C   UNL     1      13.095  11.859  24.219  0.00  0.00    +0.013 A 
ATOM     21  C   UNL     1      15.560  11.364  23.009  0.00  0.00    +0.001 A 
ATOM     22  C   UNL     1      14.254  12.439  24.735  0.00  0.00    +0.001 A 
ATOM     23  C   UNL     1      15.487  12.191  24.130  0.00  0.00    +0.000 A 
ENDBRANCH  14  16
ENDBRANCH  11   6
ENDBRANCH   9  11
TORSDOF 7
ENDMDL
MODEL 4
REMARK VINA RESULT:      -6.5     26.971     30.118
REMARK  Name = 86769003
REMARK  7 active torsions:
REMARK  status: ('A' for Active; 'I' for Inactive)
REMARK    1  A    between atoms: O_3  and  C_8
REMARK    2  A    between atoms: N_5  and  C_7
REMARK    3  A    between atoms: N_5  and  C_12
REMARK    4  A    between atoms: N_6  and  C_11
REMARK    5  A    between atoms: C_9  and  C_11
REMARK    6  A    between atoms: C_12  and  C_13
REMARK    7  A    between atoms: C_14  and  C_16
REMARK                            x       y       z     vdW  Elec       q    Type
REMARK                         _______ _______ _______ _____ _____    ______ ____
ROOT
ATOM      2  O   UNL     1     -17.575   5.409  24.104  0.00  0.00    -0.371 OA
ATOM      7  C   UNL     1     -15.965   4.140  22.904  0.00  0.00    +0.111 C 
ATOM      8  C   UNL     1     -15.764   3.915  24.391  0.00  0.00    +0.164 C 
ATOM      9  C   UNL     1     -17.124   4.328  24.936  0.00  0.00    +0.165 C 
ATOM     10  C   UNL     1     -16.786   5.419  22.902  0.00  0.00    +0.181 C 
ENDROOT
BRANCH   8   3
ATOM      3  O   UNL     1     -15.456   2.570  24.703  0.00  0.00    -0.388 OA
ATOM     25  H   UNL     1     -14.768   2.565  25.390  0.00  0.00    +0.210 HD
ENDBRANCH   8   3
BRANCH   7   5
ATOM      5  N   UNL     1     -14.723   4.263  22.159  0.00  0.00    -0.304 NA
ATOM     24  H   UNL     1     -14.941   4.427  21.175  0.00  0.00    +0.123 HD
BRANCH   5  12
ATOM     12  C   UNL     1     -13.918   5.371  22.659  0.00  0.00    +0.124 C 
BRANCH  12  13
ATOM      1  S   UNL     1     -14.398   7.133  20.561  0.00  0.00    -0.100 S 
ATOM     13  C   UNL     1     -13.346   6.199  21.538  0.00  0.00    +0.004 A 
ATOM     15  C   UNL     1     -12.030   6.330  21.153  0.00  0.00    +0.012 A 
ATOM     17  C   UNL     1     -11.883   7.209  20.042  0.00  0.00    +0.008 A 
ATOM     18  C   UNL     1     -13.093   7.716  19.619  0.00  0.00    +0.045 A 
ENDBRANCH  12  13
ENDBRANCH   5  12
ENDBRANCH   7   5
BRANCH   9  11
ATOM     11  C   UNL     1     -17.078   4.780  26.385  0.00  0.00    +0.138 C 
BRANCH  11   6
ATOM      4  O   UNL     1     -17.840   3.260  28.700  0.00  0.00    -0.270 OA
ATOM      6  N   UNL     1     -16.229   3.930  27.170  0.00  0.00    -0.309 N 
ATOM     14  C   UNL     1     -16.685   3.228  28.281  0.00  0.00    +0.244 C 
ATOM     26  H   UNL     1     -15.247   3.913  26.919  0.00  0.00    +0.149 HD
BRANCH  14  16
ATOM     16  C   UNL     1     -15.676   2.410  29.001  0.00  0.00    +0.037 A 
ATOM     19  C   UNL     1     -15.742   1.018  28.955  0.00  0.00    +0.013 A 
ATOM     20  C   UNL     1     -14.659   3.036  29.724  0.00  0.00    +0.013 A 
ATOM     21  C   UNL     1     -14.794   0.251  29.631  0.00  0.00    +0.001 A 
ATOM     22  C   UNL     1     -13.711   2.270  30.400  0.00  0.00    +0.001 A 
ATOM     23  C   UNL     1     -13.777   0.877  30.354  0.00  0.00    +0.000 A 
ENDBRANCH  14  16
ENDBRANCH  11   6
ENDBRANCH   9  11
TORSDOF 7
ENDMDL
MODEL 5
REMARK VINA RESULT:      -6.3      2.460      6.707
REMARK  Name = 86769003
REMARK  7 active torsions:
REMARK  status: ('A' for Active; 'I' for Inactive)
REMARK    1  A    between atoms: O_3  and  C_8
REMARK    2  A    between atoms: N_5  and  C_7
REMARK    3  A    between atoms: N_5  and  C_12
REMARK    4  A    between atoms: N_6  and  C_11
REMARK    5  A    between atoms: C_9  and  C_11
REMARK    6  A    between atoms: C_12  and  C_13
REMARK    7  A    between atoms: C_14  and  C_16
REMARK                            x       y       z     vdW  Elec       q    Type
REMARK                         _______ _______ _______ _____ _____    ______ ____
ROOT
ATOM      2  O   UNL     1      13.594   7.950  18.490  0.00  0.00    -0.371 OA
ATOM      7  C   UNL     1      14.497   6.580  20.208  0.00  0.00    +0.111 C 
ATOM      8  C   UNL     1      13.114   7.044  20.622  0.00  0.00    +0.164 C 
ATOM      9  C   UNL     1      12.514   7.417  19.273  0.00  0.00    +0.165 C 
ATOM     10  C   UNL     1      14.836   7.580  19.115  0.00  0.00    +0.181 C 
ENDROOT
BRANCH   8   3
ATOM      3  O   UNL     1      12.369   6.032  21.270  0.00  0.00    -0.388 OA
ATOM     25  H   UNL     1      11.428   6.161  21.058  0.00  0.00    +0.210 HD
ENDBRANCH   8   3
BRANCH   7   5
ATOM      5  N   UNL     1      15.463   6.580  21.295  0.00  0.00    -0.304 NA
ATOM     24  H   UNL     1      16.023   5.728  21.242  0.00  0.00    +0.123 HD
BRANCH   5  12
ATOM     12  C   UNL     1      16.346   7.737  21.213  0.00  0.00    +0.124 C 
BRANCH  12  13
ATOM      1  S   UNL     1      18.985   8.298  21.891  0.00  0.00    -0.100 S 
ATOM     13  C   UNL     1      17.794   7.331  21.129  0.00  0.00    +0.004 A 
ATOM     15  C   UNL     1      18.344   6.238  20.495  0.00  0.00    +0.012 A 
ATOM     17  C   UNL     1      19.760   6.193  20.638  0.00  0.00    +0.008 A 
ATOM     18  C   UNL     1      20.240   7.254  21.375  0.00  0.00    +0.045 A 
ENDBRANCH  12  13
ENDBRANCH   5  12
ENDBRANCH   7   5
BRANCH   9  11
ATOM     11  C   UNL     1      11.398   8.442  19.374  0.00  0.00    +0.138 C 
BRANCH  11   6
ATOM      4  O   UNL     1      12.746  10.915  19.935  0.00  0.00    -0.270 OA
ATOM      6  N   UNL     1      11.437   9.131  20.632  0.00  0.00    -0.309 N 
ATOM     14  C   UNL     1      12.118  10.331  20.814  0.00  0.00    +0.244 C 
ATOM     26  H   UNL     1      10.996   8.666  21.418  0.00  0.00    +0.149 HD
BRANCH  14  16
ATOM     16  C   UNL     1      12.082  10.905  22.183  0.00  0.00    +0.037 A 
ATOM     19  C   UNL     1      11.048  10.567  23.056  0.00  0.00    +0.013 A 
ATOM     20  C   UNL     1      13.085  11.783  22.597  0.00  0.00    +0.013 A 
ATOM     21  C   UNL     1      11.016  11.106  24.342  0.00  0.00    +0.001 A 
ATOM     22  C   UNL     1      13.053  12.322  23.883  0.00  0.00    +0.001 A 
ATOM     23  C   UNL     1      12.018  11.984  24.756  0.00  0.00    +0.000 A 
ENDBRANCH  14  16
ENDBRANCH  11   6
ENDBRANCH   9  11
TORSDOF 7
ENDMDL
MODEL 6
REMARK VINA RESULT:      -6.1     26.143     29.356
REMARK  Name = 86769003
REMARK  7 active torsions:
REMARK  status: ('A' for Active; 'I' for Inactive)
REMARK    1  A    between atoms: O_3  and  C_8
REMARK    2  A    between atoms: N_5  and  C_7
REMARK    3  A    between atoms: N_5  and  C_12
REMARK    4  A    between atoms: N_6  and  C_11
REMARK    5  A    between atoms: C_9  and  C_11
REMARK    6  A    between atoms: C_12  and  C_13
REMARK    7  A    between atoms: C_14  and  C_16
REMARK                            x       y       z     vdW  Elec       q    Type
REMARK                         _______ _______ _______ _____ _____    ______ ____
ROOT
ATOM      2  O   UNL     1     -16.295   4.955  22.271  0.00  0.00    -0.371 OA
ATOM      7  C   UNL     1     -13.951   5.102  21.914  0.00  0.00    +0.111 C 
ATOM      8  C   UNL     1     -14.223   5.081  23.406  0.00  0.00    +0.164 C 
ATOM      9  C   UNL     1     -15.617   4.469  23.441  0.00  0.00    +0.165 C 
ATOM     10  C   UNL     1     -15.314   5.489  21.364  0.00  0.00    +0.181 C 
ENDROOT
BRANCH   8   3
ATOM      3  O   UNL     1     -13.286   4.301  24.121  0.00  0.00    -0.388 OA
ATOM     25  H   UNL     1     -13.773   3.652  24.657  0.00  0.00    +0.210 HD
ENDBRANCH   8   3
BRANCH   7   5
ATOM      5  N   UNL     1     -12.900   6.028  21.525  0.00  0.00    -0.304 NA
ATOM     24  H   UNL     1     -12.496   5.719  20.640  0.00  0.00    +0.123 HD
BRANCH   5  12
ATOM     12  C   UNL     1     -13.424   7.379  21.363  0.00  0.00    +0.124 C 
BRANCH  12  13
ATOM      1  S   UNL     1     -12.650   9.989  20.791  0.00  0.00    -0.100 S 
ATOM     13  C   UNL     1     -12.423   8.294  20.707  0.00  0.00    +0.004 A 
ATOM     15  C   UNL     1     -11.285   7.958  20.007  0.00  0.00    +0.012 A 
ATOM     17  C   UNL     1     -10.590   9.108  19.534  0.00  0.00    +0.008 A 
ATOM     18  C   UNL     1     -11.224  10.279  19.890  0.00  0.00    +0.045 A 
ENDBRANCH  12  13
ENDBRANCH   5  12
ENDBRANCH   7   5
BRANCH   9  11
ATOM     11  C   UNL     1     -16.406   4.842  24.684  0.00  0.00    +0.138 C 
BRANCH  11   6
ATOM      4  O   UNL     1     -18.039   3.687  26.745  0.00  0.00    -0.270 OA
ATOM      6  N   UNL     1     -15.949   4.111  25.830  0.00  0.00    -0.309 N 
ATOM     14  C   UNL     1     -16.815   3.584  26.783  0.00  0.00    +0.244 C 
ATOM     26  H   UNL     1     -14.945   4.050  25.959  0.00  0.00    +0.149 HD
BRANCH  14  16
ATOM     16  C   UNL     1     -16.183   2.875  27.924  0.00  0.00    +0.037 A 
ATOM     19  C   UNL     1     -16.384   1.504  28.093  0.00  0.00    +0.013 A 
ATOM     20  C   UNL     1     -15.387   3.579  28.829  0.00  0.00    +0.013 A 
ATOM     21  C   UNL     1     -15.790   0.839  29.165  0.00  0.00    +0.001 A 
ATOM     22  C   UNL     1     -14.793   2.914  29.900  0.00  0.00    +0.001 A 
ATOM     23  C   UNL     1     -14.994   1.543  30.069  0.00  0.00    +0.000 A 
ENDBRANCH  14  16
ENDBRANCH  11   6
ENDBRANCH   9  11
TORSDOF 7
ENDMDL
MODEL 7
REMARK VINA RESULT:      -6.0     25.964     28.984
REMARK  Name = 86769003
REMARK  7 active torsions:
REMARK  status: ('A' for Active; 'I' for Inactive)
REMARK    1  A    between atoms: O_3  and  C_8
REMARK    2  A    between atoms: N_5  and  C_7
REMARK    3  A    between atoms: N_5  and  C_12
REMARK    4  A    between atoms: N_6  and  C_11
REMARK    5  A    between atoms: C_9  and  C_11
REMARK    6  A    between atoms: C_12  and  C_13
REMARK    7  A    between atoms: C_14  and  C_16
REMARK                            x       y       z     vdW  Elec       q    Type
REMARK                         _______ _______ _______ _____ _____    ______ ____
ROOT
ATOM      2  O   UNL     1     -17.011   5.695  23.230  0.00  0.00    -0.371 OA
ATOM      7  C   UNL     1     -16.040   4.367  24.943  0.00  0.00    +0.111 C 
ATOM      8  C   UNL     1     -15.128   4.354  23.731  0.00  0.00    +0.164 C 
ATOM      9  C   UNL     1     -15.596   5.604  22.999  0.00  0.00    +0.165 C 
ATOM     10  C   UNL     1     -17.351   4.832  24.330  0.00  0.00    +0.181 C 
ENDROOT
BRANCH   8   3
ATOM      3  O   UNL     1     -13.759   4.425  24.077  0.00  0.00    -0.388 OA
ATOM     25  H   UNL     1     -13.236   4.106  23.322  0.00  0.00    +0.210 HD
ENDBRANCH   8   3
BRANCH   7   5
ATOM      5  N   UNL     1     -16.151   3.077  25.604  0.00  0.00    -0.304 NA
ATOM     24  H   UNL     1     -15.215   2.738  25.830  0.00  0.00    +0.123 HD
BRANCH   5  12
ATOM     12  C   UNL     1     -16.928   3.181  26.833  0.00  0.00    +0.124 C 
BRANCH  12  13
ATOM      1  S   UNL     1     -15.318   3.308  29.098  0.00  0.00    -0.100 S 
ATOM     13  C   UNL     1     -16.277   2.443  27.973  0.00  0.00    +0.004 A 
ATOM     15  C   UNL     1     -16.335   1.099  28.269  0.00  0.00    +0.012 A 
ATOM     17  C   UNL     1     -15.583   0.775  29.435  0.00  0.00    +0.008 A 
ATOM     18  C   UNL     1     -14.978   1.884  29.986  0.00  0.00    +0.045 A 
ENDBRANCH  12  13
ENDBRANCH   5  12
ENDBRANCH   7   5
BRANCH   9  11
ATOM     11  C   UNL     1     -15.321   5.565  21.506  0.00  0.00    +0.138 C 
BRANCH  11   6
ATOM      4  O   UNL     1     -12.456   5.689  21.676  0.00  0.00    -0.270 OA
ATOM      6  N   UNL     1     -14.485   6.658  21.102  0.00  0.00    -0.309 N 
ATOM     14  C   UNL     1     -13.099   6.632  21.221  0.00  0.00    +0.244 C 
ATOM     26  H   UNL     1     -14.957   7.497  20.782  0.00  0.00    +0.149 HD
BRANCH  14  16
ATOM     16  C   UNL     1     -12.378   7.853  20.780  0.00  0.00    +0.037 A 
ATOM     19  C   UNL     1     -11.311   7.751  19.887  0.00  0.00    +0.013 A 
ATOM     20  C   UNL     1     -12.769   9.105  21.259  0.00  0.00    +0.013 A 
ATOM     21  C   UNL     1     -10.635   8.899  19.473  0.00  0.00    +0.001 A 
ATOM     22  C   UNL     1     -12.094  10.252  20.845  0.00  0.00    +0.001 A 
ATOM     23  C   UNL     1     -11.026  10.150  19.952  0.00  0.00    +0.000 A 
ENDBRANCH  14  16
ENDBRANCH  11   6
ENDBRANCH   9  11
TORSDOF 7
ENDMDL
MODEL 8
REMARK VINA RESULT:      -6.0     27.539     30.327
REMARK  Name = 86769003
REMARK  7 active torsions:
REMARK  status: ('A' for Active; 'I' for Inactive)
REMARK    1  A    between atoms: O_3  and  C_8
REMARK    2  A    between atoms: N_5  and  C_7
REMARK    3  A    between atoms: N_5  and  C_12
REMARK    4  A    between atoms: N_6  and  C_11
REMARK    5  A    between atoms: C_9  and  C_11
REMARK    6  A    between atoms: C_12  and  C_13
REMARK    7  A    between atoms: C_14  and  C_16
REMARK                            x       y       z     vdW  Elec       q    Type
REMARK                         _______ _______ _______ _____ _____    ______ ____
ROOT
ATOM      2  O   UNL     1     -17.618   1.879  25.205  0.00  0.00    -0.371 OA
ATOM      7  C   UNL     1     -16.494   3.248  26.788  0.00  0.00    +0.111 C 
ATOM      8  C   UNL     1     -16.102   3.686  25.390  0.00  0.00    +0.164 C 
ATOM      9  C   UNL     1     -17.252   3.116  24.571  0.00  0.00    +0.165 C 
ATOM     10  C   UNL     1     -17.045   1.856  26.525  0.00  0.00    +0.181 C 
ENDROOT
BRANCH   8   3
ATOM      3  O   UNL     1     -16.010   5.092  25.264  0.00  0.00    -0.388 OA
ATOM     25  H   UNL     1     -15.538   5.439  26.040  0.00  0.00    +0.210 HD
ENDBRANCH   8   3
BRANCH   7   5
ATOM      5  N   UNL     1     -15.388   3.249  27.732  0.00  0.00    -0.304 NA
ATOM     24  H   UNL     1     -14.793   4.058  27.544  0.00  0.00    +0.123 HD
BRANCH   5  12
ATOM     12  C   UNL     1     -15.869   3.321  29.106  0.00  0.00    +0.124 C 
BRANCH  12  13
ATOM      1  S   UNL     1     -14.258   2.249  31.104  0.00  0.00    -0.100 S 
ATOM     13  C   UNL     1     -15.472   2.107  29.904  0.00  0.00    +0.004 A 
ATOM     15  C   UNL     1     -15.961   0.823  29.812  0.00  0.00    +0.012 A 
ATOM     17  C   UNL     1     -15.333  -0.056  30.741  0.00  0.00    +0.008 A 
ATOM     18  C   UNL     1     -14.386   0.590  31.506  0.00  0.00    +0.045 A 
ENDBRANCH  12  13
ENDBRANCH   5  12
ENDBRANCH   7   5
BRANCH   9  11
ATOM     11  C   UNL     1     -16.887   2.861  23.120  0.00  0.00    +0.138 C 
BRANCH  11   6
ATOM      4  O   UNL     1     -17.100   5.305  21.627  0.00  0.00    -0.270 OA
ATOM      6  N   UNL     1     -15.806   3.704  22.698  0.00  0.00    -0.309 N 
ATOM     14  C   UNL     1     -16.002   4.876  21.975  0.00  0.00    +0.244 C 
ATOM     26  H   UNL     1     -14.868   3.371  22.892  0.00  0.00    +0.149 HD
BRANCH  14  16
ATOM     16  C   UNL     1     -14.777   5.625  21.593  0.00  0.00    +0.037 A 
ATOM     19  C   UNL     1     -13.526   5.184  22.024  0.00  0.00    +0.013 A 
ATOM     20  C   UNL     1     -14.879   6.769  20.801  0.00  0.00    +0.013 A 
ATOM     21  C   UNL     1     -12.377   5.887  21.664  0.00  0.00    +0.001 A 
ATOM     22  C   UNL     1     -13.730   7.472  20.440  0.00  0.00    +0.001 A 
ATOM     23  C   UNL     1     -12.478   7.032  20.872  0.00  0.00    +0.000 A 
ENDBRANCH  14  16
ENDBRANCH  11   6
ENDBRANCH   9  11
TORSDOF 7
ENDMDL
MODEL 9
REMARK VINA RESULT:      -6.0     27.628     30.422
REMARK  Name = 86769003
REMARK  7 active torsions:
REMARK  status: ('A' for Active; 'I' for Inactive)
REMARK    1  A    between atoms: O_3  and  C_8
REMARK    2  A    between atoms: N_5  and  C_7
REMARK    3  A    between atoms: N_5  and  C_12
REMARK    4  A    between atoms: N_6  and  C_11
REMARK    5  A    between atoms: C_9  and  C_11
REMARK    6  A    between atoms: C_12  and  C_13
REMARK    7  A    between atoms: C_14  and  C_16
REMARK                            x       y       z     vdW  Elec       q    Type
REMARK                         _______ _______ _______ _____ _____    ______ ____
ROOT
ATOM      2  O   UNL     1     -17.449   3.579  27.183  0.00  0.00    -0.371 OA
ATOM      7  C   UNL     1     -16.579   4.378  25.123  0.00  0.00    +0.111 C 
ATOM      8  C   UNL     1     -16.097   2.957  25.345  0.00  0.00    +0.164 C 
ATOM      9  C   UNL     1     -17.122   2.454  26.352  0.00  0.00    +0.165 C 
ATOM     10  C   UNL     1     -16.997   4.777  26.528  0.00  0.00    +0.181 C 
ENDROOT
BRANCH   8   3
ATOM      3  O   UNL     1     -16.099   2.187  24.159  0.00  0.00    -0.388 OA
ATOM     25  H   UNL     1     -15.441   1.478  24.252  0.00  0.00    +0.210 HD
ENDBRANCH   8   3
BRANCH   7   5
ATOM      5  N   UNL     1     -15.566   5.257  24.563  0.00  0.00    -0.304 NA
ATOM     24  H   UNL     1     -14.658   4.793  24.615  0.00  0.00    +0.123 HD
BRANCH   5  12
ATOM     12  C   UNL     1     -15.857   5.576  23.170  0.00  0.00    +0.124 C 
BRANCH  12  13
ATOM      1  S   UNL     1     -14.522   7.717  22.000  0.00  0.00    -0.100 S 
ATOM     13  C   UNL     1     -14.635   6.065  22.439  0.00  0.00    +0.004 A 
ATOM     15  C   UNL     1     -13.527   5.348  22.044  0.00  0.00    +0.012 A 
ATOM     17  C   UNL     1     -12.573   6.165  21.373  0.00  0.00    +0.008 A 
ATOM     18  C   UNL     1     -12.988   7.476  21.279  0.00  0.00    +0.045 A 
ENDBRANCH  12  13
ENDBRANCH   5  12
ENDBRANCH   7   5
BRANCH   9  11
ATOM     11  C   UNL     1     -16.609   1.311  27.211  0.00  0.00    +0.138 C 
BRANCH  11   6
ATOM      4  O   UNL     1     -15.007  -0.195  29.058  0.00  0.00    -0.270 OA
ATOM      6  N   UNL     1     -16.011   1.797  28.421  0.00  0.00    -0.309 N 
ATOM     14  C   UNL     1     -15.247   0.993  29.260  0.00  0.00    +0.244 C 
ATOM     26  H   UNL     1     -16.229   2.752  28.683  0.00  0.00    +0.149 HD
BRANCH  14  16
ATOM     16  C   UNL     1     -14.718   1.640  30.488  0.00  0.00    +0.037 A 
ATOM     19  C   UNL     1     -15.034   1.119  31.743  0.00  0.00    +0.013 A 
ATOM     20  C   UNL     1     -13.904   2.768  30.386  0.00  0.00    +0.013 A 
ATOM     21  C   UNL     1     -14.537   1.727  32.896  0.00  0.00    +0.001 A 
ATOM     22  C   UNL     1     -13.406   3.376  31.538  0.00  0.00    +0.001 A 
ATOM     23  C   UNL     1     -13.723   2.856  32.794  0.00  0.00    +0.000 A 
ENDBRANCH  14  16
ENDBRANCH  11   6
ENDBRANCH   9  11
TORSDOF 7
ENDMDL
MODEL 10
REMARK VINA RESULT:      -5.9     16.223     18.910
REMARK  Name = 86769003
REMARK  7 active torsions:
REMARK  status: ('A' for Active; 'I' for Inactive)
REMARK    1  A    between atoms: O_3  and  C_8
REMARK    2  A    between atoms: N_5  and  C_7
REMARK    3  A    between atoms: N_5  and  C_12
REMARK    4  A    between atoms: N_6  and  C_11
REMARK    5  A    between atoms: C_9  and  C_11
REMARK    6  A    between atoms: C_12  and  C_13
REMARK    7  A    between atoms: C_14  and  C_16
REMARK                            x       y       z     vdW  Elec       q    Type
REMARK                         _______ _______ _______ _____ _____    ______ ____
ROOT
ATOM      2  O   UNL     1      13.257   5.109   0.106  0.00  0.00    -0.371 OA
ATOM      7  C   UNL     1      15.242   5.708   1.265  0.00  0.00    +0.111 C 
ATOM      8  C   UNL     1      14.606   4.517   1.957  0.00  0.00    +0.164 C 
ATOM      9  C   UNL     1      13.725   3.968   0.843  0.00  0.00    +0.165 C 
ATOM     10  C   UNL     1      14.075   6.241   0.450  0.00  0.00    +0.181 C 
ENDROOT
BRANCH   8   3
ATOM      3  O   UNL     1      15.558   3.568   2.394  0.00  0.00    -0.388 OA
ATOM     25  H   UNL     1      16.107   3.311   1.634  0.00  0.00    +0.210 HD
ENDBRANCH   8   3
BRANCH   7   5
ATOM      5  N   UNL     1      15.787   6.694   2.184  0.00  0.00    -0.304 NA
ATOM     24  H   UNL     1      16.590   7.148   1.746  0.00  0.00    +0.123 HD
BRANCH   5  12
ATOM     12  C   UNL     1      14.793   7.707   2.519  0.00  0.00    +0.124 C 
BRANCH  12  13
ATOM      1  S   UNL     1      15.439   7.780   5.224  0.00  0.00    -0.100 S 
ATOM     13  C   UNL     1      14.320   7.579   3.943  0.00  0.00    +0.004 A 
ATOM     15  C   UNL     1      13.050   7.307   4.404  0.00  0.00    +0.012 A 
ATOM     17  C   UNL     1      12.995   7.266   5.826  0.00  0.00    +0.008 A 
ATOM     18  C   UNL     1      14.225   7.505   6.400  0.00  0.00    +0.045 A 
ENDBRANCH  12  13
ENDBRANCH   5  12
ENDBRANCH   7   5
BRANCH   9  11
ATOM     11  C   UNL     1      12.541   3.166   1.354  0.00  0.00    +0.138 C 
BRANCH  11   6
ATOM      4  O   UNL     1      10.115   4.699   1.233  0.00  0.00    -0.270 OA
ATOM      6  N   UNL     1      11.893   3.832   2.447  0.00  0.00    -0.309 N 
ATOM     14  C   UNL     1      10.715   4.556   2.297  0.00  0.00    +0.244 C 
ATOM     26  H   UNL     1      12.373   3.813   3.340  0.00  0.00    +0.149 HD
BRANCH  14  16
ATOM     16  C   UNL     1      10.183   5.208   3.521  0.00  0.00    +0.037 A 
ATOM     19  C   UNL     1      10.293   4.570   4.756  0.00  0.00    +0.013 A 
ATOM     20  C   UNL     1       9.574   6.461   3.435  0.00  0.00    +0.013 A 
ATOM     21  C   UNL     1       9.794   5.184   5.905  0.00  0.00    +0.001 A 
ATOM     22  C   UNL     1       9.076   7.075   4.583  0.00  0.00    +0.001 A 
ATOM     23  C   UNL     1       9.185   6.436   5.819  0.00  0.00    +0.000 A 
ENDBRANCH  14  16
ENDBRANCH  11   6
ENDBRANCH   9  11
TORSDOF 7
ENDMDL
