MODEL 1
REMARK VINA RESULT:      -7.1      0.000      0.000
REMARK  Name = 11911745
REMARK  7 active torsions:
REMARK  status: ('A' for Active; 'I' for Inactive)
REMARK    1  A    between atoms: N_5  and  C_12
REMARK    2  A    between atoms: N_6  and  C_13
REMARK    3  A    between atoms: N_9  and  C_26
REMARK    4  A    between atoms: N_9  and  C_29
REMARK    5  A    between atoms: N_9  and  C_30
REMARK    6  A    between atoms: C_16  and  C_18
REMARK    7  A    between atoms: C_21  and  C_27
REMARK                            x       y       z     vdW  Elec       q    Type
REMARK                         _______ _______ _______ _____ _____    ______ ____
ROOT
ATOM      2  O   UNL     1      13.191   8.112  20.972  0.00  0.00    -0.370 OA
ATOM      3  O   UNL     1      13.408   8.521  17.885  0.00  0.00    -0.370 OA
ATOM     10  C   UNL     1      14.378   8.492  18.946  0.00  0.00    +0.171 C 
ATOM     11  C   UNL     1      13.747   9.156  20.154  0.00  0.00    +0.171 C 
ATOM     12  C   UNL     1      14.624   7.070  19.395  0.00  0.00    +0.130 C 
ATOM     13  C   UNL     1      12.645  10.010  19.572  0.00  0.00    +0.130 C 
ATOM     14  C   UNL     1      13.494   6.840  20.381  0.00  0.00    +0.185 C 
ATOM     15  C   UNL     1      12.245   9.236  18.328  0.00  0.00    +0.185 C 
ENDROOT
BRANCH  13   6
ATOM      6  N   UNL     1      13.165  11.309  19.207  0.00  0.00    -0.306 N 
ATOM      7  N   UNL     1      12.511  12.266  21.247  0.00  0.00    -0.214 NA
ATOM      8  N   UNL     1      13.629  13.580  19.565  0.00  0.00    -0.223 NA
ATOM     17  C   UNL     1      13.100  12.419  20.031  0.00  0.00    +0.216 A 
ATOM     21  C   UNL     1      12.466  13.368  22.024  0.00  0.00    +0.083 A 
ATOM     22  C   UNL     1      13.550  14.641  20.395  0.00  0.00    +0.116 A 
ATOM     23  C   UNL     1      12.973  14.594  21.647  0.00  0.00    +0.049 A 
ATOM     34  H   UNL     1      13.652  11.420  18.325  0.00  0.00    +0.149 HD
BRANCH  21  27
ATOM      1  S   UNL     1      11.688  11.586  23.929  0.00  0.00    -0.095 S 
ATOM     27  C   UNL     1      11.837  13.176  23.304  0.00  0.00    +0.038 A 
ATOM     28  C   UNL     1      11.302  14.115  24.163  0.00  0.00    +0.017 A 
ATOM     31  C   UNL     1      10.766  13.523  25.343  0.00  0.00    +0.008 A 
ATOM     32  C   UNL     1      10.910  12.154  25.346  0.00  0.00    +0.046 A 
ENDBRANCH  21  27
ENDBRANCH  13   6
BRANCH  12   5
ATOM      4  O   UNL     1      16.851   5.513  18.465  0.00  0.00    -0.270 OA
ATOM      5  N   UNL     1      15.912   6.939  20.034  0.00  0.00    -0.304 N 
ATOM     16  C   UNL     1      16.931   6.160  19.507  0.00  0.00    +0.244 C 
ATOM     33  H   UNL     1      16.010   7.352  20.956  0.00  0.00    +0.149 HD
BRANCH  16  18
ATOM     18  C   UNL     1      18.186   6.108  20.299  0.00  0.00    +0.037 A 
ATOM     19  C   UNL     1      18.310   6.926  21.404  0.00  0.00    +0.015 A 
ATOM     20  C   UNL     1      19.187   5.244  19.907  0.00  0.00    +0.015 A 
ATOM     24  C   UNL     1      19.488   6.876  22.149  0.00  0.00    +0.024 A 
ATOM     25  C   UNL     1      20.365   5.195  20.651  0.00  0.00    +0.024 A 
ATOM     26  C   UNL     1      20.516   6.012  21.773  0.00  0.00    +0.029 A 
BRANCH  26   9
ATOM      9  N   UNL     1      21.706   5.960  22.527  0.00  0.00    -0.336 N 
ATOM     29  C   UNL     1      22.371   4.694  22.763  0.00  0.00    +0.129 C 
ATOM     30  C   UNL     1      22.274   7.171  23.087  0.00  0.00    +0.129 C 
ENDBRANCH  26   9
ENDBRANCH  16  18
ENDBRANCH  12   5
TORSDOF 5
ENDMDL
MODEL 2
REMARK VINA RESULT:      -7.0     28.309     31.157
REMARK  Name = 11911745
REMARK  7 active torsions:
REMARK  status: ('A' for Active; 'I' for Inactive)
REMARK    1  A    between atoms: N_5  and  C_12
REMARK    2  A    between atoms: N_6  and  C_13
REMARK    3  A    between atoms: N_9  and  C_26
REMARK    4  A    between atoms: N_9  and  C_29
REMARK    5  A    between atoms: N_9  and  C_30
REMARK    6  A    between atoms: C_16  and  C_18
REMARK    7  A    between atoms: C_21  and  C_27
REMARK                            x       y       z     vdW  Elec       q    Type
REMARK                         _______ _______ _______ _____ _____    ______ ____
ROOT
ATOM      2  O   UNL     1      -6.062 -11.667  10.125  0.00  0.00    -0.370 OA
ATOM      3  O   UNL     1      -4.789  -8.823  10.320  0.00  0.00    -0.370 OA
ATOM     10  C   UNL     1      -4.469  -9.995   9.551  0.00  0.00    +0.171 C 
ATOM     11  C   UNL     1      -4.737 -11.201  10.431  0.00  0.00    +0.171 C 
ATOM     12  C   UNL     1      -5.443 -10.154   8.405  0.00  0.00    +0.130 C 
ATOM     13  C   UNL     1      -4.686 -10.650  11.837  0.00  0.00    +0.130 C 
ATOM     14  C   UNL     1      -6.608 -10.867   9.065  0.00  0.00    +0.185 C 
ATOM     15  C   UNL     1      -5.156  -9.218  11.651  0.00  0.00    +0.185 C 
ENDROOT
BRANCH  13   6
ATOM      6  N   UNL     1      -3.326 -10.669  12.328  0.00  0.00    -0.306 N 
ATOM      7  N   UNL     1      -4.018 -10.599  14.569  0.00  0.00    -0.214 NA
ATOM      8  N   UNL     1      -1.678 -10.670  13.998  0.00  0.00    -0.223 NA
ATOM     17  C   UNL     1      -2.997 -10.645  13.672  0.00  0.00    +0.216 A 
ATOM     21  C   UNL     1      -3.661 -10.578  15.870  0.00  0.00    +0.083 A 
ATOM     22  C   UNL     1      -1.393 -10.647  15.317  0.00  0.00    +0.116 A 
ATOM     23  C   UNL     1      -2.353 -10.600  16.307  0.00  0.00    +0.049 A 
ATOM     34  H   UNL     1      -2.560 -10.757  11.670  0.00  0.00    +0.149 HD
BRANCH  21  27
ATOM      1  S   UNL     1      -6.248  -9.842  16.286  0.00  0.00    -0.095 S 
ATOM     27  C   UNL     1      -4.761 -10.529  16.795  0.00  0.00    +0.038 A 
ATOM     28  C   UNL     1      -4.823 -10.968  18.103  0.00  0.00    +0.017 A 
ATOM     31  C   UNL     1      -6.102 -10.738  18.689  0.00  0.00    +0.008 A 
ATOM     32  C   UNL     1      -6.972 -10.133  17.811  0.00  0.00    +0.046 A 
ENDBRANCH  21  27
ENDBRANCH  13   6
BRANCH  12   5
ATOM      4  O   UNL     1      -6.183 -10.091   5.631  0.00  0.00    -0.270 OA
ATOM      5  N   UNL     1      -4.875 -10.949   7.343  0.00  0.00    -0.304 N 
ATOM     16  C   UNL     1      -5.300 -10.849   6.027  0.00  0.00    +0.244 C 
ATOM     33  H   UNL     1      -4.223 -11.678   7.615  0.00  0.00    +0.149 HD
BRANCH  16  18
ATOM     18  C   UNL     1      -4.634 -11.756   5.058  0.00  0.00    +0.037 A 
ATOM     19  C   UNL     1      -5.280 -12.059   3.877  0.00  0.00    +0.015 A 
ATOM     20  C   UNL     1      -3.390 -12.265   5.368  0.00  0.00    +0.015 A 
ATOM     24  C   UNL     1      -4.653 -12.910   2.966  0.00  0.00    +0.024 A 
ATOM     25  C   UNL     1      -2.763 -13.115   4.457  0.00  0.00    +0.024 A 
ATOM     26  C   UNL     1      -3.396 -13.438   3.256  0.00  0.00    +0.029 A 
BRANCH  26   9
ATOM      9  N   UNL     1      -2.761 -14.297   2.335  0.00  0.00    -0.336 N 
ATOM     29  C   UNL     1      -3.534 -15.262   1.578  0.00  0.00    +0.129 C 
ATOM     30  C   UNL     1      -1.326 -14.234   2.141  0.00  0.00    +0.129 C 
ENDBRANCH  26   9
ENDBRANCH  16  18
ENDBRANCH  12   5
TORSDOF 5
ENDMDL
MODEL 3
REMARK VINA RESULT:      -6.8     28.228     31.890
REMARK  Name = 11911745
REMARK  7 active torsions:
REMARK  status: ('A' for Active; 'I' for Inactive)
REMARK    1  A    between atoms: N_5  and  C_12
REMARK    2  A    between atoms: N_6  and  C_13
REMARK    3  A    between atoms: N_9  and  C_26
REMARK    4  A    between atoms: N_9  and  C_29
REMARK    5  A    between atoms: N_9  and  C_30
REMARK    6  A    between atoms: C_16  and  C_18
REMARK    7  A    between atoms: C_21  and  C_27
REMARK                            x       y       z     vdW  Elec       q    Type
REMARK                         _______ _______ _______ _____ _____    ______ ____
ROOT
ATOM      2  O   UNL     1      -7.415 -12.253  17.400  0.00  0.00    -0.370 OA
ATOM      3  O   UNL     1      -6.018 -10.737  19.744  0.00  0.00    -0.370 OA
ATOM     10  C   UNL     1      -6.780 -10.302  18.605  0.00  0.00    +0.171 C 
ATOM     11  C   UNL     1      -6.423 -11.214  17.447  0.00  0.00    +0.171 C 
ATOM     12  C   UNL     1      -8.253 -10.556  18.831  0.00  0.00    +0.130 C 
ATOM     13  C   UNL     1      -5.079 -11.788  17.830  0.00  0.00    +0.130 C 
ATOM     14  C   UNL     1      -8.401 -12.007  18.414  0.00  0.00    +0.185 C 
ATOM     15  C   UNL     1      -5.145 -11.805  19.347  0.00  0.00    +0.185 C 
ENDROOT
BRANCH  13   6
ATOM      6  N   UNL     1      -4.019 -10.909  17.386  0.00  0.00    -0.306 N 
ATOM      7  N   UNL     1      -3.488 -12.292  15.566  0.00  0.00    -0.214 NA
ATOM      8  N   UNL     1      -2.276 -10.247  15.964  0.00  0.00    -0.223 NA
ATOM     17  C   UNL     1      -3.237 -11.157  16.272  0.00  0.00    +0.216 A 
ATOM     21  C   UNL     1      -2.707 -12.500  14.486  0.00  0.00    +0.083 A 
ATOM     22  C   UNL     1      -1.532 -10.518  14.871  0.00  0.00    +0.116 A 
ATOM     23  C   UNL     1      -1.704 -11.641  14.087  0.00  0.00    +0.049 A 
ATOM     34  H   UNL     1      -3.860 -10.035  17.874  0.00  0.00    +0.149 HD
BRANCH  21  27
ATOM      1  S   UNL     1      -3.835 -14.976  14.551  0.00  0.00    -0.095 S 
ATOM     27  C   UNL     1      -2.994 -13.708  13.760  0.00  0.00    +0.038 A 
ATOM     28  C   UNL     1      -2.687 -14.036  12.454  0.00  0.00    +0.017 A 
ATOM     31  C   UNL     1      -3.146 -15.338  12.103  0.00  0.00    +0.008 A 
ATOM     32  C   UNL     1      -3.789 -15.960  13.150  0.00  0.00    +0.046 A 
ENDBRANCH  21  27
ENDBRANCH  13   6
BRANCH  12   5
ATOM      4  O   UNL     1     -10.994  -9.831  19.288  0.00  0.00    -0.270 OA
ATOM      5  N   UNL     1      -9.065  -9.690  18.009  0.00  0.00    -0.304 N 
ATOM     16  C   UNL     1     -10.386  -9.397  18.313  0.00  0.00    +0.244 C 
ATOM     33  H   UNL     1      -8.664  -9.388  17.127  0.00  0.00    +0.149 HD
BRANCH  16  18
ATOM     18  C   UNL     1     -11.092  -8.511  17.352  0.00  0.00    +0.037 A 
ATOM     19  C   UNL     1     -10.458  -7.367  16.911  0.00  0.00    +0.015 A 
ATOM     20  C   UNL     1     -12.358  -8.859  16.930  0.00  0.00    +0.015 A 
ATOM     24  C   UNL     1     -11.120  -6.536  16.007  0.00  0.00    +0.024 A 
ATOM     25  C   UNL     1     -13.020  -8.028  16.027  0.00  0.00    +0.024 A 
ATOM     26  C   UNL     1     -12.401  -6.865  15.566  0.00  0.00    +0.029 A 
BRANCH  26   9
ATOM      9  N   UNL     1     -13.070  -6.026  14.652  0.00  0.00    -0.336 N 
ATOM     29  C   UNL     1     -14.503  -6.140  14.463  0.00  0.00    +0.129 C 
ATOM     30  C   UNL     1     -12.332  -5.047  13.879  0.00  0.00    +0.129 C 
ENDBRANCH  26   9
ENDBRANCH  16  18
ENDBRANCH  12   5
TORSDOF 5
ENDMDL
MODEL 4
REMARK VINA RESULT:      -6.8      5.021     11.642
REMARK  Name = 11911745
REMARK  7 active torsions:
REMARK  status: ('A' for Active; 'I' for Inactive)
REMARK    1  A    between atoms: N_5  and  C_12
REMARK    2  A    between atoms: N_6  and  C_13
REMARK    3  A    between atoms: N_9  and  C_26
REMARK    4  A    between atoms: N_9  and  C_29
REMARK    5  A    between atoms: N_9  and  C_30
REMARK    6  A    between atoms: C_16  and  C_18
REMARK    7  A    between atoms: C_21  and  C_27
REMARK                            x       y       z     vdW  Elec       q    Type
REMARK                         _______ _______ _______ _____ _____    ______ ____
ROOT
ATOM      2  O   UNL     1      20.841   6.310  24.154  0.00  0.00    -0.370 OA
ATOM      3  O   UNL     1      22.495   8.332  22.445  0.00  0.00    -0.370 OA
ATOM     10  C   UNL     1      21.254   7.639  22.224  0.00  0.00    +0.171 C 
ATOM     11  C   UNL     1      21.396   6.256  22.829  0.00  0.00    +0.171 C 
ATOM     12  C   UNL     1      20.145   8.279  23.028  0.00  0.00    +0.130 C 
ATOM     13  C   UNL     1      22.888   6.032  22.893  0.00  0.00    +0.130 C 
ATOM     14  C   UNL     1      20.306   7.622  24.386  0.00  0.00    +0.185 C 
ATOM     15  C   UNL     1      23.429   7.440  23.071  0.00  0.00    +0.185 C 
ENDROOT
BRANCH  13   6
ATOM      6  N   UNL     1      23.360   5.469  21.647  0.00  0.00    -0.306 N 
ATOM      7  N   UNL     1      23.684   3.350  22.600  0.00  0.00    -0.214 NA
ATOM      8  N   UNL     1      24.171   3.749  20.274  0.00  0.00    -0.223 NA
ATOM     17  C   UNL     1      23.750   4.149  21.503  0.00  0.00    +0.216 A 
ATOM     21  C   UNL     1      24.071   2.070  22.422  0.00  0.00    +0.083 A 
ATOM     22  C   UNL     1      24.543   2.456  20.168  0.00  0.00    +0.116 A 
ATOM     23  C   UNL     1      24.515   1.562  21.219  0.00  0.00    +0.049 A 
ATOM     34  H   UNL     1      23.363   6.043  20.811  0.00  0.00    +0.149 HD
BRANCH  21  27
ATOM      1  S   UNL     1      22.749   1.549  24.744  0.00  0.00    -0.095 S 
ATOM     27  C   UNL     1      23.991   1.248  23.600  0.00  0.00    +0.038 A 
ATOM     28  C   UNL     1      24.796   0.194  23.987  0.00  0.00    +0.017 A 
ATOM     31  C   UNL     1      24.387  -0.368  25.231  0.00  0.00    +0.008 A 
ATOM     32  C   UNL     1      23.287   0.273  25.752  0.00  0.00    +0.046 A 
ENDBRANCH  21  27
ENDBRANCH  13   6
BRANCH  12   5
ATOM      4  O   UNL     1      18.772   9.813  21.025  0.00  0.00    -0.270 OA
ATOM      5  N   UNL     1      18.852   7.990  22.456  0.00  0.00    -0.304 N 
ATOM     16  C   UNL     1      18.267   8.794  21.489  0.00  0.00    +0.244 C 
ATOM     33  H   UNL     1      18.326   7.228  22.874  0.00  0.00    +0.149 HD
BRANCH  16  18
ATOM     18  C   UNL     1      16.921   8.373  21.022  0.00  0.00    +0.037 A 
ATOM     19  C   UNL     1      16.069   9.327  20.503  0.00  0.00    +0.015 A 
ATOM     20  C   UNL     1      16.566   7.044  21.120  0.00  0.00    +0.015 A 
ATOM     24  C   UNL     1      14.805   8.932  20.062  0.00  0.00    +0.024 A 
ATOM     25  C   UNL     1      15.303   6.649  20.680  0.00  0.00    +0.024 A 
ATOM     26  C   UNL     1      14.422   7.594  20.152  0.00  0.00    +0.029 A 
BRANCH  26   9
ATOM      9  N   UNL     1      13.146   7.194  19.705  0.00  0.00    -0.336 N 
ATOM     29  C   UNL     1      12.786   7.317  18.306  0.00  0.00    +0.129 C 
ATOM     30  C   UNL     1      12.172   6.668  20.641  0.00  0.00    +0.129 C 
ENDBRANCH  26   9
ENDBRANCH  16  18
ENDBRANCH  12   5
TORSDOF 5
ENDMDL
MODEL 5
REMARK VINA RESULT:      -6.7     28.238     31.460
REMARK  Name = 11911745
REMARK  7 active torsions:
REMARK  status: ('A' for Active; 'I' for Inactive)
REMARK    1  A    between atoms: N_5  and  C_12
REMARK    2  A    between atoms: N_6  and  C_13
REMARK    3  A    between atoms: N_9  and  C_26
REMARK    4  A    between atoms: N_9  and  C_29
REMARK    5  A    between atoms: N_9  and  C_30
REMARK    6  A    between atoms: C_16  and  C_18
REMARK    7  A    between atoms: C_21  and  C_27
REMARK                            x       y       z     vdW  Elec       q    Type
REMARK                         _______ _______ _______ _____ _____    ______ ____
ROOT
ATOM      2  O   UNL     1     -17.124   5.776  24.475  0.00  0.00    -0.370 OA
ATOM      3  O   UNL     1     -16.715   3.262  22.672  0.00  0.00    -0.370 OA
ATOM     10  C   UNL     1     -16.197   3.648  23.956  0.00  0.00    +0.171 C 
ATOM     11  C   UNL     1     -15.960   5.145  23.916  0.00  0.00    +0.171 C 
ATOM     12  C   UNL     1     -17.253   3.471  25.024  0.00  0.00    +0.130 C 
ATOM     13  C   UNL     1     -15.847   5.462  22.444  0.00  0.00    +0.130 C 
ATOM     14  C   UNL     1     -18.041   4.764  24.918  0.00  0.00    +0.185 C 
ATOM     15  C   UNL     1     -16.735   4.407  21.807  0.00  0.00    +0.185 C 
ENDROOT
BRANCH  13   6
ATOM      6  N   UNL     1     -14.479   5.295  22.004  0.00  0.00    -0.306 N 
ATOM      7  N   UNL     1     -14.208   7.594  21.618  0.00  0.00    -0.214 NA
ATOM      8  N   UNL     1     -12.404   6.049  21.211  0.00  0.00    -0.223 NA
ATOM     17  C   UNL     1     -13.673   6.344  21.599  0.00  0.00    +0.216 A 
ATOM     21  C   UNL     1     -13.393   8.592  21.217  0.00  0.00    +0.083 A 
ATOM     22  C   UNL     1     -11.645   7.095  20.824  0.00  0.00    +0.116 A 
ATOM     23  C   UNL     1     -12.091   8.400  20.805  0.00  0.00    +0.049 A 
ATOM     34  H   UNL     1     -14.054   4.376  22.037  0.00  0.00    +0.149 HD
BRANCH  21  27
ATOM      1  S   UNL     1     -15.652  10.071  20.874  0.00  0.00    -0.095 S 
ATOM     27  C   UNL     1     -13.987   9.902  21.247  0.00  0.00    +0.038 A 
ATOM     28  C   UNL     1     -13.404  11.118  21.544  0.00  0.00    +0.017 A 
ATOM     31  C   UNL     1     -14.334  12.195  21.464  0.00  0.00    +0.008 A 
ATOM     32  C   UNL     1     -15.593  11.767  21.110  0.00  0.00    +0.046 A 
ENDBRANCH  21  27
ENDBRANCH  13   6
BRANCH  12   5
ATOM      4  O   UNL     1     -16.983   1.039  26.526  0.00  0.00    -0.270 OA
ATOM      5  N   UNL     1     -16.656   3.326  26.330  0.00  0.00    -0.304 N 
ATOM     16  C   UNL     1     -16.571   2.104  26.979  0.00  0.00    +0.244 C 
ATOM     33  H   UNL     1     -16.399   4.181  26.813  0.00  0.00    +0.149 HD
BRANCH  16  18
ATOM     18  C   UNL     1     -15.953   2.127  28.330  0.00  0.00    +0.037 A 
ATOM     19  C   UNL     1     -15.363   3.293  28.772  0.00  0.00    +0.015 A 
ATOM     20  C   UNL     1     -15.991   0.984  29.100  0.00  0.00    +0.015 A 
ATOM     24  C   UNL     1     -14.784   3.316  30.041  0.00  0.00    +0.024 A 
ATOM     25  C   UNL     1     -15.412   1.006  30.369  0.00  0.00    +0.024 A 
ATOM     26  C   UNL     1     -14.808   2.173  30.839  0.00  0.00    +0.029 A 
BRANCH  26   9
ATOM      9  N   UNL     1     -14.224   2.196  32.122  0.00  0.00    -0.336 N 
ATOM     29  C   UNL     1     -14.717   1.321  33.168  0.00  0.00    +0.129 C 
ATOM     30  C   UNL     1     -13.133   3.103  32.417  0.00  0.00    +0.129 C 
ENDBRANCH  26   9
ENDBRANCH  16  18
ENDBRANCH  12   5
TORSDOF 5
ENDMDL
MODEL 6
REMARK VINA RESULT:      -6.3     28.927     31.444
REMARK  Name = 11911745
REMARK  7 active torsions:
REMARK  status: ('A' for Active; 'I' for Inactive)
REMARK    1  A    between atoms: N_5  and  C_12
REMARK    2  A    between atoms: N_6  and  C_13
REMARK    3  A    between atoms: N_9  and  C_26
REMARK    4  A    between atoms: N_9  and  C_29
REMARK    5  A    between atoms: N_9  and  C_30
REMARK    6  A    between atoms: C_16  and  C_18
REMARK    7  A    between atoms: C_21  and  C_27
REMARK                            x       y       z     vdW  Elec       q    Type
REMARK                         _______ _______ _______ _____ _____    ______ ____
ROOT
ATOM      2  O   UNL     1     -10.206  -7.427  15.907  0.00  0.00    -0.370 OA
ATOM      3  O   UNL     1     -11.785  -9.993  16.721  0.00  0.00    -0.370 OA
ATOM     10  C   UNL     1     -10.501  -9.779  16.112  0.00  0.00    +0.171 C 
ATOM     11  C   UNL     1     -10.635  -8.590  15.180  0.00  0.00    +0.171 C 
ATOM     12  C   UNL     1      -9.498  -9.321  17.147  0.00  0.00    +0.130 C 
ATOM     13  C   UNL     1     -12.116  -8.512  14.893  0.00  0.00    +0.130 C 
ATOM     14  C   UNL     1      -9.753  -7.827  17.209  0.00  0.00    +0.185 C 
ATOM     15  C   UNL     1     -12.732  -9.069  16.164  0.00  0.00    +0.185 C 
ENDROOT
BRANCH  13   6
ATOM      6  N   UNL     1     -12.448  -9.357  13.765  0.00  0.00    -0.306 N 
ATOM      7  N   UNL     1     -12.305  -7.573  12.248  0.00  0.00    -0.214 NA
ATOM      8  N   UNL     1     -12.857  -9.795  11.498  0.00  0.00    -0.223 NA
ATOM     17  C   UNL     1     -12.540  -8.894  12.464  0.00  0.00    +0.216 A 
ATOM     21  C   UNL     1     -12.402  -7.158  10.968  0.00  0.00    +0.083 A 
ATOM     22  C   UNL     1     -12.937  -9.312  10.241  0.00  0.00    +0.116 A 
ATOM     23  C   UNL     1     -12.719  -7.989   9.913  0.00  0.00    +0.049 A 
ATOM     34  H   UNL     1     -12.572 -10.352  13.909  0.00  0.00    +0.149 HD
BRANCH  21  27
ATOM      1  S   UNL     1     -11.391  -5.243   9.319  0.00  0.00    -0.095 S 
ATOM     27  C   UNL     1     -12.150  -5.756  10.769  0.00  0.00    +0.038 A 
ATOM     28  C   UNL     1     -12.433  -4.691  11.601  0.00  0.00    +0.017 A 
ATOM     31  C   UNL     1     -12.024  -3.446  11.042  0.00  0.00    +0.008 A 
ATOM     32  C   UNL     1     -11.443  -3.601   9.804  0.00  0.00    +0.046 A 
ENDBRANCH  21  27
ENDBRANCH  13   6
BRANCH  12   5
ATOM      4  O   UNL     1      -7.621 -11.052  18.462  0.00  0.00    -0.270 OA
ATOM      5  N   UNL     1      -8.147  -9.606  16.727  0.00  0.00    -0.304 N 
ATOM     16  C   UNL     1      -7.311 -10.460  17.431  0.00  0.00    +0.244 C 
ATOM     33  H   UNL     1      -7.786  -9.063  15.949  0.00  0.00    +0.149 HD
BRANCH  16  18
ATOM     18  C   UNL     1      -5.941 -10.626  16.882  0.00  0.00    +0.037 A 
ATOM     19  C   UNL     1      -4.914 -10.957  17.743  0.00  0.00    +0.015 A 
ATOM     20  C   UNL     1      -5.738 -10.448  15.529  0.00  0.00    +0.015 A 
ATOM     24  C   UNL     1      -3.628 -11.115  17.227  0.00  0.00    +0.024 A 
ATOM     25  C   UNL     1      -4.453 -10.606  15.013  0.00  0.00    +0.024 A 
ATOM     26  C   UNL     1      -3.397 -10.939  15.863  0.00  0.00    +0.029 A 
BRANCH  26   9
ATOM      9  N   UNL     1      -2.097 -11.100  15.341  0.00  0.00    -0.336 N 
ATOM     29  C   UNL     1      -1.815 -12.153  14.385  0.00  0.00    +0.129 C 
ATOM     30  C   UNL     1      -1.022 -10.224  15.763  0.00  0.00    +0.129 C 
ENDBRANCH  26   9
ENDBRANCH  16  18
ENDBRANCH  12   5
TORSDOF 5
ENDMDL
MODEL 7
REMARK VINA RESULT:      -6.2     18.902     22.156
REMARK  Name = 11911745
REMARK  7 active torsions:
REMARK  status: ('A' for Active; 'I' for Inactive)
REMARK    1  A    between atoms: N_5  and  C_12
REMARK    2  A    between atoms: N_6  and  C_13
REMARK    3  A    between atoms: N_9  and  C_26
REMARK    4  A    between atoms: N_9  and  C_29
REMARK    5  A    between atoms: N_9  and  C_30
REMARK    6  A    between atoms: C_16  and  C_18
REMARK    7  A    between atoms: C_21  and  C_27
REMARK                            x       y       z     vdW  Elec       q    Type
REMARK                         _______ _______ _______ _____ _____    ______ ____
ROOT
ATOM      2  O   UNL     1       5.264   9.784   1.148  0.00  0.00    -0.370 OA
ATOM      3  O   UNL     1       4.265  12.115   2.968  0.00  0.00    -0.370 OA
ATOM     10  C   UNL     1       4.718  10.778   3.240  0.00  0.00    +0.171 C 
ATOM     11  C   UNL     1       4.209   9.892   2.119  0.00  0.00    +0.171 C 
ATOM     12  C   UNL     1       6.223  10.697   3.116  0.00  0.00    +0.130 C 
ATOM     13  C   UNL     1       3.042  10.659   1.543  0.00  0.00    +0.130 C 
ATOM     14  C   UNL     1       6.416  10.493   1.625  0.00  0.00    +0.185 C 
ATOM     15  C   UNL     1       3.434  12.103   1.797  0.00  0.00    +0.185 C 
ENDROOT
BRANCH  13   6
ATOM      6  N   UNL     1       1.831  10.335   2.266  0.00  0.00    -0.306 N 
ATOM      7  N   UNL     1       0.512  10.454   0.329  0.00  0.00    -0.214 NA
ATOM      8  N   UNL     1      -0.469   9.921   2.465  0.00  0.00    -0.223 NA
ATOM     17  C   UNL     1       0.587  10.234   1.669  0.00  0.00    +0.216 A 
ATOM     21  C   UNL     1      -0.715  10.345  -0.219  0.00  0.00    +0.083 A 
ATOM     22  C   UNL     1      -1.666   9.829   1.850  0.00  0.00    +0.116 A 
ATOM     23  C   UNL     1      -1.852  10.033   0.498  0.00  0.00    +0.049 A 
ATOM     34  H   UNL     1       1.885  10.118   3.255  0.00  0.00    +0.149 HD
BRANCH  21  27
ATOM      1  S   UNL     1       0.682  10.994  -2.463  0.00  0.00    -0.095 S 
ATOM     27  C   UNL     1      -0.764  10.584  -1.637  0.00  0.00    +0.038 A 
ATOM     28  C   UNL     1      -1.846  10.535  -2.494  0.00  0.00    +0.017 A 
ATOM     31  C   UNL     1      -1.482  10.837  -3.838  0.00  0.00    +0.008 A 
ATOM     32  C   UNL     1      -0.138  11.105  -3.963  0.00  0.00    +0.046 A 
ENDBRANCH  21  27
ENDBRANCH  13   6
BRANCH  12   5
ATOM      4  O   UNL     1       8.305  10.797   5.092  0.00  0.00    -0.270 OA
ATOM      5  N   UNL     1       6.750   9.585   3.870  0.00  0.00    -0.304 N 
ATOM     16  C   UNL     1       7.762   9.733   4.807  0.00  0.00    +0.244 C 
ATOM     33  H   UNL     1       6.429   8.660   3.606  0.00  0.00    +0.149 HD
BRANCH  16  18
ATOM     18  C   UNL     1       8.212   8.486   5.479  0.00  0.00    +0.037 A 
ATOM     19  C   UNL     1       8.584   8.542   6.806  0.00  0.00    +0.015 A 
ATOM     20  C   UNL     1       8.241   7.312   4.755  0.00  0.00    +0.015 A 
ATOM     24  C   UNL     1       9.005   7.372   7.438  0.00  0.00    +0.024 A 
ATOM     25  C   UNL     1       8.662   6.142   5.386  0.00  0.00    +0.024 A 
ATOM     26  C   UNL     1       9.045   6.172   6.727  0.00  0.00    +0.029 A 
BRANCH  26   9
ATOM      9  N   UNL     1       9.469   4.988   7.365  0.00  0.00    -0.336 N 
ATOM     29  C   UNL     1       9.570   4.929   8.810  0.00  0.00    +0.129 C 
ATOM     30  C   UNL     1       9.821   3.818   6.584  0.00  0.00    +0.129 C 
ENDBRANCH  26   9
ENDBRANCH  16  18
ENDBRANCH  12   5
TORSDOF 5
ENDMDL
MODEL 8
REMARK VINA RESULT:      -6.1     14.338     16.764
REMARK  Name = 11911745
REMARK  7 active torsions:
REMARK  status: ('A' for Active; 'I' for Inactive)
REMARK    1  A    between atoms: N_5  and  C_12
REMARK    2  A    between atoms: N_6  and  C_13
REMARK    3  A    between atoms: N_9  and  C_26
REMARK    4  A    between atoms: N_9  and  C_29
REMARK    5  A    between atoms: N_9  and  C_30
REMARK    6  A    between atoms: C_16  and  C_18
REMARK    7  A    between atoms: C_21  and  C_27
REMARK                            x       y       z     vdW  Elec       q    Type
REMARK                         _______ _______ _______ _____ _____    ______ ____
ROOT
ATOM      2  O   UNL     1      11.945   7.606   7.146  0.00  0.00    -0.370 OA
ATOM      3  O   UNL     1       8.889   7.280   6.606  0.00  0.00    -0.370 OA
ATOM     10  C   UNL     1      10.045   7.282   5.752  0.00  0.00    +0.171 C 
ATOM     11  C   UNL     1      11.014   8.309   6.307  0.00  0.00    +0.171 C 
ATOM     12  C   UNL     1      10.790   5.972   5.872  0.00  0.00    +0.130 C 
ATOM     13  C   UNL     1      10.146   9.224   7.137  0.00  0.00    +0.130 C 
ATOM     14  C   UNL     1      11.656   6.201   7.096  0.00  0.00    +0.185 C 
ATOM     15  C   UNL     1       9.038   8.299   7.607  0.00  0.00    +0.185 C 
ENDROOT
BRANCH  13   6
ATOM      6  N   UNL     1       9.601  10.277   6.308  0.00  0.00    -0.306 N 
ATOM      7  N   UNL     1       9.128  11.640   8.159  0.00  0.00    -0.214 NA
ATOM      8  N   UNL     1       8.619  12.372   5.921  0.00  0.00    -0.223 NA
ATOM     17  C   UNL     1       9.101  11.465   6.811  0.00  0.00    +0.216 A 
ATOM     21  C   UNL     1       8.634  12.810   8.614  0.00  0.00    +0.083 A 
ATOM     22  C   UNL     1       8.141  13.520   6.445  0.00  0.00    +0.116 A 
ATOM     23  C   UNL     1       8.122  13.796   7.796  0.00  0.00    +0.049 A 
ATOM     34  H   UNL     1       9.625  10.179   5.300  0.00  0.00    +0.149 HD
BRANCH  21  27
ATOM      1  S   UNL     1       8.699  14.546  10.709  0.00  0.00    -0.095 S 
ATOM     27  C   UNL     1       8.676  12.965  10.043  0.00  0.00    +0.038 A 
ATOM     28  C   UNL     1       8.701  11.997  11.027  0.00  0.00    +0.017 A 
ATOM     31  C   UNL     1       8.740  12.558  12.336  0.00  0.00    +0.008 A 
ATOM     32  C   UNL     1       8.743  13.935  12.309  0.00  0.00    +0.046 A 
ENDBRANCH  21  27
ENDBRANCH  13   6
BRANCH  12   5
ATOM      4  O   UNL     1       9.945   4.666   3.458  0.00  0.00    -0.270 OA
ATOM      5  N   UNL     1      11.595   5.720   4.701  0.00  0.00    -0.304 N 
ATOM     16  C   UNL     1      11.096   5.079   3.577  0.00  0.00    +0.244 C 
ATOM     33  H   UNL     1      12.585   5.930   4.772  0.00  0.00    +0.149 HD
BRANCH  16  18
ATOM     18  C   UNL     1      12.060   4.871   2.465  0.00  0.00    +0.037 A 
ATOM     19  C   UNL     1      12.268   3.591   1.995  0.00  0.00    +0.015 A 
ATOM     20  C   UNL     1      12.714   5.965   1.938  0.00  0.00    +0.015 A 
ATOM     24  C   UNL     1      13.171   3.396   0.950  0.00  0.00    +0.024 A 
ATOM     25  C   UNL     1      13.618   5.771   0.894  0.00  0.00    +0.024 A 
ATOM     26  C   UNL     1      13.847   4.486   0.400  0.00  0.00    +0.029 A 
BRANCH  26   9
ATOM      9  N   UNL     1      14.759   4.290  -0.657  0.00  0.00    -0.336 N 
ATOM     29  C   UNL     1      16.179   4.170  -0.389  0.00  0.00    +0.129 C 
ATOM     30  C   UNL     1      14.291   4.218  -2.027  0.00  0.00    +0.129 C 
ENDBRANCH  26   9
ENDBRANCH  16  18
ENDBRANCH  12   5
TORSDOF 5
ENDMDL
MODEL 9
REMARK VINA RESULT:      -6.0      4.970     11.973
REMARK  Name = 11911745
REMARK  7 active torsions:
REMARK  status: ('A' for Active; 'I' for Inactive)
REMARK    1  A    between atoms: N_5  and  C_12
REMARK    2  A    between atoms: N_6  and  C_13
REMARK    3  A    between atoms: N_9  and  C_26
REMARK    4  A    between atoms: N_9  and  C_29
REMARK    5  A    between atoms: N_9  and  C_30
REMARK    6  A    between atoms: C_16  and  C_18
REMARK    7  A    between atoms: C_21  and  C_27
REMARK                            x       y       z     vdW  Elec       q    Type
REMARK                         _______ _______ _______ _____ _____    ______ ____
ROOT
ATOM      2  O   UNL     1      20.673   6.740  24.125  0.00  0.00    -0.370 OA
ATOM      3  O   UNL     1      21.970   7.541  21.402  0.00  0.00    -0.370 OA
ATOM     10  C   UNL     1      20.656   7.092  21.773  0.00  0.00    +0.171 C 
ATOM     11  C   UNL     1      20.824   6.058  22.869  0.00  0.00    +0.171 C 
ATOM     12  C   UNL     1      19.886   8.210  22.438  0.00  0.00    +0.130 C 
ATOM     13  C   UNL     1      22.245   5.572  22.704  0.00  0.00    +0.130 C 
ATOM     14  C   UNL     1      20.358   8.118  23.877  0.00  0.00    +0.185 C 
ATOM     15  C   UNL     1      22.950   6.791  22.136  0.00  0.00    +0.185 C 
ENDROOT
BRANCH  13   6
ATOM      6  N   UNL     1      22.288   4.482  21.753  0.00  0.00    -0.306 N 
ATOM      7  N   UNL     1      24.012   3.393  22.915  0.00  0.00    -0.214 NA
ATOM      8  N   UNL     1      23.092   2.452  20.897  0.00  0.00    -0.223 NA
ATOM     17  C   UNL     1      23.157   3.410  21.858  0.00  0.00    +0.216 A 
ATOM     21  C   UNL     1      24.843   2.333  22.986  0.00  0.00    +0.083 A 
ATOM     22  C   UNL     1      23.951   1.420  21.030  0.00  0.00    +0.116 A 
ATOM     23  C   UNL     1      24.859   1.307  22.063  0.00  0.00    +0.049 A 
ATOM     34  H   UNL     1      21.620   4.459  20.992  0.00  0.00    +0.149 HD
BRANCH  21  27
ATOM      1  S   UNL     1      27.178   3.268  24.027  0.00  0.00    -0.095 S 
ATOM     27  C   UNL     1      25.736   2.343  24.114  0.00  0.00    +0.038 A 
ATOM     28  C   UNL     1      25.618   1.692  25.326  0.00  0.00    +0.017 A 
ATOM     31  C   UNL     1      26.721   1.957  26.189  0.00  0.00    +0.008 A 
ATOM     32  C   UNL     1      27.642   2.799  25.608  0.00  0.00    +0.046 A 
ENDBRANCH  21  27
ENDBRANCH  13   6
BRANCH  12   5
ATOM      4  O   UNL     1      18.019   9.774  20.916  0.00  0.00    -0.270 OA
ATOM      5  N   UNL     1      18.463   7.997  22.338  0.00  0.00    -0.304 N 
ATOM     16  C   UNL     1      17.638   8.809  21.574  0.00  0.00    +0.244 C 
ATOM     33  H   UNL     1      18.062   7.289  22.945  0.00  0.00    +0.149 HD
BRANCH  16  18
ATOM     18  C   UNL     1      16.191   8.472  21.597  0.00  0.00    +0.037 A 
ATOM     19  C   UNL     1      15.788   7.238  21.132  0.00  0.00    +0.015 A 
ATOM     20  C   UNL     1      15.298   9.403  22.085  0.00  0.00    +0.015 A 
ATOM     24  C   UNL     1      14.430   6.920  21.155  0.00  0.00    +0.024 A 
ATOM     25  C   UNL     1      13.940   9.086  22.109  0.00  0.00    +0.024 A 
ATOM     26  C   UNL     1      13.506   7.844  21.643  0.00  0.00    +0.029 A 
BRANCH  26   9
ATOM      9  N   UNL     1      12.133   7.524  21.668  0.00  0.00    -0.336 N 
ATOM     29  C   UNL     1      11.172   8.454  22.226  0.00  0.00    +0.129 C 
ATOM     30  C   UNL     1      11.666   6.253  21.149  0.00  0.00    +0.129 C 
ENDBRANCH  26   9
ENDBRANCH  16  18
ENDBRANCH  12   5
TORSDOF 5
ENDMDL
MODEL 10
REMARK VINA RESULT:      -6.0     27.375     30.544
REMARK  Name = 11911745
REMARK  7 active torsions:
REMARK  status: ('A' for Active; 'I' for Inactive)
REMARK    1  A    between atoms: N_5  and  C_12
REMARK    2  A    between atoms: N_6  and  C_13
REMARK    3  A    between atoms: N_9  and  C_26
REMARK    4  A    between atoms: N_9  and  C_29
REMARK    5  A    between atoms: N_9  and  C_30
REMARK    6  A    between atoms: C_16  and  C_18
REMARK    7  A    between atoms: C_21  and  C_27
REMARK                            x       y       z     vdW  Elec       q    Type
REMARK                         _______ _______ _______ _____ _____    ______ ____
ROOT
ATOM      2  O   UNL     1     -11.760   7.536  13.586  0.00  0.00    -0.370 OA
ATOM      3  O   UNL     1     -11.936  10.646  13.384  0.00  0.00    -0.370 OA
ATOM     10  C   UNL     1     -12.481   9.686  14.306  0.00  0.00    +0.171 C 
ATOM     11  C   UNL     1     -12.861   8.456  13.505  0.00  0.00    +0.171 C 
ATOM     12  C   UNL     1     -11.405   9.193  15.247  0.00  0.00    +0.130 C 
ATOM     13  C   UNL     1     -13.014   8.968  12.092  0.00  0.00    +0.130 C 
ATOM     14  C   UNL     1     -10.747   8.090  14.440  0.00  0.00    +0.185 C 
ATOM     15  C   UNL     1     -12.033  10.126  12.049  0.00  0.00    +0.185 C 
ENDROOT
BRANCH  13   6
ATOM      6  N   UNL     1     -14.363   9.447  11.881  0.00  0.00    -0.306 N 
ATOM      7  N   UNL     1     -15.100   7.360  11.103  0.00  0.00    -0.214 NA
ATOM      8  N   UNL     1     -16.611   9.232  11.247  0.00  0.00    -0.223 NA
ATOM     17  C   UNL     1     -15.389   8.656  11.396  0.00  0.00    +0.216 A 
ATOM     21  C   UNL     1     -16.124   6.618  10.634  0.00  0.00    +0.083 A 
ATOM     22  C   UNL     1     -17.588   8.432  10.773  0.00  0.00    +0.116 A 
ATOM     23  C   UNL     1     -17.402   7.105  10.445  0.00  0.00    +0.049 A 
ATOM     34  H   UNL     1     -14.601  10.396  12.146  0.00  0.00    +0.149 HD
BRANCH  21  27
ATOM      1  S   UNL     1     -15.853   4.718   8.704  0.00  0.00    -0.095 S 
ATOM     27  C   UNL     1     -15.789   5.252  10.332  0.00  0.00    +0.038 A 
ATOM     28  C   UNL     1     -15.402   4.239  11.187  0.00  0.00    +0.017 A 
ATOM     31  C   UNL     1     -15.157   3.016  10.498  0.00  0.00    +0.008 A 
ATOM     32  C   UNL     1     -15.363   3.136   9.142  0.00  0.00    +0.046 A 
ENDBRANCH  21  27
ENDBRANCH  13   6
BRANCH  12   5
ATOM      4  O   UNL     1     -10.065   8.876  17.767  0.00  0.00    -0.270 OA
ATOM      5  N   UNL     1     -11.976   8.679  16.469  0.00  0.00    -0.304 N 
ATOM     16  C   UNL     1     -11.246   8.562  17.642  0.00  0.00    +0.244 C 
ATOM     33  H   UNL     1     -12.913   8.293  16.409  0.00  0.00    +0.149 HD
BRANCH  16  18
ATOM     18  C   UNL     1     -11.972   7.989  18.805  0.00  0.00    +0.037 A 
ATOM     19  C   UNL     1     -13.351   8.020  18.810  0.00  0.00    +0.015 A 
ATOM     20  C   UNL     1     -11.244   7.444  19.842  0.00  0.00    +0.015 A 
ATOM     24  C   UNL     1     -14.033   7.480  19.901  0.00  0.00    +0.024 A 
ATOM     25  C   UNL     1     -11.925   6.905  20.933  0.00  0.00    +0.024 A 
ATOM     26  C   UNL     1     -13.320   6.924  20.963  0.00  0.00    +0.029 A 
BRANCH  26   9
ATOM      9  N   UNL     1     -14.009   6.377  22.065  0.00  0.00    -0.336 N 
ATOM     29  C   UNL     1     -15.025   7.149  22.752  0.00  0.00    +0.129 C 
ATOM     30  C   UNL     1     -13.700   5.040  22.534  0.00  0.00    +0.129 C 
ENDBRANCH  26   9
ENDBRANCH  16  18
ENDBRANCH  12   5
TORSDOF 5
ENDMDL
