MODEL 1
REMARK VINA RESULT:      -6.5      0.000      0.000
REMARK  Name = 71693480
REMARK  12 active torsions:
REMARK  status: ('A' for Active; 'I' for Inactive)
REMARK    1  A    between atoms: O_2  and  C_11
REMARK    2  A    between atoms: N_6  and  C_14
REMARK    3  A    between atoms: N_7  and  C_25
REMARK    4  A    between atoms: N_7  and  C_26
REMARK    5  A    between atoms: N_8  and  C_21
REMARK    6  A    between atoms: C_9  and  C_11
REMARK    7  A    between atoms: C_10  and  C_12
REMARK    8  A    between atoms: C_14  and  C_18
REMARK    9  A    between atoms: C_22  and  C_23
REMARK   10  A    between atoms: C_22  and  C_27
REMARK   11  A    between atoms: C_22  and  C_28
REMARK   12  A    between atoms: C_23  and  C_24
REMARK                            x       y       z     vdW  Elec       q    Type
REMARK                         _______ _______ _______ _____ _____    ______ ____
ROOT
ATOM      1  O   UNL     1      13.566   6.576  20.732  0.00  0.00    -0.361 OA
ATOM      3  O   UNL     1      10.599   8.543  20.877  0.00  0.00    -0.273 OA
ATOM      6  N   UNL     1      12.778   9.215  20.396  0.00  0.00    -0.283 N 
ATOM      9  C   UNL     1      14.208   8.843  20.267  0.00  0.00    +0.135 C 
ATOM     10  C   UNL     1      14.364   7.367  19.851  0.00  0.00    +0.171 C 
ATOM     13  C   UNL     1      11.778   8.272  20.638  0.00  0.00    +0.242 C 
ATOM     15  C   UNL     1      12.196   6.820  20.521  0.00  0.00    +0.256 C 
ENDROOT
BRANCH  10  12
ATOM     12  C   UNL     1      15.782   6.841  19.945  0.00  0.00    -0.017 A 
ATOM     16  C   UNL     1      16.513   7.008  21.120  0.00  0.00    +0.008 A 
ATOM     17  C   UNL     1      16.356   6.190  18.853  0.00  0.00    +0.008 A 
ATOM     19  C   UNL     1      17.817   6.523  21.206  0.00  0.00    +0.023 A 
ATOM     20  C   UNL     1      17.661   5.705  18.938  0.00  0.00    +0.023 A 
ATOM     21  C   UNL     1      18.392   5.871  20.115  0.00  0.00    +0.033 A 
BRANCH  21   8
ATOM      5  O   UNL     1      20.976   7.319  20.598  0.00  0.00    -0.275 OA
ATOM      8  N   UNL     1      19.697   5.386  20.201  0.00  0.00    -0.285 N 
ATOM     24  C   UNL     1      20.878   6.106  20.442  0.00  0.00    +0.217 C 
ATOM     30  H   UNL     1      19.789   4.385  20.047  0.00  0.00    +0.155 HD
BRANCH  24  23
ATOM     23  C   UNL     1      22.094   5.186  20.456  0.00  0.00    +0.099 C 
BRANCH  23  22
ATOM     22  C   UNL     1      21.979   4.018  21.448  0.00  0.00    -0.008 C 
ATOM     27  C   UNL     1      22.176   4.523  22.878  0.00  0.00    +0.008 C 
ATOM     28  C   UNL     1      23.004   2.923  21.142  0.00  0.00    +0.008 C 
ENDBRANCH  23  22
ENDBRANCH  24  23
ENDBRANCH  21   8
ENDBRANCH  10  12
BRANCH   9  11
ATOM     11  C   UNL     1      14.971   9.760  19.301  0.00  0.00    +0.181 C 
BRANCH  11   2
ATOM      2  O   UNL     1      14.571   9.442  17.983  0.00  0.00    -0.393 OA
ATOM     29  H   UNL     1      14.463   8.477  17.940  0.00  0.00    +0.209 HD
ENDBRANCH  11   2
ENDBRANCH   9  11
BRANCH   6  14
ATOM     14  C   UNL     1      12.445  10.632  20.511  0.00  0.00    +0.204 C 
BRANCH  14  18
ATOM      4  O   UNL     1      12.436  10.539  22.907  0.00  0.00    -0.274 OA
ATOM      7  N   UNL     1      13.575  12.311  21.933  0.00  0.00    -0.306 N 
ATOM     18  C   UNL     1      12.809  11.140  21.895  0.00  0.00    +0.232 C 
ATOM     25  C   UNL     1      14.004  13.003  20.724  0.00  0.00    +0.131 C 
ATOM     26  C   UNL     1      14.003  12.926  23.188  0.00  0.00    +0.131 C 
ENDBRANCH  14  18
ENDBRANCH   6  14
TORSDOF 8
ENDMDL
MODEL 2
REMARK VINA RESULT:      -6.0      2.940      9.702
REMARK  Name = 71693480
REMARK  12 active torsions:
REMARK  status: ('A' for Active; 'I' for Inactive)
REMARK    1  A    between atoms: O_2  and  C_11
REMARK    2  A    between atoms: N_6  and  C_14
REMARK    3  A    between atoms: N_7  and  C_25
REMARK    4  A    between atoms: N_7  and  C_26
REMARK    5  A    between atoms: N_8  and  C_21
REMARK    6  A    between atoms: C_9  and  C_11
REMARK    7  A    between atoms: C_10  and  C_12
REMARK    8  A    between atoms: C_14  and  C_18
REMARK    9  A    between atoms: C_22  and  C_23
REMARK   10  A    between atoms: C_22  and  C_27
REMARK   11  A    between atoms: C_22  and  C_28
REMARK   12  A    between atoms: C_23  and  C_24
REMARK                            x       y       z     vdW  Elec       q    Type
REMARK                         _______ _______ _______ _____ _____    ______ ____
ROOT
ATOM      1  O   UNL     1      20.618   8.279  21.489  0.00  0.00    -0.361 OA
ATOM      3  O   UNL     1      24.040   7.906  22.407  0.00  0.00    -0.273 OA
ATOM      6  N   UNL     1      22.446   6.255  22.005  0.00  0.00    -0.283 N 
ATOM      9  C   UNL     1      21.038   5.922  21.678  0.00  0.00    +0.135 C 
ATOM     10  C   UNL     1      20.384   7.032  20.833  0.00  0.00    +0.171 C 
ATOM     13  C   UNL     1      22.919   7.568  22.022  0.00  0.00    +0.242 C 
ATOM     15  C   UNL     1      21.984   8.616  21.451  0.00  0.00    +0.256 C 
ENDROOT
BRANCH  10  12
ATOM     12  C   UNL     1      18.884   6.891  20.673  0.00  0.00    -0.017 A 
ATOM     16  C   UNL     1      18.363   6.096  19.652  0.00  0.00    +0.008 A 
ATOM     17  C   UNL     1      18.025   7.557  21.546  0.00  0.00    +0.008 A 
ATOM     19  C   UNL     1      16.983   5.965  19.505  0.00  0.00    +0.023 A 
ATOM     20  C   UNL     1      16.643   7.427  21.399  0.00  0.00    +0.023 A 
ATOM     21  C   UNL     1      16.122   6.631  20.379  0.00  0.00    +0.033 A 
BRANCH  21   8
ATOM      5  O   UNL     1      14.224   8.037  18.528  0.00  0.00    -0.275 OA
ATOM      8  N   UNL     1      14.741   6.501  20.232  0.00  0.00    -0.285 N 
ATOM     24  C   UNL     1      13.894   7.176  19.338  0.00  0.00    +0.217 C 
ATOM     30  H   UNL     1      14.306   5.844  20.875  0.00  0.00    +0.155 HD
BRANCH  24  23
ATOM     23  C   UNL     1      12.445   6.734  19.508  0.00  0.00    +0.099 C 
BRANCH  23  22
ATOM     22  C   UNL     1      11.834   7.112  20.866  0.00  0.00    -0.008 C 
ATOM     27  C   UNL     1      11.197   5.883  21.515  0.00  0.00    +0.008 C 
ATOM     28  C   UNL     1      10.787   8.219  20.717  0.00  0.00    +0.008 C 
ENDBRANCH  23  22
ENDBRANCH  24  23
ENDBRANCH  21   8
ENDBRANCH  10  12
BRANCH   9  11
ATOM     11  C   UNL     1      20.902   4.561  20.979  0.00  0.00    +0.181 C 
BRANCH  11   2
ATOM      2  O   UNL     1      21.440   4.678  19.677  0.00  0.00    -0.393 OA
ATOM     29  H   UNL     1      21.701   5.607  19.556  0.00  0.00    +0.209 HD
ENDBRANCH  11   2
ENDBRANCH   9  11
BRANCH   6  14
ATOM     14  C   UNL     1      23.291   5.200  22.556  0.00  0.00    +0.204 C 
BRANCH  14  18
ATOM      4  O   UNL     1      24.468   5.137  20.468  0.00  0.00    -0.274 OA
ATOM      7  N   UNL     1      24.219   3.121  21.589  0.00  0.00    -0.306 N 
ATOM     18  C   UNL     1      24.046   4.502  21.438  0.00  0.00    +0.232 C 
ATOM     25  C   UNL     1      23.711   2.392  22.745  0.00  0.00    +0.131 C 
ATOM     26  C   UNL     1      24.921   2.308  20.599  0.00  0.00    +0.131 C 
ENDBRANCH  14  18
ENDBRANCH   6  14
TORSDOF 8
ENDMDL
MODEL 3
REMARK VINA RESULT:      -6.0      1.818      2.158
REMARK  Name = 71693480
REMARK  12 active torsions:
REMARK  status: ('A' for Active; 'I' for Inactive)
REMARK    1  A    between atoms: O_2  and  C_11
REMARK    2  A    between atoms: N_6  and  C_14
REMARK    3  A    between atoms: N_7  and  C_25
REMARK    4  A    between atoms: N_7  and  C_26
REMARK    5  A    between atoms: N_8  and  C_21
REMARK    6  A    between atoms: C_9  and  C_11
REMARK    7  A    between atoms: C_10  and  C_12
REMARK    8  A    between atoms: C_14  and  C_18
REMARK    9  A    between atoms: C_22  and  C_23
REMARK   10  A    between atoms: C_22  and  C_27
REMARK   11  A    between atoms: C_22  and  C_28
REMARK   12  A    between atoms: C_23  and  C_24
REMARK                            x       y       z     vdW  Elec       q    Type
REMARK                         _______ _______ _______ _____ _____    ______ ____
ROOT
ATOM      1  O   UNL     1      13.943   7.359  19.530  0.00  0.00    -0.361 OA
ATOM      3  O   UNL     1      10.570   8.446  19.902  0.00  0.00    -0.273 OA
ATOM      6  N   UNL     1      12.411   8.899  21.258  0.00  0.00    -0.283 N 
ATOM      9  C   UNL     1      13.851   8.676  21.536  0.00  0.00    +0.135 C 
ATOM     10  C   UNL     1      14.631   8.390  20.238  0.00  0.00    +0.171 C 
ATOM     13  C   UNL     1      11.783   8.397  20.116  0.00  0.00    +0.242 C 
ATOM     15  C   UNL     1      12.700   7.821  19.056  0.00  0.00    +0.256 C 
ENDROOT
BRANCH  10  12
ATOM     12  C   UNL     1      16.049   7.904  20.459  0.00  0.00    -0.017 A 
ATOM     16  C   UNL     1      17.008   8.766  20.991  0.00  0.00    +0.008 A 
ATOM     17  C   UNL     1      16.396   6.594  20.129  0.00  0.00    +0.008 A 
ATOM     19  C   UNL     1      18.312   8.319  21.195  0.00  0.00    +0.023 A 
ATOM     20  C   UNL     1      17.701   6.146  20.332  0.00  0.00    +0.023 A 
ATOM     21  C   UNL     1      18.660   7.008  20.865  0.00  0.00    +0.033 A 
BRANCH  21   8
ATOM      5  O   UNL     1      20.060   6.187  23.389  0.00  0.00    -0.275 OA
ATOM      8  N   UNL     1      19.965   6.561  21.069  0.00  0.00    -0.285 N 
ATOM     24  C   UNL     1      20.573   6.175  22.275  0.00  0.00    +0.217 C 
ATOM     30  H   UNL     1      20.541   6.536  20.232  0.00  0.00    +0.155 HD
BRANCH  24  23
ATOM     23  C   UNL     1      22.021   5.749  22.053  0.00  0.00    +0.099 C 
BRANCH  23  22
ATOM     22  C   UNL     1      22.275   4.254  22.300  0.00  0.00    -0.008 C 
ATOM     27  C   UNL     1      23.778   3.972  22.312  0.00  0.00    +0.008 C 
ATOM     28  C   UNL     1      21.596   3.391  21.233  0.00  0.00    +0.008 C 
ENDBRANCH  23  22
ENDBRANCH  24  23
ENDBRANCH  21   8
ENDBRANCH  10  12
BRANCH   9  11
ATOM     11  C   UNL     1      14.489   9.843  22.304  0.00  0.00    +0.181 C 
BRANCH  11   2
ATOM      2  O   UNL     1      14.561  10.955  21.435  0.00  0.00    -0.393 OA
ATOM     29  H   UNL     1      14.171  10.684  20.587  0.00  0.00    +0.209 HD
ENDBRANCH  11   2
ENDBRANCH   9  11
BRANCH   6  14
ATOM     14  C   UNL     1      11.582   9.451  22.326  0.00  0.00    +0.204 C 
BRANCH  14  18
ATOM      4  O   UNL     1      11.562  11.474  21.039  0.00  0.00    -0.274 OA
ATOM      7  N   UNL     1      11.188  11.681  23.321  0.00  0.00    -0.306 N 
ATOM     18  C   UNL     1      11.446  10.954  22.152  0.00  0.00    +0.232 C 
ATOM     25  C   UNL     1      11.054  11.042  24.624  0.00  0.00    +0.131 C 
ATOM     26  C   UNL     1      11.032  13.134  23.319  0.00  0.00    +0.131 C 
ENDBRANCH  14  18
ENDBRANCH   6  14
TORSDOF 8
ENDMDL
MODEL 4
REMARK VINA RESULT:      -5.7      2.737      9.588
REMARK  Name = 71693480
REMARK  12 active torsions:
REMARK  status: ('A' for Active; 'I' for Inactive)
REMARK    1  A    between atoms: O_2  and  C_11
REMARK    2  A    between atoms: N_6  and  C_14
REMARK    3  A    between atoms: N_7  and  C_25
REMARK    4  A    between atoms: N_7  and  C_26
REMARK    5  A    between atoms: N_8  and  C_21
REMARK    6  A    between atoms: C_9  and  C_11
REMARK    7  A    between atoms: C_10  and  C_12
REMARK    8  A    between atoms: C_14  and  C_18
REMARK    9  A    between atoms: C_22  and  C_23
REMARK   10  A    between atoms: C_22  and  C_27
REMARK   11  A    between atoms: C_22  and  C_28
REMARK   12  A    between atoms: C_23  and  C_24
REMARK                            x       y       z     vdW  Elec       q    Type
REMARK                         _______ _______ _______ _____ _____    ______ ____
ROOT
ATOM      1  O   UNL     1      19.923   6.729  23.790  0.00  0.00    -0.361 OA
ATOM      3  O   UNL     1      23.076   5.877  25.213  0.00  0.00    -0.273 OA
ATOM      6  N   UNL     1      22.435   5.880  22.972  0.00  0.00    -0.283 N 
ATOM      9  C   UNL     1      21.356   6.083  21.975  0.00  0.00    +0.135 C 
ATOM     10  C   UNL     1      20.323   7.111  22.473  0.00  0.00    +0.171 C 
ATOM     13  C   UNL     1      22.257   6.146  24.331  0.00  0.00    +0.242 C 
ATOM     15  C   UNL     1      20.985   6.883  24.700  0.00  0.00    +0.256 C 
ENDROOT
BRANCH  10  12
ATOM     12  C   UNL     1      19.064   7.186  21.633  0.00  0.00    -0.017 A 
ATOM     16  C   UNL     1      18.310   8.359  21.608  0.00  0.00    +0.008 A 
ATOM     17  C   UNL     1      18.660   6.081  20.884  0.00  0.00    +0.008 A 
ATOM     19  C   UNL     1      17.153   8.428  20.834  0.00  0.00    +0.023 A 
ATOM     20  C   UNL     1      17.502   6.149  20.109  0.00  0.00    +0.023 A 
ATOM     21  C   UNL     1      16.748   7.323  20.084  0.00  0.00    +0.033 A 
BRANCH  21   8
ATOM      5  O   UNL     1      13.916   6.589  20.753  0.00  0.00    -0.275 OA
ATOM      8  N   UNL     1      15.590   7.392  19.310  0.00  0.00    -0.285 N 
ATOM     24  C   UNL     1      14.278   7.046  19.674  0.00  0.00    +0.217 C 
ATOM     30  H   UNL     1      15.735   7.717  18.358  0.00  0.00    +0.155 HD
BRANCH  24  23
ATOM     23  C   UNL     1      13.305   7.276  18.522  0.00  0.00    +0.099 C 
BRANCH  23  22
ATOM     22  C   UNL     1      12.225   8.327  18.821  0.00  0.00    -0.008 C 
ATOM     27  C   UNL     1      11.407   8.612  17.560  0.00  0.00    +0.008 C 
ATOM     28  C   UNL     1      12.842   9.628  19.341  0.00  0.00    +0.008 C 
ENDBRANCH  23  22
ENDBRANCH  24  23
ENDBRANCH  21   8
ENDBRANCH  10  12
BRANCH   9  11
ATOM     11  C   UNL     1      21.898   6.486  20.596  0.00  0.00    +0.181 C 
BRANCH  11   2
ATOM      2  O   UNL     1      21.717   5.396  19.715  0.00  0.00    -0.393 OA
ATOM     29  H   UNL     1      21.266   4.694  20.214  0.00  0.00    +0.209 HD
ENDBRANCH  11   2
ENDBRANCH   9  11
BRANCH   6  14
ATOM     14  C   UNL     1      23.632   5.156  22.552  0.00  0.00    +0.204 C 
BRANCH  14  18
ATOM      4  O   UNL     1      22.551   3.085  23.091  0.00  0.00    -0.274 OA
ATOM      7  N   UNL     1      23.891   3.104  21.196  0.00  0.00    -0.306 N 
ATOM     18  C   UNL     1      23.298   3.692  22.320  0.00  0.00    +0.232 C 
ATOM     25  C   UNL     1      24.770   3.843  20.300  0.00  0.00    +0.131 C 
ATOM     26  C   UNL     1      23.670   1.704  20.838  0.00  0.00    +0.131 C 
ENDBRANCH  14  18
ENDBRANCH   6  14
TORSDOF 8
ENDMDL
MODEL 5
REMARK VINA RESULT:      -5.6     17.257     19.383
REMARK  Name = 71693480
REMARK  12 active torsions:
REMARK  status: ('A' for Active; 'I' for Inactive)
REMARK    1  A    between atoms: O_2  and  C_11
REMARK    2  A    between atoms: N_6  and  C_14
REMARK    3  A    between atoms: N_7  and  C_25
REMARK    4  A    between atoms: N_7  and  C_26
REMARK    5  A    between atoms: N_8  and  C_21
REMARK    6  A    between atoms: C_9  and  C_11
REMARK    7  A    between atoms: C_10  and  C_12
REMARK    8  A    between atoms: C_14  and  C_18
REMARK    9  A    between atoms: C_22  and  C_23
REMARK   10  A    between atoms: C_22  and  C_27
REMARK   11  A    between atoms: C_22  and  C_28
REMARK   12  A    between atoms: C_23  and  C_24
REMARK                            x       y       z     vdW  Elec       q    Type
REMARK                         _______ _______ _______ _____ _____    ______ ____
ROOT
ATOM      1  O   UNL     1      10.153   4.669   5.273  0.00  0.00    -0.361 OA
ATOM      3  O   UNL     1      10.523   6.272   8.433  0.00  0.00    -0.273 OA
ATOM      6  N   UNL     1      11.297   6.959   6.345  0.00  0.00    -0.283 N 
ATOM      9  C   UNL     1      11.433   6.666   4.897  0.00  0.00    +0.135 C 
ATOM     10  C   UNL     1      10.271   5.789   4.394  0.00  0.00    +0.171 C 
ATOM     13  C   UNL     1      10.563   6.142   7.208  0.00  0.00    +0.242 C 
ATOM     15  C   UNL     1       9.713   5.076   6.546  0.00  0.00    +0.256 C 
ENDROOT
BRANCH  10  12
ATOM     12  C   UNL     1      10.466   5.237   2.997  0.00  0.00    -0.017 A 
ATOM     16  C   UNL     1       9.881   5.876   1.905  0.00  0.00    +0.008 A 
ATOM     17  C   UNL     1      11.233   4.087   2.804  0.00  0.00    +0.008 A 
ATOM     19  C   UNL     1      10.062   5.368   0.619  0.00  0.00    +0.023 A 
ATOM     20  C   UNL     1      11.414   3.578   1.518  0.00  0.00    +0.023 A 
ATOM     21  C   UNL     1      10.828   4.219   0.425  0.00  0.00    +0.033 A 
BRANCH  21   8
ATOM      5  O   UNL     1      13.348   3.590  -1.078  0.00  0.00    -0.275 OA
ATOM      8  N   UNL     1      11.009   3.711  -0.862  0.00  0.00    -0.285 N 
ATOM     24  C   UNL     1      12.216   3.421  -1.519  0.00  0.00    +0.217 C 
ATOM     30  H   UNL     1      10.150   3.555  -1.382  0.00  0.00    +0.155 HD
BRANCH  24  23
ATOM     23  C   UNL     1      11.964   2.878  -2.923  0.00  0.00    +0.099 C 
BRANCH  23  22
ATOM     22  C   UNL     1      10.617   3.309  -3.523  0.00  0.00    -0.008 C 
ATOM     27  C   UNL     1       9.673   2.108  -3.606  0.00  0.00    +0.008 C 
ATOM     28  C   UNL     1      10.798   3.920  -4.915  0.00  0.00    +0.008 C 
ENDBRANCH  23  22
ENDBRANCH  24  23
ENDBRANCH  21   8
ENDBRANCH  10  12
BRANCH   9  11
ATOM     11  C   UNL     1      11.556   7.939   4.048  0.00  0.00    +0.181 C 
BRANCH  11   2
ATOM      2  O   UNL     1      12.700   7.813   3.228  0.00  0.00    -0.393 OA
ATOM     29  H   UNL     1      12.578   8.409   2.469  0.00  0.00    +0.209 HD
ENDBRANCH  11   2
ENDBRANCH   9  11
BRANCH   6  14
ATOM     14  C   UNL     1      12.151   7.995   6.919  0.00  0.00    +0.204 C 
BRANCH  14  18
ATOM      4  O   UNL     1      13.963   6.453   7.218  0.00  0.00    -0.274 OA
ATOM      7  N   UNL     1      14.489   8.523   6.310  0.00  0.00    -0.306 N 
ATOM     18  C   UNL     1      13.607   7.571   6.836  0.00  0.00    +0.232 C 
ATOM     25  C   UNL     1      14.045   9.837   5.865  0.00  0.00    +0.131 C 
ATOM     26  C   UNL     1      15.921   8.267   6.167  0.00  0.00    +0.131 C 
ENDBRANCH  14  18
ENDBRANCH   6  14
TORSDOF 8
ENDMDL
MODEL 6
REMARK VINA RESULT:      -5.5     26.881     30.263
REMARK  Name = 71693480
REMARK  12 active torsions:
REMARK  status: ('A' for Active; 'I' for Inactive)
REMARK    1  A    between atoms: O_2  and  C_11
REMARK    2  A    between atoms: N_6  and  C_14
REMARK    3  A    between atoms: N_7  and  C_25
REMARK    4  A    between atoms: N_7  and  C_26
REMARK    5  A    between atoms: N_8  and  C_21
REMARK    6  A    between atoms: C_9  and  C_11
REMARK    7  A    between atoms: C_10  and  C_12
REMARK    8  A    between atoms: C_14  and  C_18
REMARK    9  A    between atoms: C_22  and  C_23
REMARK   10  A    between atoms: C_22  and  C_27
REMARK   11  A    between atoms: C_22  and  C_28
REMARK   12  A    between atoms: C_23  and  C_24
REMARK                            x       y       z     vdW  Elec       q    Type
REMARK                         _______ _______ _______ _____ _____    ______ ____
ROOT
ATOM      1  O   UNL     1      -2.300 -10.086  13.157  0.00  0.00    -0.361 OA
ATOM      3  O   UNL     1      -1.868 -10.937  16.589  0.00  0.00    -0.273 OA
ATOM      6  N   UNL     1      -3.682 -11.371  15.192  0.00  0.00    -0.283 N 
ATOM      9  C   UNL     1      -4.305 -11.208  13.856  0.00  0.00    +0.135 C 
ATOM     10  C   UNL     1      -3.235 -11.086  12.753  0.00  0.00    +0.171 C 
ATOM     13  C   UNL     1      -2.384 -10.939  15.470  0.00  0.00    +0.242 C 
ATOM     15  C   UNL     1      -1.556 -10.517  14.272  0.00  0.00    +0.256 C 
ENDROOT
BRANCH  10  12
ATOM     12  C   UNL     1      -3.778 -10.665  11.403  0.00  0.00    -0.017 A 
ATOM     16  C   UNL     1      -3.660 -11.518  10.306  0.00  0.00    +0.008 A 
ATOM     17  C   UNL     1      -4.396  -9.423  11.257  0.00  0.00    +0.008 A 
ATOM     19  C   UNL     1      -4.161 -11.130   9.064  0.00  0.00    +0.023 A 
ATOM     20  C   UNL     1      -4.896  -9.034  10.014  0.00  0.00    +0.023 A 
ATOM     21  C   UNL     1      -4.779  -9.888   8.917  0.00  0.00    +0.033 A 
BRANCH  21   8
ATOM      5  O   UNL     1      -7.306 -10.682   7.508  0.00  0.00    -0.275 OA
ATOM      8  N   UNL     1      -5.279  -9.500   7.674  0.00  0.00    -0.285 N 
ATOM     24  C   UNL     1      -6.480  -9.893   7.060  0.00  0.00    +0.217 C 
ATOM     30  H   UNL     1      -4.677  -8.870   7.152  0.00  0.00    +0.155 HD
BRANCH  24  23
ATOM     23  C   UNL     1      -6.645  -9.232   5.696  0.00  0.00    +0.099 C 
BRANCH  23  22
ATOM     22  C   UNL     1      -8.006  -8.544   5.499  0.00  0.00    -0.008 C 
ATOM     27  C   UNL     1      -8.160  -8.095   4.045  0.00  0.00    +0.008 C 
ATOM     28  C   UNL     1      -8.161  -7.339   6.430  0.00  0.00    +0.008 C 
ENDBRANCH  23  22
ENDBRANCH  24  23
ENDBRANCH  21   8
ENDBRANCH  10  12
BRANCH   9  11
ATOM     11  C   UNL     1      -5.295 -12.335  13.526  0.00  0.00    +0.181 C 
BRANCH  11   2
ATOM      2  O   UNL     1      -6.576 -11.762  13.362  0.00  0.00    -0.393 OA
ATOM     29  H   UNL     1      -6.550 -11.223  12.553  0.00  0.00    +0.209 HD
ENDBRANCH  11   2
ENDBRANCH   9  11
BRANCH   6  14
ATOM     14  C   UNL     1      -4.538 -11.775  16.304  0.00  0.00    +0.204 C 
BRANCH  14  18
ATOM      4  O   UNL     1      -5.093  -9.478  16.713  0.00  0.00    -0.274 OA
ATOM      7  N   UNL     1      -6.810 -11.024  16.928  0.00  0.00    -0.306 N 
ATOM     18  C   UNL     1      -5.489 -10.646  16.663  0.00  0.00    +0.232 C 
ATOM     25  C   UNL     1      -7.253 -12.411  16.862  0.00  0.00    +0.131 C 
ATOM     26  C   UNL     1      -7.843 -10.056  17.290  0.00  0.00    +0.131 C 
ENDBRANCH  14  18
ENDBRANCH   6  14
TORSDOF 8
ENDMDL
MODEL 7
REMARK VINA RESULT:      -5.4      2.961      9.838
REMARK  Name = 71693480
REMARK  12 active torsions:
REMARK  status: ('A' for Active; 'I' for Inactive)
REMARK    1  A    between atoms: O_2  and  C_11
REMARK    2  A    between atoms: N_6  and  C_14
REMARK    3  A    between atoms: N_7  and  C_25
REMARK    4  A    between atoms: N_7  and  C_26
REMARK    5  A    between atoms: N_8  and  C_21
REMARK    6  A    between atoms: C_9  and  C_11
REMARK    7  A    between atoms: C_10  and  C_12
REMARK    8  A    between atoms: C_14  and  C_18
REMARK    9  A    between atoms: C_22  and  C_23
REMARK   10  A    between atoms: C_22  and  C_27
REMARK   11  A    between atoms: C_22  and  C_28
REMARK   12  A    between atoms: C_23  and  C_24
REMARK                            x       y       z     vdW  Elec       q    Type
REMARK                         _______ _______ _______ _____ _____    ______ ____
ROOT
ATOM      1  O   UNL     1      20.758   7.457  22.584  0.00  0.00    -0.361 OA
ATOM      3  O   UNL     1      24.025   6.578  23.701  0.00  0.00    -0.273 OA
ATOM      6  N   UNL     1      22.587   5.389  22.305  0.00  0.00    -0.283 N 
ATOM      9  C   UNL     1      21.259   5.303  21.649  0.00  0.00    +0.135 C 
ATOM     10  C   UNL     1      20.682   6.705  21.373  0.00  0.00    +0.171 C 
ATOM     13  C   UNL     1      22.989   6.508  23.036  0.00  0.00    +0.242 C 
ATOM     15  C   UNL     1      22.097   7.728  22.922  0.00  0.00    +0.256 C 
ENDROOT
BRANCH  10  12
ATOM     12  C   UNL     1      19.230   6.706  20.941  0.00  0.00    -0.017 A 
ATOM     16  C   UNL     1      18.823   5.929  19.857  0.00  0.00    +0.008 A 
ATOM     17  C   UNL     1      18.300   7.486  21.628  0.00  0.00    +0.008 A 
ATOM     19  C   UNL     1      17.487   5.930  19.460  0.00  0.00    +0.023 A 
ATOM     20  C   UNL     1      16.962   7.488  21.231  0.00  0.00    +0.023 A 
ATOM     21  C   UNL     1      16.555   6.710  20.146  0.00  0.00    +0.033 A 
BRANCH  21   8
ATOM      5  O   UNL     1      14.940   8.828  18.764  0.00  0.00    -0.275 OA
ATOM      8  N   UNL     1      15.218   6.710  19.749  0.00  0.00    -0.285 N 
ATOM     24  C   UNL     1      14.508   7.727  19.091  0.00  0.00    +0.217 C 
ATOM     30  H   UNL     1      14.703   5.869  19.993  0.00  0.00    +0.155 HD
BRANCH  24  23
ATOM     23  C   UNL     1      13.060   7.318  18.841  0.00  0.00    +0.099 C 
BRANCH  23  22
ATOM     22  C   UNL     1      12.100   8.505  18.664  0.00  0.00    -0.008 C 
ATOM     27  C   UNL     1      11.077   8.526  19.802  0.00  0.00    +0.008 C 
ATOM     28  C   UNL     1      11.373   8.437  17.318  0.00  0.00    +0.008 C 
ENDBRANCH  23  22
ENDBRANCH  24  23
ENDBRANCH  21   8
ENDBRANCH  10  12
BRANCH   9  11
ATOM     11  C   UNL     1      21.292   4.469  20.360  0.00  0.00    +0.181 C 
BRANCH  11   2
ATOM      2  O   UNL     1      20.848   3.163  20.668  0.00  0.00    -0.393 OA
ATOM     29  H   UNL     1      20.386   3.210  21.523  0.00  0.00    +0.209 HD
ENDBRANCH  11   2
ENDBRANCH   9  11
BRANCH   6  14
ATOM     14  C   UNL     1      23.393   4.174  22.385  0.00  0.00    +0.204 C 
BRANCH  14  18
ATOM      4  O   UNL     1      22.240   3.805  24.455  0.00  0.00    -0.274 OA
ATOM      7  N   UNL     1      23.334   1.981  23.527  0.00  0.00    -0.306 N 
ATOM     18  C   UNL     1      22.929   3.320  23.553  0.00  0.00    +0.232 C 
ATOM     25  C   UNL     1      24.147   1.432  22.449  0.00  0.00    +0.131 C 
ATOM     26  C   UNL     1      22.971   1.033  24.578  0.00  0.00    +0.131 C 
ENDBRANCH  14  18
ENDBRANCH   6  14
TORSDOF 8
ENDMDL
MODEL 8
REMARK VINA RESULT:      -5.3     28.172     30.629
REMARK  Name = 71693480
REMARK  12 active torsions:
REMARK  status: ('A' for Active; 'I' for Inactive)
REMARK    1  A    between atoms: O_2  and  C_11
REMARK    2  A    between atoms: N_6  and  C_14
REMARK    3  A    between atoms: N_7  and  C_25
REMARK    4  A    between atoms: N_7  and  C_26
REMARK    5  A    between atoms: N_8  and  C_21
REMARK    6  A    between atoms: C_9  and  C_11
REMARK    7  A    between atoms: C_10  and  C_12
REMARK    8  A    between atoms: C_14  and  C_18
REMARK    9  A    between atoms: C_22  and  C_23
REMARK   10  A    between atoms: C_22  and  C_27
REMARK   11  A    between atoms: C_22  and  C_28
REMARK   12  A    between atoms: C_23  and  C_24
REMARK                            x       y       z     vdW  Elec       q    Type
REMARK                         _______ _______ _______ _____ _____    ______ ____
ROOT
ATOM      1  O   UNL     1      -4.459 -12.570   9.049  0.00  0.00    -0.361 OA
ATOM      3  O   UNL     1      -5.201 -12.425   5.568  0.00  0.00    -0.273 OA
ATOM      6  N   UNL     1      -5.199 -10.701   7.136  0.00  0.00    -0.283 N 
ATOM      9  C   UNL     1      -5.028 -10.291   8.551  0.00  0.00    +0.135 C 
ATOM     10  C   UNL     1      -4.047 -11.224   9.287  0.00  0.00    +0.171 C 
ATOM     13  C   UNL     1      -4.955 -12.005   6.700  0.00  0.00    +0.242 C 
ATOM     15  C   UNL     1      -4.273 -12.919   7.698  0.00  0.00    +0.256 C 
ENDROOT
BRANCH  10  12
ATOM     12  C   UNL     1      -4.013 -11.031  10.790  0.00  0.00    -0.017 A 
ATOM     16  C   UNL     1      -2.796 -10.820  11.439  0.00  0.00    +0.008 A 
ATOM     17  C   UNL     1      -5.198 -11.064  11.524  0.00  0.00    +0.008 A 
ATOM     19  C   UNL     1      -2.765 -10.642  12.821  0.00  0.00    +0.023 A 
ATOM     20  C   UNL     1      -5.168 -10.886  12.907  0.00  0.00    +0.023 A 
ATOM     21  C   UNL     1      -3.951 -10.675  13.556  0.00  0.00    +0.033 A 
BRANCH  21   8
ATOM      5  O   UNL     1      -4.052 -12.689  15.778  0.00  0.00    -0.275 OA
ATOM      8  N   UNL     1      -3.919 -10.496  14.939  0.00  0.00    -0.285 N 
ATOM     24  C   UNL     1      -3.957 -11.477  15.943  0.00  0.00    +0.217 C 
ATOM     30  H   UNL     1      -3.885  -9.526  15.241  0.00  0.00    +0.155 HD
BRANCH  24  23
ATOM     23  C   UNL     1      -3.901 -10.849  17.332  0.00  0.00    +0.099 C 
BRANCH  23  22
ATOM     22  C   UNL     1      -4.623 -11.667  18.414  0.00  0.00    -0.008 C 
ATOM     27  C   UNL     1      -5.714 -10.821  19.071  0.00  0.00    +0.008 C 
ATOM     28  C   UNL     1      -3.644 -12.165  19.481  0.00  0.00    +0.008 C 
ENDBRANCH  23  22
ENDBRANCH  24  23
ENDBRANCH  21   8
ENDBRANCH  10  12
BRANCH   9  11
ATOM     11  C   UNL     1      -4.588  -8.826   8.691  0.00  0.00    +0.181 C 
BRANCH  11   2
ATOM      2  O   UNL     1      -5.692  -8.077   9.155  0.00  0.00    -0.393 OA
ATOM     29  H   UNL     1      -5.698  -8.142  10.125  0.00  0.00    +0.209 HD
ENDBRANCH  11   2
ENDBRANCH   9  11
BRANCH   6  14
ATOM     14  C   UNL     1      -5.869  -9.774   6.229  0.00  0.00    +0.204 C 
BRANCH  14  18
ATOM      4  O   UNL     1      -7.890  -9.670   7.515  0.00  0.00    -0.274 OA
ATOM      7  N   UNL     1      -8.109 -10.187   5.263  0.00  0.00    -0.306 N 
ATOM     18  C   UNL     1      -7.375  -9.867   6.411  0.00  0.00    +0.232 C 
ATOM     25  C   UNL     1      -7.476 -10.414   3.970  0.00  0.00    +0.131 C 
ATOM     26  C   UNL     1      -9.564 -10.315   5.276  0.00  0.00    +0.131 C 
ENDBRANCH  14  18
ENDBRANCH   6  14
TORSDOF 8
ENDMDL
MODEL 9
REMARK VINA RESULT:      -5.3     17.548     19.720
REMARK  Name = 71693480
REMARK  12 active torsions:
REMARK  status: ('A' for Active; 'I' for Inactive)
REMARK    1  A    between atoms: O_2  and  C_11
REMARK    2  A    between atoms: N_6  and  C_14
REMARK    3  A    between atoms: N_7  and  C_25
REMARK    4  A    between atoms: N_7  and  C_26
REMARK    5  A    between atoms: N_8  and  C_21
REMARK    6  A    between atoms: C_9  and  C_11
REMARK    7  A    between atoms: C_10  and  C_12
REMARK    8  A    between atoms: C_14  and  C_18
REMARK    9  A    between atoms: C_22  and  C_23
REMARK   10  A    between atoms: C_22  and  C_27
REMARK   11  A    between atoms: C_22  and  C_28
REMARK   12  A    between atoms: C_23  and  C_24
REMARK                            x       y       z     vdW  Elec       q    Type
REMARK                         _______ _______ _______ _____ _____    ______ ____
ROOT
ATOM      1  O   UNL     1      12.389   7.208   4.055  0.00  0.00    -0.361 OA
ATOM      3  O   UNL     1      12.664   8.642   7.305  0.00  0.00    -0.273 OA
ATOM      6  N   UNL     1      10.783   7.757   6.251  0.00  0.00    -0.283 N 
ATOM      9  C   UNL     1      10.195   7.152   5.031  0.00  0.00    +0.135 C 
ATOM     10  C   UNL     1      11.253   6.363   4.235  0.00  0.00    +0.171 C 
ATOM     13  C   UNL     1      12.147   8.029   6.369  0.00  0.00    +0.242 C 
ATOM     15  C   UNL     1      13.033   7.450   5.283  0.00  0.00    +0.256 C 
ENDROOT
BRANCH  10  12
ATOM     12  C   UNL     1      10.799   5.930   2.856  0.00  0.00    -0.017 A 
ATOM     16  C   UNL     1      10.746   4.575   2.532  0.00  0.00    +0.008 A 
ATOM     17  C   UNL     1      10.436   6.888   1.910  0.00  0.00    +0.008 A 
ATOM     19  C   UNL     1      10.328   4.177   1.263  0.00  0.00    +0.023 A 
ATOM     20  C   UNL     1      10.019   6.491   0.640  0.00  0.00    +0.023 A 
ATOM     21  C   UNL     1       9.965   5.135   0.316  0.00  0.00    +0.033 A 
BRANCH  21   8
ATOM      5  O   UNL     1      11.533   4.745  -2.213  0.00  0.00    -0.275 OA
ATOM      8  N   UNL     1       9.546   4.737  -0.954  0.00  0.00    -0.285 N 
ATOM     24  C   UNL     1      10.325   4.557  -2.109  0.00  0.00    +0.217 C 
ATOM     30  H   UNL     1       8.546   4.581  -1.042  0.00  0.00    +0.155 HD
BRANCH  24  23
ATOM     23  C   UNL     1       9.468   4.113  -3.290  0.00  0.00    +0.099 C 
BRANCH  23  22
ATOM     22  C   UNL     1      10.003   2.866  -4.012  0.00  0.00    -0.008 C 
ATOM     27  C   UNL     1       9.849   3.029  -5.525  0.00  0.00    +0.008 C 
ATOM     28  C   UNL     1       9.272   1.601  -3.552  0.00  0.00    +0.008 C 
ENDBRANCH  23  22
ENDBRANCH  24  23
ENDBRANCH  21   8
ENDBRANCH  10  12
BRANCH   9  11
ATOM     11  C   UNL     1       8.979   6.267   5.340  0.00  0.00    +0.181 C 
BRANCH  11   2
ATOM      2  O   UNL     1       7.818   6.950   4.913  0.00  0.00    -0.393 OA
ATOM     29  H   UNL     1       7.296   6.326   4.379  0.00  0.00    +0.209 HD
ENDBRANCH  11   2
ENDBRANCH   9  11
BRANCH   6  14
ATOM     14  C   UNL     1       9.873   8.302   7.254  0.00  0.00    +0.204 C 
BRANCH  14  18
ATOM      4  O   UNL     1       8.696   9.751   5.749  0.00  0.00    -0.274 OA
ATOM      7  N   UNL     1       9.633  10.735   7.631  0.00  0.00    -0.306 N 
ATOM     18  C   UNL     1       9.341   9.649   6.797  0.00  0.00    +0.232 C 
ATOM     25  C   UNL     1      10.396  10.588   8.864  0.00  0.00    +0.131 C 
ATOM     26  C   UNL     1       9.194  12.094   7.327  0.00  0.00    +0.131 C 
ENDBRANCH  14  18
ENDBRANCH   6  14
TORSDOF 8
ENDMDL
MODEL 10
REMARK VINA RESULT:      -5.3     19.659     22.125
REMARK  Name = 71693480
REMARK  12 active torsions:
REMARK  status: ('A' for Active; 'I' for Inactive)
REMARK    1  A    between atoms: O_2  and  C_11
REMARK    2  A    between atoms: N_6  and  C_14
REMARK    3  A    between atoms: N_7  and  C_25
REMARK    4  A    between atoms: N_7  and  C_26
REMARK    5  A    between atoms: N_8  and  C_21
REMARK    6  A    between atoms: C_9  and  C_11
REMARK    7  A    between atoms: C_10  and  C_12
REMARK    8  A    between atoms: C_14  and  C_18
REMARK    9  A    between atoms: C_22  and  C_23
REMARK   10  A    between atoms: C_22  and  C_27
REMARK   11  A    between atoms: C_22  and  C_28
REMARK   12  A    between atoms: C_23  and  C_24
REMARK                            x       y       z     vdW  Elec       q    Type
REMARK                         _______ _______ _______ _____ _____    ______ ____
ROOT
ATOM      1  O   UNL     1       9.524   5.537  -1.019  0.00  0.00    -0.361 OA
ATOM      3  O   UNL     1      10.330   5.358  -4.485  0.00  0.00    -0.273 OA
ATOM      6  N   UNL     1      11.739   5.138  -2.643  0.00  0.00    -0.283 N 
ATOM      9  C   UNL     1      11.893   5.171  -1.168  0.00  0.00    +0.135 C 
ATOM     10  C   UNL     1      10.586   4.762  -0.462  0.00  0.00    +0.171 C 
ATOM     13  C   UNL     1      10.497   5.254  -3.268  0.00  0.00    +0.242 C 
ATOM     15  C   UNL     1       9.288   5.172  -2.358  0.00  0.00    +0.256 C 
ENDROOT
BRANCH  10  12
ATOM     12  C   UNL     1      10.581   5.013   1.032  0.00  0.00    -0.017 A 
ATOM     16  C   UNL     1      10.906   3.983   1.915  0.00  0.00    +0.008 A 
ATOM     17  C   UNL     1      10.249   6.275   1.525  0.00  0.00    +0.008 A 
ATOM     19  C   UNL     1      10.902   4.215   3.289  0.00  0.00    +0.023 A 
ATOM     20  C   UNL     1      10.244   6.507   2.901  0.00  0.00    +0.023 A 
ATOM     21  C   UNL     1      10.570   5.477   3.783  0.00  0.00    +0.033 A 
BRANCH  21   8
ATOM      5  O   UNL     1      12.531   6.952   5.511  0.00  0.00    -0.275 OA
ATOM      8  N   UNL     1      10.566   5.709   5.159  0.00  0.00    -0.285 N 
ATOM     24  C   UNL     1      11.506   6.419   5.923  0.00  0.00    +0.217 C 
ATOM     30  H   UNL     1       9.788   5.286   5.658  0.00  0.00    +0.155 HD
BRANCH  24  23
ATOM     23  C   UNL     1      11.121   6.433   7.399  0.00  0.00    +0.099 C 
BRANCH  23  22
ATOM     22  C   UNL     1       9.640   6.116   7.659  0.00  0.00    -0.008 C 
ATOM     27  C   UNL     1       8.876   7.402   7.977  0.00  0.00    +0.008 C 
ATOM     28  C   UNL     1       9.477   5.121   8.811  0.00  0.00    +0.008 C 
ENDBRANCH  23  22
ENDBRANCH  24  23
ENDBRANCH  21   8
ENDBRANCH  10  12
BRANCH   9  11
ATOM     11  C   UNL     1      13.065   4.307  -0.678  0.00  0.00    +0.181 C 
BRANCH  11   2
ATOM      2  O   UNL     1      12.735   2.951  -0.900  0.00  0.00    -0.393 OA
ATOM     29  H   UNL     1      12.665   2.825  -1.862  0.00  0.00    +0.209 HD
ENDBRANCH  11   2
ENDBRANCH   9  11
BRANCH   6  14
ATOM     14  C   UNL     1      12.945   5.226  -3.461  0.00  0.00    +0.204 C 
BRANCH  14  18
ATOM      4  O   UNL     1      12.959   2.851  -3.785  0.00  0.00    -0.274 OA
ATOM      7  N   UNL     1      13.411   4.163  -5.645  0.00  0.00    -0.306 N 
ATOM     18  C   UNL     1      13.101   3.966  -4.294  0.00  0.00    +0.232 C 
ATOM     25  C   UNL     1      13.573   5.491  -6.223  0.00  0.00    +0.131 C 
ATOM     26  C   UNL     1      13.595   3.052  -6.576  0.00  0.00    +0.131 C 
ENDBRANCH  14  18
ENDBRANCH   6  14
TORSDOF 8
ENDMDL
