REMARK  Name = 38027871
REMARK  13 active torsions:
REMARK  status: ('A' for Active; 'I' for Inactive)
REMARK    1  A    between atoms: O_3  and  C_31
REMARK    2  A    between atoms: O_3  and  C_32
REMARK    3  A    between atoms: N_4  and  C_13
REMARK    4  A    between atoms: N_5  and  C_25
REMARK    5  A    between atoms: C_6  and  C_10
REMARK    6  A    between atoms: C_7  and  C_13
REMARK    7  A    between atoms: C_9  and  C_14
REMARK    8  A    between atoms: C_10  and  C_16
REMARK    9  A    between atoms: C_10  and  C_17
REMARK   10  A    between atoms: C_11  and  C_20
REMARK   11  A    between atoms: C_14  and  C_24
REMARK   12  A    between atoms: C_15  and  C_23
REMARK   13  A    between atoms: C_25  and  C_26
REMARK                            x       y       z     vdW  Elec       q    Type
REMARK                         _______ _______ _______ _____ _____    ______ ____
ROOT
ATOM      6  C   UNL     1      -0.977  -1.347  -1.374  0.00  0.00    +0.000 C 
ATOM      7  C   UNL     1      -2.473  -1.570  -1.710  0.00  0.00    +0.032 C 
ATOM      8  C   UNL     1      -0.364  -2.625  -0.781  0.00  0.00    +0.012 C 
ATOM      9  C   UNL     1      -1.089  -3.079   0.500  0.00  0.00    +0.023 C 
ATOM     11  C   UNL     1      -2.595  -3.066   0.329  0.00  0.00    -0.073 C 
ATOM     12  C   UNL     1      -3.194  -2.398  -0.672  0.00  0.00    -0.022 C 
ATOM     20  C   UNL     1      -3.394  -3.878   1.310  0.00  0.00    +0.039 C 
ENDROOT
BRANCH   6  10
ATOM     10  C   UNL     1      -0.176  -0.912  -2.606  0.00  0.00    -0.013 C 
ATOM     16  C   UNL     1       1.072  -0.143  -2.185  0.00  0.00    +0.007 C 
ATOM     17  C   UNL     1       0.196  -2.124  -3.454  0.00  0.00    +0.007 C 
ENDBRANCH   6  10
BRANCH   7  13
ATOM     13  C   UNL     1      -3.203  -0.236  -1.896  0.00  0.00    +0.112 C 
BRANCH  13   4
ATOM      1  O   UNL     1      -2.099   2.398  -1.371  0.00  0.00    -0.276 OA
ATOM      4  N   UNL     1      -3.246   0.495  -0.669  0.00  0.00    -0.315 N 
ATOM     23  C   UNL     1      -2.688   1.761  -0.502  0.00  0.00    +0.216 C 
ATOM     33  H   UNL     1      -3.771   0.093   0.103  0.00  0.00    +0.149 HD
BRANCH  23  15
ATOM     15  C   UNL     1      -2.897   2.310   0.876  0.00  0.00    +0.075 C 
ATOM     18  C   UNL     1      -4.199   3.117   0.935  0.00  0.00    +0.013 C 
ATOM     19  C   UNL     1      -1.775   3.281   1.246  0.00  0.00    +0.013 C 
ATOM     21  C   UNL     1      -3.808   4.503   1.435  0.00  0.00    +0.001 C 
ATOM     22  C   UNL     1      -2.364   4.662   0.995  0.00  0.00    +0.001 C 
ENDBRANCH  23  15
ENDBRANCH  13   4
ENDBRANCH   7  13
BRANCH   9  14
ATOM     14  C   UNL     1      -0.667  -2.229   1.704  0.00  0.00    +0.103 C 
BRANCH  14  24
ATOM      2  O   UNL     1       1.571  -3.139   1.574  0.00  0.00    -0.276 OA
ATOM      5  N   UNL     1       1.251  -1.009   2.446  0.00  0.00    -0.311 N 
ATOM     24  C   UNL     1       0.834  -2.208   1.886  0.00  0.00    +0.214 C 
ATOM     34  H   UNL     1       0.564  -0.294   2.668  0.00  0.00    +0.149 HD
BRANCH   5  25
ATOM     25  C   UNL     1       2.635  -0.712   2.735  0.00  0.00    +0.139 C 
BRANCH  25  26
ATOM     26  C   UNL     1       3.322  -0.052   1.574  0.00  0.00    -0.030 A 
ATOM     27  C   UNL     1       4.437  -0.652   0.991  0.00  0.00    +0.009 A 
ATOM     28  C   UNL     1       2.843   1.161   1.079  0.00  0.00    +0.009 A 
ATOM     29  C   UNL     1       5.075  -0.039  -0.088  0.00  0.00    +0.046 A 
ATOM     30  C   UNL     1       3.481   1.774   0.001  0.00  0.00    +0.046 A 
ATOM     31  C   UNL     1       4.597   1.174  -0.583  0.00  0.00    +0.120 A 
BRANCH  31   3
ATOM      3  O   UNL     1       5.218   1.772  -1.636  0.00  0.00    -0.495 OA
ATOM     32  C   UNL     1       4.677   3.011  -2.091  0.00  0.00    +0.277 C 
ENDBRANCH  31   3
ENDBRANCH  25  26
ENDBRANCH   5  25
ENDBRANCH  14  24
ENDBRANCH   9  14
TORSDOF 9
