MODEL 1
REMARK VINA RESULT:      -7.3      0.000      0.000
REMARK  Name = 7050301
REMARK  4 active torsions:
REMARK  status: ('A' for Active; 'I' for Inactive)
REMARK    1  A    between atoms: N_8  and  C_11
REMARK    2  A    between atoms: N_9  and  C_24
REMARK    3  A    between atoms: C_16  and  C_21
REMARK    4  A    between atoms: C_25  and  C_28
REMARK                            x       y       z     vdW  Elec       q    Type
REMARK                         _______ _______ _______ _____ _____    ______ ____
ROOT
ATOM      3  O   UNL     1      18.320   8.316  22.191  0.00  0.00    -0.273 OA
ATOM      4  O   UNL     1      17.388   5.551  18.580  0.00  0.00    -0.252 OA
ATOM      7  N   UNL     1      16.189   7.172  19.729  0.00  0.00    -0.273 N 
ATOM      9  N   UNL     1      18.298   6.789  20.382  0.00  0.00    -0.193 N 
ATOM     11  C   UNL     1      13.903   7.672  21.375  0.00  0.00    +0.077 C 
ATOM     12  C   UNL     1      16.353   8.063  20.844  0.00  0.00    +0.166 C 
ATOM     13  C   UNL     1      15.333   7.760  21.938  0.00  0.00    +0.054 C 
ATOM     14  C   UNL     1      13.831   6.721  20.168  0.00  0.00    +0.041 C 
ATOM     15  C   UNL     1      14.883   7.047  19.105  0.00  0.00    +0.112 C 
ATOM     17  C   UNL     1      17.780   7.744  21.253  0.00  0.00    +0.248 C 
ATOM     18  C   UNL     1      17.326   6.411  19.449  0.00  0.00    +0.316 C 
ENDROOT
BRANCH   9  24
ATOM      1 CL   UNL     1      23.373   7.648  20.525  0.00  0.00    -0.081 Cl
ATOM      2  F   UNL     1      23.445   4.686  20.631  0.00  0.00    -0.204 F 
ATOM     24  C   UNL     1      19.622   6.253  20.445  0.00  0.00    +0.047 A 
ATOM     26  C   UNL     1      20.727   7.109  20.452  0.00  0.00    +0.047 A 
ATOM     27  C   UNL     1      19.818   4.871  20.501  0.00  0.00    +0.027 A 
ATOM     29  C   UNL     1      22.018   6.585  20.515  0.00  0.00    +0.078 A 
ATOM     30  C   UNL     1      21.110   4.347  20.564  0.00  0.00    +0.041 A 
ATOM     31  C   UNL     1      22.211   5.205  20.571  0.00  0.00    +0.142 A 
ENDBRANCH   9  24
BRANCH  11   8
ATOM      5  O   UNL     1      11.555   8.992  22.457  0.00  0.00    -0.276 OA
ATOM      8  N   UNL     1      13.395   8.980  21.031  0.00  0.00    -0.312 N 
ATOM     21  C   UNL     1      12.260   9.527  21.605  0.00  0.00    +0.216 C 
ATOM     32  H   UNL     1      13.922   9.522  20.354  0.00  0.00    +0.149 HD
BRANCH  21  16
ATOM      6  O   UNL     1      12.907  14.888  23.851  0.00  0.00    -0.276 OA
ATOM     10  N   UNL     1      13.319  12.920  22.687  0.00  0.00    -0.302 N 
ATOM     16  C   UNL     1      11.969  10.906  21.088  0.00  0.00    +0.078 C 
ATOM     19  C   UNL     1      11.235  11.727  22.153  0.00  0.00    +0.032 C 
ATOM     20  C   UNL     1      13.249  11.597  20.607  0.00  0.00    +0.032 C 
ATOM     22  C   UNL     1      12.167  12.224  23.257  0.00  0.00    +0.108 C 
ATOM     23  C   UNL     1      14.116  12.117  21.755  0.00  0.00    +0.108 C 
ATOM     25  C   UNL     1      13.589  14.238  23.055  0.00  0.00    +0.212 C 
ATOM     28  C   UNL     1      14.795  14.883  22.420  0.00  0.00    +0.109 C 
ENDBRANCH  21  16
ENDBRANCH  11   8
TORSDOF 3
ENDMDL
MODEL 2
REMARK VINA RESULT:      -7.2     29.045     32.571
REMARK  Name = 7050301
REMARK  4 active torsions:
REMARK  status: ('A' for Active; 'I' for Inactive)
REMARK    1  A    between atoms: N_8  and  C_11
REMARK    2  A    between atoms: N_9  and  C_24
REMARK    3  A    between atoms: C_16  and  C_21
REMARK    4  A    between atoms: C_25  and  C_28
REMARK                            x       y       z     vdW  Elec       q    Type
REMARK                         _______ _______ _______ _____ _____    ______ ____
ROOT
ATOM      3  O   UNL     1     -13.270   4.796  23.567  0.00  0.00    -0.273 OA
ATOM      4  O   UNL     1     -16.533   7.559  21.758  0.00  0.00    -0.252 OA
ATOM      7  N   UNL     1     -16.553   5.829  23.305  0.00  0.00    -0.273 N 
ATOM      9  N   UNL     1     -14.571   6.427  22.448  0.00  0.00    -0.193 N 
ATOM     11  C   UNL     1     -17.503   3.188  23.859  0.00  0.00    +0.077 C 
ATOM     12  C   UNL     1     -15.639   4.907  23.921  0.00  0.00    +0.166 C 
ATOM     13  C   UNL     1     -16.013   3.465  23.590  0.00  0.00    +0.054 C 
ATOM     14  C   UNL     1     -18.402   4.241  23.187  0.00  0.00    +0.041 C 
ATOM     15  C   UNL     1     -17.979   5.671  23.529  0.00  0.00    +0.112 C 
ATOM     17  C   UNL     1     -14.329   5.345  23.289  0.00  0.00    +0.248 C 
ATOM     18  C   UNL     1     -15.937   6.726  22.431  0.00  0.00    +0.316 C 
ENDROOT
BRANCH   9  24
ATOM      1 CL   UNL     1     -12.375  10.898  21.141  0.00  0.00    -0.081 Cl
ATOM      2  F   UNL     1     -10.681   9.102  19.500  0.00  0.00    -0.204 F 
ATOM     24  C   UNL     1     -13.573   7.118  21.691  0.00  0.00    +0.047 A 
ATOM     26  C   UNL     1     -13.470   8.510  21.771  0.00  0.00    +0.047 A 
ATOM     27  C   UNL     1     -12.696   6.406  20.869  0.00  0.00    +0.027 A 
ATOM     29  C   UNL     1     -12.496   9.183  21.035  0.00  0.00    +0.078 A 
ATOM     30  C   UNL     1     -11.722   7.080  20.132  0.00  0.00    +0.041 A 
ATOM     31  C   UNL     1     -11.622   8.470  20.215  0.00  0.00    +0.142 A 
ENDBRANCH   9  24
BRANCH  11   8
ATOM      5  O   UNL     1     -17.061   0.919  25.615  0.00  0.00    -0.276 OA
ATOM      8  N   UNL     1     -17.773   3.109  25.276  0.00  0.00    -0.312 N 
ATOM     21  C   UNL     1     -17.527   1.976  26.032  0.00  0.00    +0.216 C 
ATOM     32  H   UNL     1     -18.135   3.942  25.729  0.00  0.00    +0.149 HD
BRANCH  21  16
ATOM      6  O   UNL     1     -14.585   1.165  31.021  0.00  0.00    -0.276 OA
ATOM     10  N   UNL     1     -15.483   2.170  29.128  0.00  0.00    -0.302 N 
ATOM     16  C   UNL     1     -17.874   2.172  27.480  0.00  0.00    +0.078 C 
ATOM     19  C   UNL     1     -17.449   0.947  28.296  0.00  0.00    +0.032 C 
ATOM     20  C   UNL     1     -17.265   3.468  28.023  0.00  0.00    +0.032 C 
ATOM     22  C   UNL     1     -15.944   0.907  28.554  0.00  0.00    +0.108 C 
ATOM     23  C   UNL     1     -15.766   3.352  28.308  0.00  0.00    +0.108 C 
ATOM     25  C   UNL     1     -14.821   2.177  30.356  0.00  0.00    +0.212 C 
ATOM     28  C   UNL     1     -14.381   3.521  30.878  0.00  0.00    +0.109 C 
ENDBRANCH  21  16
ENDBRANCH  11   8
TORSDOF 3
ENDMDL
MODEL 3
REMARK VINA RESULT:      -7.1     29.289     31.505
REMARK  Name = 7050301
REMARK  4 active torsions:
REMARK  status: ('A' for Active; 'I' for Inactive)
REMARK    1  A    between atoms: N_8  and  C_11
REMARK    2  A    between atoms: N_9  and  C_24
REMARK    3  A    between atoms: C_16  and  C_21
REMARK    4  A    between atoms: C_25  and  C_28
REMARK                            x       y       z     vdW  Elec       q    Type
REMARK                         _______ _______ _______ _____ _____    ______ ____
ROOT
ATOM      3  O   UNL     1      -5.000  -7.850  10.041  0.00  0.00    -0.273 OA
ATOM      4  O   UNL     1      -7.240 -11.883   9.521  0.00  0.00    -0.252 OA
ATOM      7  N   UNL     1      -6.080 -10.890  11.268  0.00  0.00    -0.273 N 
ATOM      9  N   UNL     1      -6.272  -9.727   9.363  0.00  0.00    -0.193 N 
ATOM     11  C   UNL     1      -3.797 -11.089  12.981  0.00  0.00    +0.077 C 
ATOM     12  C   UNL     1      -5.346  -9.685  11.544  0.00  0.00    +0.166 C 
ATOM     13  C   UNL     1      -3.895 -10.000  11.898  0.00  0.00    +0.054 C 
ATOM     14  C   UNL     1      -4.637 -12.325  12.615  0.00  0.00    +0.041 C 
ATOM     15  C   UNL     1      -6.077 -11.963  12.247  0.00  0.00    +0.112 C 
ATOM     17  C   UNL     1      -5.493  -8.956  10.220  0.00  0.00    +0.248 C 
ATOM     18  C   UNL     1      -6.626 -10.930   9.984  0.00  0.00    +0.316 C 
ENDROOT
BRANCH   9  24
ATOM      1 CL   UNL     1      -9.277  -6.922   6.260  0.00  0.00    -0.081 Cl
ATOM      2  F   UNL     1      -7.684  -8.297   4.172  0.00  0.00    -0.204 F 
ATOM     24  C   UNL     1      -6.639  -9.358   8.030  0.00  0.00    +0.047 A 
ATOM     26  C   UNL     1      -7.661  -8.429   7.815  0.00  0.00    +0.047 A 
ATOM     27  C   UNL     1      -5.976  -9.922   6.937  0.00  0.00    +0.027 A 
ATOM     29  C   UNL     1      -8.017  -8.068   6.516  0.00  0.00    +0.078 A 
ATOM     30  C   UNL     1      -6.332  -9.561   5.638  0.00  0.00    +0.041 A 
ATOM     31  C   UNL     1      -7.354  -8.633   5.427  0.00  0.00    +0.142 A 
ENDBRANCH   9  24
BRANCH  11   8
ATOM      5  O   UNL     1      -2.743 -11.875  15.569  0.00  0.00    -0.276 OA
ATOM      8  N   UNL     1      -4.176 -10.574  14.277  0.00  0.00    -0.312 N 
ATOM     21  C   UNL     1      -3.613 -11.015  15.462  0.00  0.00    +0.216 C 
ATOM     32  H   UNL     1      -4.871  -9.835  14.299  0.00  0.00    +0.149 HD
BRANCH  21  16
ATOM      6  O   UNL     1      -8.785 -11.141  18.187  0.00  0.00    -0.276 OA
ATOM     10  N   UNL     1      -6.579 -11.598  17.621  0.00  0.00    -0.302 N 
ATOM     16  C   UNL     1      -4.168 -10.297  16.657  0.00  0.00    +0.078 C 
ATOM     19  C   UNL     1      -5.567  -9.754  16.346  0.00  0.00    +0.032 C 
ATOM     20  C   UNL     1      -4.161 -11.198  17.896  0.00  0.00    +0.032 C 
ATOM     22  C   UNL     1      -6.638 -10.843  16.371  0.00  0.00    +0.108 C 
ATOM     23  C   UNL     1      -5.285 -12.235  17.888  0.00  0.00    +0.108 C 
ATOM     25  C   UNL     1      -7.704 -11.678  18.442  0.00  0.00    +0.212 C 
ATOM     28  C   UNL     1      -7.558 -12.474  19.714  0.00  0.00    +0.109 C 
ENDBRANCH  21  16
ENDBRANCH  11   8
TORSDOF 3
ENDMDL
MODEL 4
REMARK VINA RESULT:      -7.1      2.998      3.798
REMARK  Name = 7050301
REMARK  4 active torsions:
REMARK  status: ('A' for Active; 'I' for Inactive)
REMARK    1  A    between atoms: N_8  and  C_11
REMARK    2  A    between atoms: N_9  and  C_24
REMARK    3  A    between atoms: C_16  and  C_21
REMARK    4  A    between atoms: C_25  and  C_28
REMARK                            x       y       z     vdW  Elec       q    Type
REMARK                         _______ _______ _______ _____ _____    ______ ____
ROOT
ATOM      3  O   UNL     1      18.644   9.256  21.982  0.00  0.00    -0.273 OA
ATOM      4  O   UNL     1      18.594   5.211  19.702  0.00  0.00    -0.252 OA
ATOM      7  N   UNL     1      17.095   6.970  19.910  0.00  0.00    -0.273 N 
ATOM      9  N   UNL     1      19.064   7.161  20.961  0.00  0.00    -0.193 N 
ATOM     11  C   UNL     1      14.512   7.751  20.862  0.00  0.00    +0.077 C 
ATOM     12  C   UNL     1      16.986   8.236  20.581  0.00  0.00    +0.166 C 
ATOM     13  C   UNL     1      15.802   8.244  21.543  0.00  0.00    +0.054 C 
ATOM     14  C   UNL     1      14.732   6.407  20.146  0.00  0.00    +0.041 C 
ATOM     15  C   UNL     1      15.940   6.437  19.208  0.00  0.00    +0.112 C 
ATOM     17  C   UNL     1      18.330   8.297  21.287  0.00  0.00    +0.248 C 
ATOM     18  C   UNL     1      18.312   6.323  20.131  0.00  0.00    +0.316 C 
ENDROOT
BRANCH   9  24
ATOM      1 CL   UNL     1      24.147   7.514  20.214  0.00  0.00    -0.081 Cl
ATOM      2  F   UNL     1      24.202   6.049  22.791  0.00  0.00    -0.204 F 
ATOM     24  C   UNL     1      20.386   6.876  21.428  0.00  0.00    +0.047 A 
ATOM     26  C   UNL     1      21.497   7.283  20.683  0.00  0.00    +0.047 A 
ATOM     27  C   UNL     1      20.574   6.191  22.631  0.00  0.00    +0.027 A 
ATOM     29  C   UNL     1      22.785   7.007  21.138  0.00  0.00    +0.078 A 
ATOM     30  C   UNL     1      21.864   5.914  23.086  0.00  0.00    +0.041 A 
ATOM     31  C   UNL     1      22.970   6.323  22.339  0.00  0.00    +0.142 A 
ENDBRANCH   9  24
BRANCH  11   8
ATOM      5  O   UNL     1      12.117   7.562  19.233  0.00  0.00    -0.276 OA
ATOM      8  N   UNL     1      13.991   8.742  19.949  0.00  0.00    -0.312 N 
ATOM     21  C   UNL     1      12.834   8.559  19.212  0.00  0.00    +0.216 C 
ATOM     32  H   UNL     1      14.495   9.620  19.878  0.00  0.00    +0.149 HD
BRANCH  21  16
ATOM      6  O   UNL     1      16.083  12.350  16.167  0.00  0.00    -0.276 OA
ATOM     10  N   UNL     1      14.774  10.511  16.716  0.00  0.00    -0.302 N 
ATOM     16  C   UNL     1      12.505   9.753  18.364  0.00  0.00    +0.078 C 
ATOM     19  C   UNL     1      13.419  10.928  18.727  0.00  0.00    +0.032 C 
ATOM     20  C   UNL     1      12.574   9.407  16.873  0.00  0.00    +0.032 C 
ATOM     22  C   UNL     1      14.826  10.776  18.153  0.00  0.00    +0.108 C 
ATOM     23  C   UNL     1      14.006   9.318  16.345  0.00  0.00    +0.108 C 
ATOM     25  C   UNL     1      15.434  11.358  15.826  0.00  0.00    +0.212 C 
ATOM     28  C   UNL     1      15.328  11.014  14.362  0.00  0.00    +0.109 C 
ENDBRANCH  21  16
ENDBRANCH  11   8
TORSDOF 3
ENDMDL
MODEL 5
REMARK VINA RESULT:      -7.1      3.045      5.359
REMARK  Name = 7050301
REMARK  4 active torsions:
REMARK  status: ('A' for Active; 'I' for Inactive)
REMARK    1  A    between atoms: N_8  and  C_11
REMARK    2  A    between atoms: N_9  and  C_24
REMARK    3  A    between atoms: C_16  and  C_21
REMARK    4  A    between atoms: C_25  and  C_28
REMARK                            x       y       z     vdW  Elec       q    Type
REMARK                         _______ _______ _______ _____ _____    ______ ____
ROOT
ATOM      3  O   UNL     1      20.308   4.733  20.224  0.00  0.00    -0.273 OA
ATOM      4  O   UNL     1      22.554   5.975  24.093  0.00  0.00    -0.252 OA
ATOM      7  N   UNL     1      20.610   6.694  23.048  0.00  0.00    -0.273 N 
ATOM      9  N   UNL     1      21.725   4.996  22.102  0.00  0.00    -0.193 N 
ATOM     11  C   UNL     1      19.321   8.891  21.747  0.00  0.00    +0.077 C 
ATOM     12  C   UNL     1      19.837   6.410  21.870  0.00  0.00    +0.166 C 
ATOM     13  C   UNL     1      19.753   7.637  20.966  0.00  0.00    +0.054 C 
ATOM     14  C   UNL     1      20.183   9.096  23.005  0.00  0.00    +0.041 C 
ATOM     15  C   UNL     1      20.257   7.837  23.871  0.00  0.00    +0.112 C 
ATOM     17  C   UNL     1      20.648   5.277  21.266  0.00  0.00    +0.248 C 
ATOM     18  C   UNL     1      21.728   5.871  23.194  0.00  0.00    +0.316 C 
ENDROOT
BRANCH   9  24
ATOM      1 CL   UNL     1      25.666   3.269  19.272  0.00  0.00    -0.081 Cl
ATOM      2  F   UNL     1      25.524   1.028  21.207  0.00  0.00    -0.204 F 
ATOM     24  C   UNL     1      22.702   3.978  21.868  0.00  0.00    +0.047 A 
ATOM     26  C   UNL     1      23.604   4.100  20.807  0.00  0.00    +0.047 A 
ATOM     27  C   UNL     1      22.761   2.856  22.699  0.00  0.00    +0.027 A 
ATOM     29  C   UNL     1      24.558   3.109  20.580  0.00  0.00    +0.078 A 
ATOM     30  C   UNL     1      23.714   1.864  22.472  0.00  0.00    +0.041 A 
ATOM     31  C   UNL     1      24.614   1.990  21.411  0.00  0.00    +0.142 A 
ENDBRANCH   9  24
BRANCH  11   8
ATOM      5  O   UNL     1      17.218  10.673  20.838  0.00  0.00    -0.276 OA
ATOM      8  N   UNL     1      17.917   8.839  22.087  0.00  0.00    -0.312 N 
ATOM     21  C   UNL     1      16.986   9.739  21.600  0.00  0.00    +0.216 C 
ATOM     32  H   UNL     1      17.613   8.082  22.691  0.00  0.00    +0.149 HD
BRANCH  21  16
ATOM      6  O   UNL     1      11.847   8.979  18.915  0.00  0.00    -0.276 OA
ATOM     10  N   UNL     1      13.899   8.544  19.912  0.00  0.00    -0.302 N 
ATOM     16  C   UNL     1      15.598   9.442  22.090  0.00  0.00    +0.078 C 
ATOM     19  C   UNL     1      14.587  10.371  21.410  0.00  0.00    +0.032 C 
ATOM     20  C   UNL     1      15.248   7.964  21.893  0.00  0.00    +0.032 C 
ATOM     22  C   UNL     1      14.282   9.954  19.972  0.00  0.00    +0.108 C 
ATOM     23  C   UNL     1      14.903   7.617  20.444  0.00  0.00    +0.108 C 
ATOM     25  C   UNL     1      12.669   8.178  19.366  0.00  0.00    +0.212 C 
ATOM     28  C   UNL     1      12.352   6.704  19.343  0.00  0.00    +0.109 C 
ENDBRANCH  21  16
ENDBRANCH  11   8
TORSDOF 3
ENDMDL
MODEL 6
REMARK VINA RESULT:      -7.1     30.635     32.639
REMARK  Name = 7050301
REMARK  4 active torsions:
REMARK  status: ('A' for Active; 'I' for Inactive)
REMARK    1  A    between atoms: N_8  and  C_11
REMARK    2  A    between atoms: N_9  and  C_24
REMARK    3  A    between atoms: C_16  and  C_21
REMARK    4  A    between atoms: C_25  and  C_28
REMARK                            x       y       z     vdW  Elec       q    Type
REMARK                         _______ _______ _______ _____ _____    ______ ____
ROOT
ATOM      3  O   UNL     1      -9.706  -7.666  17.714  0.00  0.00    -0.273 OA
ATOM      4  O   UNL     1      -9.530 -10.624  14.139  0.00  0.00    -0.252 OA
ATOM      7  N   UNL     1     -10.625  -8.613  14.525  0.00  0.00    -0.273 N 
ATOM      9  N   UNL     1      -9.287  -9.389  16.146  0.00  0.00    -0.193 N 
ATOM     11  C   UNL     1     -13.174  -7.347  14.806  0.00  0.00    +0.077 C 
ATOM     12  C   UNL     1     -10.771  -7.634  15.567  0.00  0.00    +0.166 C 
ATOM     13  C   UNL     1     -12.228  -7.522  16.007  0.00  0.00    +0.054 C 
ATOM     14  C   UNL     1     -12.924  -8.419  13.731  0.00  0.00    +0.041 C 
ATOM     15  C   UNL     1     -11.449  -8.512  13.333  0.00  0.00    +0.112 C 
ATOM     17  C   UNL     1      -9.867  -8.223  16.636  0.00  0.00    +0.248 C 
ATOM     18  C   UNL     1      -9.757  -9.656  14.856  0.00  0.00    +0.316 C 
ENDROOT
BRANCH   9  24
ATOM      1 CL   UNL     1      -4.395 -10.642  17.154  0.00  0.00    -0.081 Cl
ATOM      2  F   UNL     1      -5.709 -12.595  18.956  0.00  0.00    -0.204 F 
ATOM     24  C   UNL     1      -8.365 -10.212  16.866  0.00  0.00    +0.047 A 
ATOM     26  C   UNL     1      -6.988 -10.050  16.682  0.00  0.00    +0.047 A 
ATOM     27  C   UNL     1      -8.833 -11.181  17.757  0.00  0.00    +0.027 A 
ATOM     29  C   UNL     1      -6.089 -10.850  17.385  0.00  0.00    +0.078 A 
ATOM     30  C   UNL     1      -7.933 -11.982  18.459  0.00  0.00    +0.041 A 
ATOM     31  C   UNL     1      -6.560 -11.817  18.274  0.00  0.00    +0.142 A 
ENDBRANCH   9  24
BRANCH  11   8
ATOM      5  O   UNL     1     -15.299  -5.750  13.639  0.00  0.00    -0.276 OA
ATOM      8  N   UNL     1     -13.068  -6.020  14.245  0.00  0.00    -0.312 N 
ATOM     21  C   UNL     1     -14.145  -5.335  13.709  0.00  0.00    +0.216 C 
ATOM     32  H   UNL     1     -12.158  -5.571  14.279  0.00  0.00    +0.149 HD
BRANCH  21  16
ATOM      6  O   UNL     1     -11.923  -3.335   8.683  0.00  0.00    -0.276 OA
ATOM     10  N   UNL     1     -13.436  -3.953  10.334  0.00  0.00    -0.302 N 
ATOM     16  C   UNL     1     -13.763  -3.968  13.219  0.00  0.00    +0.078 C 
ATOM     19  C   UNL     1     -12.382  -4.010  12.557  0.00  0.00    +0.032 C 
ATOM     20  C   UNL     1     -14.834  -3.396  12.287  0.00  0.00    +0.032 C 
ATOM     22  C   UNL     1     -12.423  -4.615  11.155  0.00  0.00    +0.108 C 
ATOM     23  C   UNL     1     -14.794  -4.004  10.884  0.00  0.00    +0.108 C 
ATOM     25  C   UNL     1     -13.073  -3.353   9.128  0.00  0.00    +0.212 C 
ATOM     28  C   UNL     1     -14.178  -2.691   8.344  0.00  0.00    +0.109 C 
ENDBRANCH  21  16
ENDBRANCH  11   8
TORSDOF 3
ENDMDL
MODEL 7
REMARK VINA RESULT:      -6.9     29.676     32.094
REMARK  Name = 7050301
REMARK  4 active torsions:
REMARK  status: ('A' for Active; 'I' for Inactive)
REMARK    1  A    between atoms: N_8  and  C_11
REMARK    2  A    between atoms: N_9  and  C_24
REMARK    3  A    between atoms: C_16  and  C_21
REMARK    4  A    between atoms: C_25  and  C_28
REMARK                            x       y       z     vdW  Elec       q    Type
REMARK                         _______ _______ _______ _____ _____    ______ ____
ROOT
ATOM      3  O   UNL     1      -8.779 -11.514  15.870  0.00  0.00    -0.273 OA
ATOM      4  O   UNL     1      -7.256 -10.314  20.089  0.00  0.00    -0.252 OA
ATOM      7  N   UNL     1      -6.219 -10.987  18.124  0.00  0.00    -0.273 N 
ATOM      9  N   UNL     1      -8.451 -10.790  18.100  0.00  0.00    -0.193 N 
ATOM     11  C   UNL     1      -4.620 -13.013  16.891  0.00  0.00    +0.077 C 
ATOM     12  C   UNL     1      -6.569 -11.392  16.791  0.00  0.00    +0.166 C 
ATOM     13  C   UNL     1      -6.100 -12.818  16.514  0.00  0.00    +0.054 C 
ATOM     14  C   UNL     1      -4.334 -12.524  18.321  0.00  0.00    +0.041 C 
ATOM     15  C   UNL     1      -4.839 -11.100  18.562  0.00  0.00    +0.112 C 
ATOM     17  C   UNL     1      -8.081 -11.260  16.843  0.00  0.00    +0.248 C 
ATOM     18  C   UNL     1      -7.319 -10.635  18.908  0.00  0.00    +0.316 C 
ENDROOT
BRANCH   9  24
ATOM      1 CL   UNL     1     -12.490 -12.151  20.989  0.00  0.00    -0.081 Cl
ATOM      2  F   UNL     1     -13.676  -9.753  19.712  0.00  0.00    -0.204 F 
ATOM     24  C   UNL     1      -9.794 -10.528  18.516  0.00  0.00    +0.047 A 
ATOM     26  C   UNL     1     -10.420 -11.368  19.441  0.00  0.00    +0.047 A 
ATOM     27  C   UNL     1     -10.487  -9.429  18.001  0.00  0.00    +0.027 A 
ATOM     29  C   UNL     1     -11.728 -11.111  19.848  0.00  0.00    +0.078 A 
ATOM     30  C   UNL     1     -11.796  -9.172  18.408  0.00  0.00    +0.041 A 
ATOM     31  C   UNL     1     -12.417 -10.014  19.332  0.00  0.00    +0.142 A 
ENDBRANCH   9  24
BRANCH  11   8
ATOM      5  O   UNL     1      -3.405 -14.181  14.528  0.00  0.00    -0.276 OA
ATOM      8  N   UNL     1      -3.747 -12.364  15.940  0.00  0.00    -0.312 N 
ATOM     21  C   UNL     1      -3.214 -13.008  14.837  0.00  0.00    +0.216 C 
ATOM     32  H   UNL     1      -3.548 -11.380  16.088  0.00  0.00    +0.149 HD
BRANCH  21  16
ATOM      6  O   UNL     1      -3.748 -10.833   9.435  0.00  0.00    -0.276 OA
ATOM     10  N   UNL     1      -3.865 -11.055  11.745  0.00  0.00    -0.302 N 
ATOM     16  C   UNL     1      -2.363 -12.096  14.002  0.00  0.00    +0.078 C 
ATOM     19  C   UNL     1      -2.207 -12.665  12.588  0.00  0.00    +0.032 C 
ATOM     20  C   UNL     1      -2.925 -10.672  13.993  0.00  0.00    +0.032 C 
ATOM     22  C   UNL     1      -3.455 -12.458  11.732  0.00  0.00    +0.108 C 
ATOM     23  C   UNL     1      -4.142 -10.514  13.079  0.00  0.00    +0.108 C 
ATOM     25  C   UNL     1      -3.977 -10.349  10.547  0.00  0.00    +0.212 C 
ATOM     28  C   UNL     1      -4.403  -8.907  10.650  0.00  0.00    +0.109 C 
ENDBRANCH  21  16
ENDBRANCH  11   8
TORSDOF 3
ENDMDL
MODEL 8
REMARK VINA RESULT:      -6.8     28.525     31.135
REMARK  Name = 7050301
REMARK  4 active torsions:
REMARK  status: ('A' for Active; 'I' for Inactive)
REMARK    1  A    between atoms: N_8  and  C_11
REMARK    2  A    between atoms: N_9  and  C_24
REMARK    3  A    between atoms: C_16  and  C_21
REMARK    4  A    between atoms: C_25  and  C_28
REMARK                            x       y       z     vdW  Elec       q    Type
REMARK                         _______ _______ _______ _____ _____    ______ ____
ROOT
ATOM      3  O   UNL     1      -5.529  -9.549  15.156  0.00  0.00    -0.273 OA
ATOM      4  O   UNL     1      -3.369 -13.549  14.211  0.00  0.00    -0.252 OA
ATOM      7  N   UNL     1      -4.934 -12.889  15.792  0.00  0.00    -0.273 N 
ATOM      9  N   UNL     1      -4.264 -11.358  14.300  0.00  0.00    -0.193 N 
ATOM     11  C   UNL     1      -5.436 -12.519  18.584  0.00  0.00    +0.077 C 
ATOM     12  C   UNL     1      -5.651 -11.708  16.190  0.00  0.00    +0.166 C 
ATOM     13  C   UNL     1      -5.308 -11.322  17.626  0.00  0.00    +0.054 C 
ATOM     14  C   UNL     1      -4.664 -13.743  18.062  0.00  0.00    +0.041 C 
ATOM     15  C   UNL     1      -5.022 -14.084  16.614  0.00  0.00    +0.112 C 
ATOM     17  C   UNL     1      -5.141 -10.710  15.165  0.00  0.00    +0.248 C 
ATOM     18  C   UNL     1      -4.110 -12.695  14.683  0.00  0.00    +0.316 C 
ENDROOT
BRANCH   9  24
ATOM      1 CL   UNL     1      -4.580  -9.215   9.628  0.00  0.00    -0.081 Cl
ATOM      2  F   UNL     1      -1.652  -8.959  10.010  0.00  0.00    -0.204 F 
ATOM     24  C   UNL     1      -3.596 -10.742  13.195  0.00  0.00    +0.047 A 
ATOM     26  C   UNL     1      -4.325 -10.327  12.077  0.00  0.00    +0.047 A 
ATOM     27  C   UNL     1      -2.213 -10.551  13.229  0.00  0.00    +0.027 A 
ATOM     29  C   UNL     1      -3.674  -9.725  11.001  0.00  0.00    +0.078 A 
ATOM     30  C   UNL     1      -1.561  -9.949  12.152  0.00  0.00    +0.041 A 
ATOM     31  C   UNL     1      -2.293  -9.536  11.037  0.00  0.00    +0.142 A 
ENDBRANCH   9  24
BRANCH  11   8
ATOM      5  O   UNL     1      -7.370 -10.993  20.118  0.00  0.00    -0.276 OA
ATOM      8  N   UNL     1      -6.821 -12.850  18.827  0.00  0.00    -0.312 N 
ATOM     21  C   UNL     1      -7.670 -12.053  19.577  0.00  0.00    +0.216 C 
ATOM     32  H   UNL     1      -7.181 -13.696  18.398  0.00  0.00    +0.149 HD
BRANCH  21  16
ATOM      6  O   UNL     1     -12.896 -10.107  17.818  0.00  0.00    -0.276 OA
ATOM     10  N   UNL     1     -10.847 -11.201  17.850  0.00  0.00    -0.302 N 
ATOM     16  C   UNL     1      -9.060 -12.615  19.650  0.00  0.00    +0.078 C 
ATOM     19  C   UNL     1     -10.038 -11.546  20.148  0.00  0.00    +0.032 C 
ATOM     20  C   UNL     1      -9.488 -13.208  18.304  0.00  0.00    +0.032 C 
ATOM     22  C   UNL     1     -10.394 -10.528  19.066  0.00  0.00    +0.108 C 
ATOM     23  C   UNL     1      -9.880 -12.143  17.279  0.00  0.00    +0.108 C 
ATOM     25  C   UNL     1     -12.106 -10.913  17.322  0.00  0.00    +0.212 C 
ATOM     28  C   UNL     1     -12.497 -11.653  16.068  0.00  0.00    +0.109 C 
ENDBRANCH  21  16
ENDBRANCH  11   8
TORSDOF 3
ENDMDL
MODEL 9
REMARK VINA RESULT:      -6.8     19.049     22.042
REMARK  Name = 7050301
REMARK  4 active torsions:
REMARK  status: ('A' for Active; 'I' for Inactive)
REMARK    1  A    between atoms: N_8  and  C_11
REMARK    2  A    between atoms: N_9  and  C_24
REMARK    3  A    between atoms: C_16  and  C_21
REMARK    4  A    between atoms: C_25  and  C_28
REMARK                            x       y       z     vdW  Elec       q    Type
REMARK                         _______ _______ _______ _____ _____    ______ ____
ROOT
ATOM      3  O   UNL     1       9.902   4.764   3.041  0.00  0.00    -0.273 OA
ATOM      4  O   UNL     1      13.328   7.458   4.644  0.00  0.00    -0.252 OA
ATOM      7  N   UNL     1      12.982   6.279   2.674  0.00  0.00    -0.273 N 
ATOM      9  N   UNL     1      11.354   6.221   4.212  0.00  0.00    -0.193 N 
ATOM     11  C   UNL     1      13.920   4.136   1.028  0.00  0.00    +0.077 C 
ATOM     12  C   UNL     1      11.999   5.417   2.078  0.00  0.00    +0.166 C 
ATOM     13  C   UNL     1      12.586   4.038   1.790  0.00  0.00    +0.054 C 
ATOM     14  C   UNL     1      14.895   5.102   1.722  0.00  0.00    +0.041 C 
ATOM     15  C   UNL     1      14.261   6.464   2.011  0.00  0.00    +0.112 C 
ATOM     17  C   UNL     1      10.941   5.400   3.168  0.00  0.00    +0.248 C 
ATOM     18  C   UNL     1      12.616   6.756   3.934  0.00  0.00    +0.316 C 
ENDROOT
BRANCH   9  24
ATOM      1 CL   UNL     1       9.595   4.457   8.720  0.00  0.00    -0.081 Cl
ATOM      2  F   UNL     1       8.455   7.189   8.865  0.00  0.00    -0.204 F 
ATOM     24  C   UNL     1      10.609   6.466   5.409  0.00  0.00    +0.047 A 
ATOM     26  C   UNL     1      10.476   5.461   6.372  0.00  0.00    +0.047 A 
ATOM     27  C   UNL     1      10.011   7.710   5.622  0.00  0.00    +0.027 A 
ATOM     29  C   UNL     1       9.752   5.700   7.539  0.00  0.00    +0.078 A 
ATOM     30  C   UNL     1       9.285   7.950   6.789  0.00  0.00    +0.041 A 
ATOM     31  C   UNL     1       9.156   6.944   7.748  0.00  0.00    +0.142 A 
ENDBRANCH   9  24
BRANCH  11   8
ATOM      5  O   UNL     1      12.753   2.529  -1.089  0.00  0.00    -0.276 OA
ATOM      8  N   UNL     1      13.709   4.518  -0.350  0.00  0.00    -0.312 N 
ATOM     21  C   UNL     1      13.142   3.676  -1.291  0.00  0.00    +0.216 C 
ATOM     32  H   UNL     1      13.970   5.462  -0.616  0.00  0.00    +0.149 HD
BRANCH  21  16
ATOM      6  O   UNL     1       9.320   3.139  -5.684  0.00  0.00    -0.276 OA
ATOM     10  N   UNL     1      10.371   3.897  -3.756  0.00  0.00    -0.302 N 
ATOM     16  C   UNL     1      13.015   4.331  -2.636  0.00  0.00    +0.078 C 
ATOM     19  C   UNL     1      12.751   3.276  -3.715  0.00  0.00    +0.032 C 
ATOM     20  C   UNL     1      11.940   5.422  -2.620  0.00  0.00    +0.032 C 
ATOM     22  C   UNL     1      11.308   2.776  -3.706  0.00  0.00    +0.108 C 
ATOM     23  C   UNL     1      10.518   4.862  -2.662  0.00  0.00    +0.108 C 
ATOM     25  C   UNL     1       9.429   3.973  -4.782  0.00  0.00    +0.212 C 
ATOM     28  C   UNL     1       8.502   5.162  -4.760  0.00  0.00    +0.109 C 
ENDBRANCH  21  16
ENDBRANCH  11   8
TORSDOF 3
ENDMDL
MODEL 10
REMARK VINA RESULT:      -6.8     29.466     31.750
REMARK  Name = 7050301
REMARK  4 active torsions:
REMARK  status: ('A' for Active; 'I' for Inactive)
REMARK    1  A    between atoms: N_8  and  C_11
REMARK    2  A    between atoms: N_9  and  C_24
REMARK    3  A    between atoms: C_16  and  C_21
REMARK    4  A    between atoms: C_25  and  C_28
REMARK                            x       y       z     vdW  Elec       q    Type
REMARK                         _______ _______ _______ _____ _____    ______ ____
ROOT
ATOM      3  O   UNL     1      -8.453 -11.695  15.119  0.00  0.00    -0.273 OA
ATOM      4  O   UNL     1      -5.050 -10.984  18.197  0.00  0.00    -0.252 OA
ATOM      7  N   UNL     1      -5.225 -10.748  15.895  0.00  0.00    -0.273 N 
ATOM      9  N   UNL     1      -7.050 -11.422  17.007  0.00  0.00    -0.193 N 
ATOM     11  C   UNL     1      -4.269 -11.674  13.363  0.00  0.00    +0.077 C 
ATOM     12  C   UNL     1      -6.191 -10.946  14.849  0.00  0.00    +0.166 C 
ATOM     13  C   UNL     1      -5.699 -11.981  13.842  0.00  0.00    +0.054 C 
ATOM     14  C   UNL     1      -3.315 -11.447  14.548  0.00  0.00    +0.041 C 
ATOM     15  C   UNL     1      -3.855 -10.419  15.543  0.00  0.00    +0.112 C 
ATOM     17  C   UNL     1      -7.388 -11.420  15.657  0.00  0.00    +0.248 C 
ATOM     18  C   UNL     1      -5.717 -11.031  17.171  0.00  0.00    +0.316 C 
ENDROOT
BRANCH   9  24
ATOM      1 CL   UNL     1     -10.858 -10.105  20.213  0.00  0.00    -0.081 Cl
ATOM      2  F   UNL     1     -10.465 -12.890  21.149  0.00  0.00    -0.204 F 
ATOM     24  C   UNL     1      -7.929 -11.795  18.072  0.00  0.00    +0.047 A 
ATOM     26  C   UNL     1      -8.858 -10.877  18.570  0.00  0.00    +0.047 A 
ATOM     27  C   UNL     1      -7.864 -13.079  18.619  0.00  0.00    +0.027 A 
ATOM     29  C   UNL     1      -9.716 -11.242  19.607  0.00  0.00    +0.078 A 
ATOM     30  C   UNL     1      -8.722 -13.444  19.657  0.00  0.00    +0.041 A 
ATOM     31  C   UNL     1      -9.649 -12.524  20.152  0.00  0.00    +0.142 A 
ENDBRANCH   9  24
BRANCH  11   8
ATOM      5  O   UNL     1      -3.615 -11.682  10.535  0.00  0.00    -0.276 OA
ATOM      8  N   UNL     1      -4.250 -10.544  12.462  0.00  0.00    -0.312 N 
ATOM     21  C   UNL     1      -3.923 -10.649  11.122  0.00  0.00    +0.216 C 
ATOM     32  H   UNL     1      -4.519  -9.642  12.842  0.00  0.00    +0.149 HD
BRANCH  21  16
ATOM      6  O   UNL     1      -7.377  -8.570   6.885  0.00  0.00    -0.276 OA
ATOM     10  N   UNL     1      -6.524  -9.075   8.986  0.00  0.00    -0.302 N 
ATOM     16  C   UNL     1      -4.007  -9.329  10.411  0.00  0.00    +0.078 C 
ATOM     19  C   UNL     1      -4.111  -9.547   8.898  0.00  0.00    +0.032 C 
ATOM     20  C   UNL     1      -5.161  -8.482  10.954  0.00  0.00    +0.032 C 
ATOM     22  C   UNL     1      -5.509  -9.988   8.465  0.00  0.00    +0.108 C 
ATOM     23  C   UNL     1      -6.530  -8.940  10.446  0.00  0.00    +0.108 C 
ATOM     25  C   UNL     1      -7.396  -8.429   8.110  0.00  0.00    +0.212 C 
ATOM     28  C   UNL     1      -8.413  -7.503   8.730  0.00  0.00    +0.109 C 
ENDBRANCH  21  16
ENDBRANCH  11   8
TORSDOF 3
ENDMDL
