MODEL 1
REMARK VINA RESULT:      -6.4      0.000      0.000
REMARK  Name = 45783974
REMARK  16 active torsions:
REMARK  status: ('A' for Active; 'I' for Inactive)
REMARK    1  A    between atoms: O_2  and  C_22
REMARK    2  A    between atoms: N_3  and  C_14
REMARK    3  A    between atoms: N_3  and  C_20
REMARK    4  A    between atoms: N_3  and  C_21
REMARK    5  A    between atoms: N_6  and  C_29
REMARK    6  A    between atoms: N_6  and  C_30
REMARK    7  A    between atoms: N_6  and  C_31
REMARK    8  A    between atoms: C_7  and  C_11
REMARK    9  A    between atoms: C_8  and  C_14
REMARK   10  A    between atoms: C_10  and  C_15
REMARK   11  A    between atoms: C_11  and  C_16
REMARK   12  A    between atoms: C_11  and  C_17
REMARK   13  A    between atoms: C_12  and  C_18
REMARK   14  A    between atoms: C_15  and  C_19
REMARK   15  A    between atoms: C_20  and  C_22
REMARK   16  A    between atoms: C_23  and  C_24
REMARK                            x       y       z     vdW  Elec       q    Type
REMARK                         _______ _______ _______ _____ _____    ______ ____
ROOT
ATOM      7  C   UNL     1      13.948   9.903  21.217  0.00  0.00    +0.000 C 
ATOM      8  C   UNL     1      12.745  10.351  20.354  0.00  0.00    +0.029 C 
ATOM      9  C   UNL     1      14.430   8.511  20.787  0.00  0.00    +0.012 C 
ATOM     10  C   UNL     1      14.811   8.431  19.293  0.00  0.00    +0.024 C 
ATOM     12  C   UNL     1      13.868   9.215  18.394  0.00  0.00    -0.073 C 
ATOM     13  C   UNL     1      12.943  10.060  18.888  0.00  0.00    -0.023 C 
ATOM     18  C   UNL     1      14.038   9.063  16.907  0.00  0.00    +0.039 C 
ENDROOT
BRANCH   7  11
ATOM     11  C   UNL     1      15.089  10.928  21.159  0.00  0.00    -0.013 C 
ATOM     16  C   UNL     1      16.267  10.460  22.008  0.00  0.00    +0.007 C 
ATOM     17  C   UNL     1      14.600  12.297  21.622  0.00  0.00    +0.007 C 
ENDBRANCH   7  11
BRANCH   8  14
ATOM     14  C   UNL     1      11.439   9.703  20.824  0.00  0.00    +0.092 C 
BRANCH  14   3
ATOM      3  N   UNL     1      11.534   9.312  22.219  0.00  0.00    -0.303 NA
ATOM     21  C   UNL     1      10.897  10.310  23.084  0.00  0.00    +0.105 C 
BRANCH   3  20
ATOM     20  C   UNL     1      10.922   7.997  22.434  0.00  0.00    +0.112 C 
BRANCH  20  22
ATOM     22  C   UNL     1      11.123   7.107  21.218  0.00  0.00    +0.171 C 
BRANCH  22   2
ATOM      2  O   UNL     1      11.970   6.023  21.581  0.00  0.00    -0.394 OA
ATOM     32  H   UNL     1      12.358   6.241  22.446  0.00  0.00    +0.209 HD
ENDBRANCH  22   2
ENDBRANCH  20  22
ENDBRANCH   3  20
ENDBRANCH  14   3
ENDBRANCH   8  14
BRANCH  10  15
ATOM     15  C   UNL     1      14.923   6.953  18.895  0.00  0.00    +0.105 C 
BRANCH  15  19
ATOM      1  O   UNL     1      17.011   6.983  20.159  0.00  0.00    -0.420 OA
ATOM      4  N   UNL     1      16.965   5.484  18.499  0.00  0.00    -0.112 NA
ATOM      5  N   UNL     1      18.195   5.391  19.123  0.00  0.00    -0.107 NA
ATOM     19  C   UNL     1      16.308   6.424  19.136  0.00  0.00    +0.218 A 
ATOM     23  C   UNL     1      18.177   6.285  20.085  0.00  0.00    +0.248 A 
BRANCH  23  24
ATOM     24  C   UNL     1      19.177   6.631  21.053  0.00  0.00    +0.039 A 
ATOM     25  C   UNL     1      18.998   7.746  21.872  0.00  0.00    +0.015 A 
ATOM     26  C   UNL     1      20.326   5.851  21.177  0.00  0.00    +0.015 A 
ATOM     27  C   UNL     1      19.971   8.082  22.815  0.00  0.00    +0.024 A 
ATOM     28  C   UNL     1      21.299   6.187  22.120  0.00  0.00    +0.024 A 
ATOM     29  C   UNL     1      21.121   7.303  22.938  0.00  0.00    +0.029 A 
BRANCH  29   6
ATOM      6  N   UNL     1      22.104   7.644  23.890  0.00  0.00    -0.336 N 
ATOM     30  C   UNL     1      23.431   7.064  23.815  0.00  0.00    +0.129 C 
ATOM     31  C   UNL     1      21.799   8.572  24.961  0.00  0.00    +0.129 C 
ENDBRANCH  29   6
ENDBRANCH  23  24
ENDBRANCH  15  19
ENDBRANCH  10  15
TORSDOF 10
ENDMDL
MODEL 2
REMARK VINA RESULT:      -6.3      2.268      3.306
REMARK  Name = 45783974
REMARK  16 active torsions:
REMARK  status: ('A' for Active; 'I' for Inactive)
REMARK    1  A    between atoms: O_2  and  C_22
REMARK    2  A    between atoms: N_3  and  C_14
REMARK    3  A    between atoms: N_3  and  C_20
REMARK    4  A    between atoms: N_3  and  C_21
REMARK    5  A    between atoms: N_6  and  C_29
REMARK    6  A    between atoms: N_6  and  C_30
REMARK    7  A    between atoms: N_6  and  C_31
REMARK    8  A    between atoms: C_7  and  C_11
REMARK    9  A    between atoms: C_8  and  C_14
REMARK   10  A    between atoms: C_10  and  C_15
REMARK   11  A    between atoms: C_11  and  C_16
REMARK   12  A    between atoms: C_11  and  C_17
REMARK   13  A    between atoms: C_12  and  C_18
REMARK   14  A    between atoms: C_15  and  C_19
REMARK   15  A    between atoms: C_20  and  C_22
REMARK   16  A    between atoms: C_23  and  C_24
REMARK                            x       y       z     vdW  Elec       q    Type
REMARK                         _______ _______ _______ _____ _____    ______ ____
ROOT
ATOM      7  C   UNL     1      13.848  11.283  20.422  0.00  0.00    +0.000 C 
ATOM      8  C   UNL     1      12.565  11.563  21.238  0.00  0.00    +0.029 C 
ATOM      9  C   UNL     1      14.360   9.861  20.695  0.00  0.00    +0.012 C 
ATOM     10  C   UNL     1      13.312   8.767  20.397  0.00  0.00    +0.024 C 
ATOM     12  C   UNL     1      11.905   9.159  20.820  0.00  0.00    -0.073 C 
ATOM     13  C   UNL     1      11.594  10.411  21.204  0.00  0.00    -0.023 C 
ATOM     18  C   UNL     1      10.837   8.102  20.741  0.00  0.00    +0.039 C 
ENDROOT
BRANCH   7  11
ATOM     11  C   UNL     1      13.618  11.512  18.922  0.00  0.00    -0.013 C 
ATOM     16  C   UNL     1      14.776  10.937  18.112  0.00  0.00    +0.007 C 
ATOM     17  C   UNL     1      13.441  12.998  18.631  0.00  0.00    +0.007 C 
ENDBRANCH   7  11
BRANCH   8  14
ATOM     14  C   UNL     1      12.885  11.908  22.695  0.00  0.00    +0.092 C 
BRANCH  14   3
ATOM      3  N   UNL     1      12.244  13.154  23.080  0.00  0.00    -0.303 NA
ATOM     21  C   UNL     1      11.983  13.990  21.905  0.00  0.00    +0.105 C 
BRANCH   3  20
ATOM     20  C   UNL     1      10.993  12.895  23.800  0.00  0.00    +0.112 C 
BRANCH  20  22
ATOM     22  C   UNL     1      11.147  11.703  24.731  0.00  0.00    +0.171 C 
BRANCH  22   2
ATOM      2  O   UNL     1      10.589  12.036  25.996  0.00  0.00    -0.394 OA
ATOM     32  H   UNL     1       9.785  12.558  25.824  0.00  0.00    +0.209 HD
ENDBRANCH  22   2
ENDBRANCH  20  22
ENDBRANCH   3  20
ENDBRANCH  14   3
ENDBRANCH   8  14
BRANCH  10  15
ATOM     15  C   UNL     1      13.783   7.453  21.033  0.00  0.00    +0.105 C 
BRANCH  15  19
ATOM      1  O   UNL     1      16.150   6.858  21.038  0.00  0.00    -0.420 OA
ATOM      4  N   UNL     1      15.105   6.448  19.102  0.00  0.00    -0.112 NA
ATOM      5  N   UNL     1      16.426   6.066  18.963  0.00  0.00    -0.107 NA
ATOM     19  C   UNL     1      14.989   6.903  20.327  0.00  0.00    +0.218 A 
ATOM     23  C   UNL     1      16.998   6.324  20.117  0.00  0.00    +0.248 A 
BRANCH  23  24
ATOM     24  C   UNL     1      18.352   6.131  20.549  0.00  0.00    +0.039 A 
ATOM     25  C   UNL     1      19.146   5.159  19.941  0.00  0.00    +0.015 A 
ATOM     26  C   UNL     1      18.875   6.918  21.574  0.00  0.00    +0.015 A 
ATOM     27  C   UNL     1      20.463   4.972  20.361  0.00  0.00    +0.024 A 
ATOM     28  C   UNL     1      20.192   6.731  21.994  0.00  0.00    +0.024 A 
ATOM     29  C   UNL     1      20.987   5.758  21.387  0.00  0.00    +0.029 A 
BRANCH  29   6
ATOM      6  N   UNL     1      22.318   5.568  21.812  0.00  0.00    -0.336 N 
ATOM     30  C   UNL     1      23.187   4.644  21.113  0.00  0.00    +0.129 C 
ATOM     31  C   UNL     1      22.831   6.290  22.961  0.00  0.00    +0.129 C 
ENDBRANCH  29   6
ENDBRANCH  23  24
ENDBRANCH  15  19
ENDBRANCH  10  15
TORSDOF 10
ENDMDL
MODEL 3
REMARK VINA RESULT:      -6.1     27.439     29.858
REMARK  Name = 45783974
REMARK  16 active torsions:
REMARK  status: ('A' for Active; 'I' for Inactive)
REMARK    1  A    between atoms: O_2  and  C_22
REMARK    2  A    between atoms: N_3  and  C_14
REMARK    3  A    between atoms: N_3  and  C_20
REMARK    4  A    between atoms: N_3  and  C_21
REMARK    5  A    between atoms: N_6  and  C_29
REMARK    6  A    between atoms: N_6  and  C_30
REMARK    7  A    between atoms: N_6  and  C_31
REMARK    8  A    between atoms: C_7  and  C_11
REMARK    9  A    between atoms: C_8  and  C_14
REMARK   10  A    between atoms: C_10  and  C_15
REMARK   11  A    between atoms: C_11  and  C_16
REMARK   12  A    between atoms: C_11  and  C_17
REMARK   13  A    between atoms: C_12  and  C_18
REMARK   14  A    between atoms: C_15  and  C_19
REMARK   15  A    between atoms: C_20  and  C_22
REMARK   16  A    between atoms: C_23  and  C_24
REMARK                            x       y       z     vdW  Elec       q    Type
REMARK                         _______ _______ _______ _____ _____    ______ ____
ROOT
ATOM      7  C   UNL     1      -3.895 -10.008  11.659  0.00  0.00    +0.000 C 
ATOM      8  C   UNL     1      -5.090 -10.981  11.535  0.00  0.00    +0.029 C 
ATOM      9  C   UNL     1      -2.858 -10.552  12.652  0.00  0.00    +0.012 C 
ATOM     10  C   UNL     1      -2.340 -11.959  12.284  0.00  0.00    +0.024 C 
ATOM     12  C   UNL     1      -3.430 -12.876  11.751  0.00  0.00    -0.073 C 
ATOM     13  C   UNL     1      -4.657 -12.422  11.433  0.00  0.00    -0.023 C 
ATOM     18  C   UNL     1      -3.076 -14.321  11.529  0.00  0.00    +0.039 C 
ENDROOT
BRANCH   7  11
ATOM     11  C   UNL     1      -3.258  -9.728  10.290  0.00  0.00    -0.013 C 
ATOM     16  C   UNL     1      -1.973  -8.923  10.457  0.00  0.00    +0.007 C 
ATOM     17  C   UNL     1      -4.243  -8.993   9.386  0.00  0.00    +0.007 C 
ENDBRANCH   7  11
BRANCH   8  14
ATOM     14  C   UNL     1      -6.065 -10.831  12.707  0.00  0.00    +0.092 C 
BRANCH  14   3
ATOM      3  N   UNL     1      -6.946  -9.694  12.498  0.00  0.00    -0.303 NA
ATOM     21  C   UNL     1      -7.608  -9.780  11.193  0.00  0.00    +0.105 C 
BRANCH   3  20
ATOM     20  C   UNL     1      -7.948  -9.609  13.565  0.00  0.00    +0.112 C 
BRANCH  20  22
ATOM     22  C   UNL     1      -7.351 -10.038  14.896  0.00  0.00    +0.171 C 
BRANCH  22   2
ATOM      2  O   UNL     1      -7.922  -9.245  15.929  0.00  0.00    -0.394 OA
ATOM     32  H   UNL     1      -8.280  -8.443  15.509  0.00  0.00    +0.209 HD
ENDBRANCH  22   2
ENDBRANCH  20  22
ENDBRANCH   3  20
ENDBRANCH  14   3
ENDBRANCH   8  14
BRANCH  10  15
ATOM     15  C   UNL     1      -1.610 -12.545  13.500  0.00  0.00    +0.105 C 
BRANCH  15  19
ATOM      1  O   UNL     1      -3.312 -12.239  15.222  0.00  0.00    -0.420 OA
ATOM      4  N   UNL     1      -1.448 -11.047  15.553  0.00  0.00    -0.112 NA
ATOM      5  N   UNL     1      -2.316 -10.779  16.594  0.00  0.00    -0.107 NA
ATOM     19  C   UNL     1      -2.070 -11.903  14.777  0.00  0.00    +0.218 A 
ATOM     23  C   UNL     1      -3.391 -11.496  16.360  0.00  0.00    +0.248 A 
BRANCH  23  24
ATOM     24  C   UNL     1      -4.611 -11.616  17.104  0.00  0.00    +0.039 A 
ATOM     25  C   UNL     1      -4.980 -10.616  18.003  0.00  0.00    +0.015 A 
ATOM     26  C   UNL     1      -5.429 -12.731  16.926  0.00  0.00    +0.015 A 
ATOM     27  C   UNL     1      -6.168 -10.733  18.727  0.00  0.00    +0.024 A 
ATOM     28  C   UNL     1      -6.616 -12.848  17.649  0.00  0.00    +0.024 A 
ATOM     29  C   UNL     1      -6.986 -11.848  18.550  0.00  0.00    +0.029 A 
BRANCH  29   6
ATOM      6  N   UNL     1      -8.185 -11.967  19.282  0.00  0.00    -0.336 N 
ATOM     30  C   UNL     1      -8.463 -13.165  20.048  0.00  0.00    +0.129 C 
ATOM     31  C   UNL     1      -9.161 -10.894  19.269  0.00  0.00    +0.129 C 
ENDBRANCH  29   6
ENDBRANCH  23  24
ENDBRANCH  15  19
ENDBRANCH  10  15
TORSDOF 10
ENDMDL
MODEL 4
REMARK VINA RESULT:      -6.0     27.902     30.412
REMARK  Name = 45783974
REMARK  16 active torsions:
REMARK  status: ('A' for Active; 'I' for Inactive)
REMARK    1  A    between atoms: O_2  and  C_22
REMARK    2  A    between atoms: N_3  and  C_14
REMARK    3  A    between atoms: N_3  and  C_20
REMARK    4  A    between atoms: N_3  and  C_21
REMARK    5  A    between atoms: N_6  and  C_29
REMARK    6  A    between atoms: N_6  and  C_30
REMARK    7  A    between atoms: N_6  and  C_31
REMARK    8  A    between atoms: C_7  and  C_11
REMARK    9  A    between atoms: C_8  and  C_14
REMARK   10  A    between atoms: C_10  and  C_15
REMARK   11  A    between atoms: C_11  and  C_16
REMARK   12  A    between atoms: C_11  and  C_17
REMARK   13  A    between atoms: C_12  and  C_18
REMARK   14  A    between atoms: C_15  and  C_19
REMARK   15  A    between atoms: C_20  and  C_22
REMARK   16  A    between atoms: C_23  and  C_24
REMARK                            x       y       z     vdW  Elec       q    Type
REMARK                         _______ _______ _______ _____ _____    ______ ____
ROOT
ATOM      7  C   UNL     1      -7.055 -12.344  16.976  0.00  0.00    +0.000 C 
ATOM      8  C   UNL     1      -7.224 -12.123  18.496  0.00  0.00    +0.029 C 
ATOM      9  C   UNL     1      -5.868 -11.529  16.442  0.00  0.00    +0.012 C 
ATOM     10  C   UNL     1      -4.538 -11.845  17.159  0.00  0.00    +0.024 C 
ATOM     12  C   UNL     1      -4.702 -12.050  18.656  0.00  0.00    -0.073 C 
ATOM     13  C   UNL     1      -5.912 -12.159  19.237  0.00  0.00    -0.023 C 
ATOM     18  C   UNL     1      -3.451 -12.187  19.480  0.00  0.00    +0.039 C 
ENDROOT
BRANCH   7  11
ATOM     11  C   UNL     1      -6.899 -13.835  16.641  0.00  0.00    -0.013 C 
ATOM     16  C   UNL     1      -6.835 -14.037  15.131  0.00  0.00    +0.007 C 
ATOM     17  C   UNL     1      -8.046 -14.638  17.246  0.00  0.00    +0.007 C 
ENDBRANCH   7  11
BRANCH   8  14
ATOM     14  C   UNL     1      -7.936 -10.801  18.800  0.00  0.00    +0.092 C 
BRANCH  14   3
ATOM      3  N   UNL     1      -9.375 -10.954  18.677  0.00  0.00    -0.303 NA
ATOM     21  C   UNL     1     -10.037 -10.716  19.963  0.00  0.00    +0.105 C 
BRANCH   3  20
ATOM     20  C   UNL     1      -9.911 -10.044  17.660  0.00  0.00    +0.112 C 
BRANCH  20  22
ATOM     22  C   UNL     1      -8.923  -8.925  17.369  0.00  0.00    +0.171 C 
BRANCH  22   2
ATOM      2  O   UNL     1      -9.506  -7.689  17.762  0.00  0.00    -0.394 OA
ATOM     32  H   UNL     1      -8.935  -6.981  17.416  0.00  0.00    +0.209 HD
ENDBRANCH  22   2
ENDBRANCH  20  22
ENDBRANCH   3  20
ENDBRANCH  14   3
ENDBRANCH   8  14
BRANCH  10  15
ATOM     15  C   UNL     1      -3.524 -10.747  16.814  0.00  0.00    +0.105 C 
BRANCH  15  19
ATOM      1  O   UNL     1      -3.966 -10.446  14.433  0.00  0.00    -0.420 OA
ATOM      4  N   UNL     1      -1.934 -11.261  14.892  0.00  0.00    -0.112 NA
ATOM      5  N   UNL     1      -2.046 -11.143  13.519  0.00  0.00    -0.107 NA
ATOM     19  C   UNL     1      -3.076 -10.843  15.384  0.00  0.00    +0.218 A 
ATOM     23  C   UNL     1      -3.248 -10.664  13.297  0.00  0.00    +0.248 A 
BRANCH  23  24
ATOM     24  C   UNL     1      -3.908 -10.339  12.066  0.00  0.00    +0.039 A 
ATOM     25  C   UNL     1      -5.302 -10.327  12.004  0.00  0.00    +0.015 A 
ATOM     26  C   UNL     1      -3.157 -10.032  10.932  0.00  0.00    +0.015 A 
ATOM     27  C   UNL     1      -5.944 -10.010  10.806  0.00  0.00    +0.024 A 
ATOM     28  C   UNL     1      -3.799  -9.716   9.734  0.00  0.00    +0.024 A 
ATOM     29  C   UNL     1      -5.192  -9.704   9.672  0.00  0.00    +0.029 A 
BRANCH  29   6
ATOM      6  N   UNL     1      -5.841  -9.385   8.461  0.00  0.00    -0.336 N 
ATOM     30  C   UNL     1      -6.973  -8.479   8.451  0.00  0.00    +0.129 C 
ATOM     31  C   UNL     1      -5.391  -9.967   7.212  0.00  0.00    +0.129 C 
ENDBRANCH  29   6
ENDBRANCH  23  24
ENDBRANCH  15  19
ENDBRANCH  10  15
TORSDOF 10
ENDMDL
MODEL 5
REMARK VINA RESULT:      -6.0      3.113      4.204
REMARK  Name = 45783974
REMARK  16 active torsions:
REMARK  status: ('A' for Active; 'I' for Inactive)
REMARK    1  A    between atoms: O_2  and  C_22
REMARK    2  A    between atoms: N_3  and  C_14
REMARK    3  A    between atoms: N_3  and  C_20
REMARK    4  A    between atoms: N_3  and  C_21
REMARK    5  A    between atoms: N_6  and  C_29
REMARK    6  A    between atoms: N_6  and  C_30
REMARK    7  A    between atoms: N_6  and  C_31
REMARK    8  A    between atoms: C_7  and  C_11
REMARK    9  A    between atoms: C_8  and  C_14
REMARK   10  A    between atoms: C_10  and  C_15
REMARK   11  A    between atoms: C_11  and  C_16
REMARK   12  A    between atoms: C_11  and  C_17
REMARK   13  A    between atoms: C_12  and  C_18
REMARK   14  A    between atoms: C_15  and  C_19
REMARK   15  A    between atoms: C_20  and  C_22
REMARK   16  A    between atoms: C_23  and  C_24
REMARK                            x       y       z     vdW  Elec       q    Type
REMARK                         _______ _______ _______ _____ _____    ______ ____
ROOT
ATOM      7  C   UNL     1      15.213   9.436  20.677  0.00  0.00    +0.000 C 
ATOM      8  C   UNL     1      14.238   8.435  20.016  0.00  0.00    +0.029 C 
ATOM      9  C   UNL     1      16.304   8.690  21.458  0.00  0.00    +0.012 C 
ATOM     10  C   UNL     1      17.101   7.692  20.591  0.00  0.00    +0.024 C 
ATOM     12  C   UNL     1      16.231   6.937  19.598  0.00  0.00    -0.073 C 
ATOM     13  C   UNL     1      14.950   7.277  19.364  0.00  0.00    -0.023 C 
ATOM     18  C   UNL     1      16.870   5.814  18.827  0.00  0.00    +0.039 C 
ENDROOT
BRANCH   7  11
ATOM     11  C   UNL     1      15.826  10.388  19.639  0.00  0.00    -0.013 C 
ATOM     16  C   UNL     1      16.598  11.505  20.333  0.00  0.00    +0.007 C 
ATOM     17  C   UNL     1      14.739  10.962  18.736  0.00  0.00    +0.007 C 
ENDBRANCH   7  11
BRANCH   8  14
ATOM     14  C   UNL     1      13.215   7.895  21.020  0.00  0.00    +0.092 C 
BRANCH  14   3
ATOM      3  N   UNL     1      11.971   7.555  20.351  0.00  0.00    -0.303 NA
ATOM     21  C   UNL     1      10.971   7.089  21.316  0.00  0.00    +0.105 C 
BRANCH   3  20
ATOM     20  C   UNL     1      11.450   8.704  19.603  0.00  0.00    +0.112 C 
BRANCH  20  22
ATOM     22  C   UNL     1      11.355   8.381  18.121  0.00  0.00    +0.171 C 
BRANCH  22   2
ATOM      2  O   UNL     1      10.040   8.682  17.671  0.00  0.00    -0.394 OA
ATOM     32  H   UNL     1       9.950   8.305  16.779  0.00  0.00    +0.209 HD
ENDBRANCH  22   2
ENDBRANCH  20  22
ENDBRANCH   3  20
ENDBRANCH  14   3
ENDBRANCH   8  14
BRANCH  10  15
ATOM     15  C   UNL     1      17.892   6.761  21.519  0.00  0.00    +0.105 C 
BRANCH  15  19
ATOM      1  O   UNL     1      20.060   5.644  21.423  0.00  0.00    -0.420 OA
ATOM      4  N   UNL     1      20.096   7.774  20.741  0.00  0.00    -0.112 NA
ATOM      5  N   UNL     1      21.378   7.271  20.634  0.00  0.00    -0.107 NA
ATOM     19  C   UNL     1      19.360   6.791  21.204  0.00  0.00    +0.218 A 
ATOM     23  C   UNL     1      21.310   6.025  21.043  0.00  0.00    +0.248 A 
BRANCH  23  24
ATOM     24  C   UNL     1      22.330   5.022  21.148  0.00  0.00    +0.039 A 
ATOM     25  C   UNL     1      22.083   3.848  21.859  0.00  0.00    +0.015 A 
ATOM     26  C   UNL     1      23.568   5.220  20.537  0.00  0.00    +0.015 A 
ATOM     27  C   UNL     1      23.075   2.872  21.960  0.00  0.00    +0.024 A 
ATOM     28  C   UNL     1      24.560   4.245  20.638  0.00  0.00    +0.024 A 
ATOM     29  C   UNL     1      24.314   3.070  21.350  0.00  0.00    +0.029 A 
BRANCH  29   6
ATOM      6  N   UNL     1      25.317   2.084  21.454  0.00  0.00    -0.336 N 
ATOM     30  C   UNL     1      24.963   0.698  21.683  0.00  0.00    +0.129 C 
ATOM     31  C   UNL     1      26.716   2.447  21.341  0.00  0.00    +0.129 C 
ENDBRANCH  29   6
ENDBRANCH  23  24
ENDBRANCH  15  19
ENDBRANCH  10  15
TORSDOF 10
ENDMDL
MODEL 6
REMARK VINA RESULT:      -6.0     27.198     31.227
REMARK  Name = 45783974
REMARK  16 active torsions:
REMARK  status: ('A' for Active; 'I' for Inactive)
REMARK    1  A    between atoms: O_2  and  C_22
REMARK    2  A    between atoms: N_3  and  C_14
REMARK    3  A    between atoms: N_3  and  C_20
REMARK    4  A    between atoms: N_3  and  C_21
REMARK    5  A    between atoms: N_6  and  C_29
REMARK    6  A    between atoms: N_6  and  C_30
REMARK    7  A    between atoms: N_6  and  C_31
REMARK    8  A    between atoms: C_7  and  C_11
REMARK    9  A    between atoms: C_8  and  C_14
REMARK   10  A    between atoms: C_10  and  C_15
REMARK   11  A    between atoms: C_11  and  C_16
REMARK   12  A    between atoms: C_11  and  C_17
REMARK   13  A    between atoms: C_12  and  C_18
REMARK   14  A    between atoms: C_15  and  C_19
REMARK   15  A    between atoms: C_20  and  C_22
REMARK   16  A    between atoms: C_23  and  C_24
REMARK                            x       y       z     vdW  Elec       q    Type
REMARK                         _______ _______ _______ _____ _____    ______ ____
ROOT
ATOM      7  C   UNL     1      -3.781 -11.987  12.393  0.00  0.00    +0.000 C 
ATOM      8  C   UNL     1      -2.824 -11.391  13.450  0.00  0.00    +0.029 C 
ATOM      9  C   UNL     1      -4.275 -10.892  11.436  0.00  0.00    +0.012 C 
ATOM     10  C   UNL     1      -3.129 -10.139  10.726  0.00  0.00    +0.024 C 
ATOM     12  C   UNL     1      -1.940  -9.870  11.635  0.00  0.00    -0.073 C 
ATOM     13  C   UNL     1      -1.828 -10.429  12.854  0.00  0.00    -0.023 C 
ATOM     18  C   UNL     1      -0.843  -8.989  11.101  0.00  0.00    +0.039 C 
ENDROOT
BRANCH   7  11
ATOM     11  C   UNL     1      -3.119 -13.138  11.624  0.00  0.00    -0.013 C 
ATOM     16  C   UNL     1      -4.110 -13.766  10.650  0.00  0.00    +0.007 C 
ATOM     17  C   UNL     1      -2.578 -14.184  12.594  0.00  0.00    +0.007 C 
ENDBRANCH   7  11
BRANCH   8  14
ATOM     14  C   UNL     1      -3.590 -10.688  14.576  0.00  0.00    +0.092 C 
BRANCH  14   3
ATOM      3  N   UNL     1      -3.200 -11.219  15.870  0.00  0.00    -0.303 NA
ATOM     21  C   UNL     1      -1.868 -10.741  16.251  0.00  0.00    +0.105 C 
BRANCH   3  20
ATOM     20  C   UNL     1      -4.179 -10.853  16.899  0.00  0.00    +0.112 C 
BRANCH  20  22
ATOM     22  C   UNL     1      -4.979 -12.069  17.335  0.00  0.00    +0.171 C 
BRANCH  22   2
ATOM      2  O   UNL     1      -4.094 -13.008  17.934  0.00  0.00    -0.394 OA
ATOM     32  H   UNL     1      -3.195 -12.781  17.639  0.00  0.00    +0.209 HD
ENDBRANCH  22   2
ENDBRANCH  20  22
ENDBRANCH   3  20
ENDBRANCH  14   3
ENDBRANCH   8  14
BRANCH  10  15
ATOM     15  C   UNL     1      -3.699  -8.863  10.095  0.00  0.00    +0.105 C 
BRANCH  15  19
ATOM      1  O   UNL     1      -4.404  -9.897   8.000  0.00  0.00    -0.420 OA
ATOM      4  N   UNL     1      -6.048  -8.862   9.110  0.00  0.00    -0.112 NA
ATOM      5  N   UNL     1      -6.585  -9.397   7.955  0.00  0.00    -0.107 NA
ATOM     19  C   UNL     1      -4.774  -9.178   9.096  0.00  0.00    +0.218 A 
ATOM     23  C   UNL     1      -5.589  -9.991   7.338  0.00  0.00    +0.248 A 
BRANCH  23  24
ATOM     24  C   UNL     1      -5.560 -10.712   6.099  0.00  0.00    +0.039 A 
ATOM     25  C   UNL     1      -6.583 -10.540   5.167  0.00  0.00    +0.015 A 
ATOM     26  C   UNL     1      -4.506 -11.584   5.824  0.00  0.00    +0.015 A 
ATOM     27  C   UNL     1      -6.553 -11.241   3.961  0.00  0.00    +0.024 A 
ATOM     28  C   UNL     1      -4.476 -12.285   4.618  0.00  0.00    +0.024 A 
ATOM     29  C   UNL     1      -5.500 -12.113   3.686  0.00  0.00    +0.029 A 
BRANCH  29   6
ATOM      6  N   UNL     1      -5.471 -12.822   2.468  0.00  0.00    -0.336 N 
ATOM     30  C   UNL     1      -6.705 -13.224   1.822  0.00  0.00    +0.129 C 
ATOM     31  C   UNL     1      -4.206 -13.167   1.849  0.00  0.00    +0.129 C 
ENDBRANCH  29   6
ENDBRANCH  23  24
ENDBRANCH  15  19
ENDBRANCH  10  15
TORSDOF 10
ENDMDL
MODEL 7
REMARK VINA RESULT:      -5.9     27.012     30.625
REMARK  Name = 45783974
REMARK  16 active torsions:
REMARK  status: ('A' for Active; 'I' for Inactive)
REMARK    1  A    between atoms: O_2  and  C_22
REMARK    2  A    between atoms: N_3  and  C_14
REMARK    3  A    between atoms: N_3  and  C_20
REMARK    4  A    between atoms: N_3  and  C_21
REMARK    5  A    between atoms: N_6  and  C_29
REMARK    6  A    between atoms: N_6  and  C_30
REMARK    7  A    between atoms: N_6  and  C_31
REMARK    8  A    between atoms: C_7  and  C_11
REMARK    9  A    between atoms: C_8  and  C_14
REMARK   10  A    between atoms: C_10  and  C_15
REMARK   11  A    between atoms: C_11  and  C_16
REMARK   12  A    between atoms: C_11  and  C_17
REMARK   13  A    between atoms: C_12  and  C_18
REMARK   14  A    between atoms: C_15  and  C_19
REMARK   15  A    between atoms: C_20  and  C_22
REMARK   16  A    between atoms: C_23  and  C_24
REMARK                            x       y       z     vdW  Elec       q    Type
REMARK                         _______ _______ _______ _____ _____    ______ ____
ROOT
ATOM      7  C   UNL     1      -5.402 -11.880  15.365  0.00  0.00    +0.000 C 
ATOM      8  C   UNL     1      -5.110 -10.843  16.474  0.00  0.00    +0.029 C 
ATOM      9  C   UNL     1      -4.635 -11.528  14.083  0.00  0.00    +0.012 C 
ATOM     10  C   UNL     1      -3.109 -11.417  14.295  0.00  0.00    +0.024 C 
ATOM     12  C   UNL     1      -2.737 -10.746  15.608  0.00  0.00    -0.073 C 
ATOM     13  C   UNL     1      -3.649 -10.487  16.565  0.00  0.00    -0.023 C 
ATOM     18  C   UNL     1      -1.286 -10.425  15.838  0.00  0.00    +0.039 C 
ENDROOT
BRANCH   7  11
ATOM     11  C   UNL     1      -5.076 -13.306  15.833  0.00  0.00    -0.013 C 
ATOM     16  C   UNL     1      -5.507 -14.322  14.780  0.00  0.00    +0.007 C 
ATOM     17  C   UNL     1      -5.751 -13.594  17.170  0.00  0.00    +0.007 C 
ENDBRANCH   7  11
BRANCH   8  14
ATOM     14  C   UNL     1      -5.929  -9.563  16.281  0.00  0.00    +0.092 C 
BRANCH  14   3
ATOM      3  N   UNL     1      -7.076  -9.548  17.173  0.00  0.00    -0.303 NA
ATOM     21  C   UNL     1      -8.264 -10.084  16.501  0.00  0.00    +0.105 C 
BRANCH   3  20
ATOM     20  C   UNL     1      -6.799 -10.316  18.391  0.00  0.00    +0.112 C 
BRANCH  20  22
ATOM     22  C   UNL     1      -8.033 -11.087  18.831  0.00  0.00    +0.171 C 
BRANCH  22   2
ATOM      2  O   UNL     1      -8.491 -10.549  20.065  0.00  0.00    -0.394 OA
ATOM     32  H   UNL     1      -9.339 -10.107  19.887  0.00  0.00    +0.209 HD
ENDBRANCH  22   2
ENDBRANCH  20  22
ENDBRANCH   3  20
ENDBRANCH  14   3
ENDBRANCH   8  14
BRANCH  10  15
ATOM     15  C   UNL     1      -2.495 -10.721  13.074  0.00  0.00    +0.105 C 
BRANCH  15  19
ATOM      1  O   UNL     1      -3.808 -10.385  11.045  0.00  0.00    -0.420 OA
ATOM      4  N   UNL     1      -2.974 -12.449  11.266  0.00  0.00    -0.112 NA
ATOM      5  N   UNL     1      -3.689 -12.401  10.083  0.00  0.00    -0.107 NA
ATOM     19  C   UNL     1      -3.071 -11.251  11.793  0.00  0.00    +0.218 A 
ATOM     23  C   UNL     1      -4.158 -11.178   9.996  0.00  0.00    +0.248 A 
BRANCH  23  24
ATOM     24  C   UNL     1      -4.965 -10.561   8.984  0.00  0.00    +0.039 A 
ATOM     25  C   UNL     1      -4.872 -10.989   7.660  0.00  0.00    +0.015 A 
ATOM     26  C   UNL     1      -5.844  -9.533   9.325  0.00  0.00    +0.015 A 
ATOM     27  C   UNL     1      -5.658 -10.389   6.676  0.00  0.00    +0.024 A 
ATOM     28  C   UNL     1      -6.630  -8.933   8.340  0.00  0.00    +0.024 A 
ATOM     29  C   UNL     1      -6.537  -9.361   7.016  0.00  0.00    +0.029 A 
BRANCH  29   6
ATOM      6  N   UNL     1      -7.330  -8.753   6.021  0.00  0.00    -0.336 N 
ATOM     30  C   UNL     1      -8.117  -7.575   6.326  0.00  0.00    +0.129 C 
ATOM     31  C   UNL     1      -7.377  -9.305   4.681  0.00  0.00    +0.129 C 
ENDBRANCH  29   6
ENDBRANCH  23  24
ENDBRANCH  15  19
ENDBRANCH  10  15
TORSDOF 10
ENDMDL
MODEL 8
REMARK VINA RESULT:      -5.9     27.309     29.826
REMARK  Name = 45783974
REMARK  16 active torsions:
REMARK  status: ('A' for Active; 'I' for Inactive)
REMARK    1  A    between atoms: O_2  and  C_22
REMARK    2  A    between atoms: N_3  and  C_14
REMARK    3  A    between atoms: N_3  and  C_20
REMARK    4  A    between atoms: N_3  and  C_21
REMARK    5  A    between atoms: N_6  and  C_29
REMARK    6  A    between atoms: N_6  and  C_30
REMARK    7  A    between atoms: N_6  and  C_31
REMARK    8  A    between atoms: C_7  and  C_11
REMARK    9  A    between atoms: C_8  and  C_14
REMARK   10  A    between atoms: C_10  and  C_15
REMARK   11  A    between atoms: C_11  and  C_16
REMARK   12  A    between atoms: C_11  and  C_17
REMARK   13  A    between atoms: C_12  and  C_18
REMARK   14  A    between atoms: C_15  and  C_19
REMARK   15  A    between atoms: C_20  and  C_22
REMARK   16  A    between atoms: C_23  and  C_24
REMARK                            x       y       z     vdW  Elec       q    Type
REMARK                         _______ _______ _______ _____ _____    ______ ____
ROOT
ATOM      7  C   UNL     1      -3.789  -9.945  11.605  0.00  0.00    +0.000 C 
ATOM      8  C   UNL     1      -4.987 -10.908  11.435  0.00  0.00    +0.029 C 
ATOM      9  C   UNL     1      -2.807 -10.487  12.653  0.00  0.00    +0.012 C 
ATOM     10  C   UNL     1      -2.288 -11.904  12.328  0.00  0.00    +0.024 C 
ATOM     12  C   UNL     1      -3.361 -12.816  11.754  0.00  0.00    -0.073 C 
ATOM     13  C   UNL     1      -4.566 -12.353  11.372  0.00  0.00    -0.023 C 
ATOM     18  C   UNL     1      -3.012 -14.268  11.567  0.00  0.00    +0.039 C 
ENDROOT
BRANCH   7  11
ATOM     11  C   UNL     1      -3.085  -9.689  10.265  0.00  0.00    -0.013 C 
ATOM     16  C   UNL     1      -1.801  -8.894  10.483  0.00  0.00    +0.007 C 
ATOM     17  C   UNL     1      -4.017  -8.957   9.305  0.00  0.00    +0.007 C 
ENDBRANCH   7  11
BRANCH   8  14
ATOM     14  C   UNL     1      -6.016 -10.732  12.556  0.00  0.00    +0.092 C 
BRANCH  14   3
ATOM      3  N   UNL     1      -7.317 -10.386  12.009  0.00  0.00    -0.303 NA
ATOM     21  C   UNL     1      -8.329 -10.331  13.068  0.00  0.00    +0.105 C 
BRANCH   3  20
ATOM     20  C   UNL     1      -7.260  -9.103  11.302  0.00  0.00    +0.112 C 
BRANCH  20  22
ATOM     22  C   UNL     1      -7.993  -9.190   9.973  0.00  0.00    +0.171 C 
BRANCH  22   2
ATOM      2  O   UNL     1      -7.636  -8.065   9.180  0.00  0.00    -0.394 OA
ATOM     32  H   UNL     1      -6.922  -8.350   8.585  0.00  0.00    +0.209 HD
ENDBRANCH  22   2
ENDBRANCH  20  22
ENDBRANCH   3  20
ENDBRANCH  14   3
ENDBRANCH   8  14
BRANCH  10  15
ATOM     15  C   UNL     1      -1.623 -12.482  13.584  0.00  0.00    +0.105 C 
BRANCH  15  19
ATOM      1  O   UNL     1      -3.434 -11.772  15.059  0.00  0.00    -0.420 OA
ATOM      4  N   UNL     1      -1.397 -11.151  15.744  0.00  0.00    -0.112 NA
ATOM      5  N   UNL     1      -2.316 -10.687  16.665  0.00  0.00    -0.107 NA
ATOM     19  C   UNL     1      -2.092 -11.779  14.825  0.00  0.00    +0.218 A 
ATOM     23  C   UNL     1      -3.492 -11.072  16.225  0.00  0.00    +0.248 A 
BRANCH  23  24
ATOM     24  C   UNL     1      -4.802 -10.874  16.773  0.00  0.00    +0.039 A 
ATOM     25  C   UNL     1      -5.660  -9.931  16.207  0.00  0.00    +0.015 A 
ATOM     26  C   UNL     1      -5.220 -11.627  17.870  0.00  0.00    +0.015 A 
ATOM     27  C   UNL     1      -6.935  -9.739  16.740  0.00  0.00    +0.024 A 
ATOM     28  C   UNL     1      -6.495 -11.435  18.403  0.00  0.00    +0.024 A 
ATOM     29  C   UNL     1      -7.353 -10.490  17.837  0.00  0.00    +0.029 A 
BRANCH  29   6
ATOM      6  N   UNL     1      -8.641 -10.295  18.376  0.00  0.00    -0.336 N 
ATOM     30  C   UNL     1      -9.561  -9.361  17.760  0.00  0.00    +0.129 C 
ATOM     31  C   UNL     1      -9.058 -11.021  19.561  0.00  0.00    +0.129 C 
ENDBRANCH  29   6
ENDBRANCH  23  24
ENDBRANCH  15  19
ENDBRANCH  10  15
TORSDOF 10
ENDMDL
MODEL 9
REMARK VINA RESULT:      -5.8     27.001     30.167
REMARK  Name = 45783974
REMARK  16 active torsions:
REMARK  status: ('A' for Active; 'I' for Inactive)
REMARK    1  A    between atoms: O_2  and  C_22
REMARK    2  A    between atoms: N_3  and  C_14
REMARK    3  A    between atoms: N_3  and  C_20
REMARK    4  A    between atoms: N_3  and  C_21
REMARK    5  A    between atoms: N_6  and  C_29
REMARK    6  A    between atoms: N_6  and  C_30
REMARK    7  A    between atoms: N_6  and  C_31
REMARK    8  A    between atoms: C_7  and  C_11
REMARK    9  A    between atoms: C_8  and  C_14
REMARK   10  A    between atoms: C_10  and  C_15
REMARK   11  A    between atoms: C_11  and  C_16
REMARK   12  A    between atoms: C_11  and  C_17
REMARK   13  A    between atoms: C_12  and  C_18
REMARK   14  A    between atoms: C_15  and  C_19
REMARK   15  A    between atoms: C_20  and  C_22
REMARK   16  A    between atoms: C_23  and  C_24
REMARK                            x       y       z     vdW  Elec       q    Type
REMARK                         _______ _______ _______ _____ _____    ______ ____
ROOT
ATOM      7  C   UNL     1      -5.508 -10.619  10.880  0.00  0.00    +0.000 C 
ATOM      8  C   UNL     1      -4.785 -10.396   9.532  0.00  0.00    +0.029 C 
ATOM      9  C   UNL     1      -4.536 -11.188  11.924  0.00  0.00    +0.012 C 
ATOM     10  C   UNL     1      -3.293 -10.300  12.147  0.00  0.00    +0.024 C 
ATOM     12  C   UNL     1      -2.753  -9.696  10.861  0.00  0.00    -0.073 C 
ATOM     13  C   UNL     1      -3.429  -9.759   9.699  0.00  0.00    -0.023 C 
ATOM     18  C   UNL     1      -1.442  -8.960  10.936  0.00  0.00    +0.039 C 
ENDROOT
BRANCH   7  11
ATOM     11  C   UNL     1      -6.168  -9.327  11.382  0.00  0.00    -0.013 C 
ATOM     16  C   UNL     1      -6.790  -9.547  12.757  0.00  0.00    +0.007 C 
ATOM     17  C   UNL     1      -7.217  -8.844  10.385  0.00  0.00    +0.007 C 
ENDBRANCH   7  11
BRANCH   8  14
ATOM     14  C   UNL     1      -4.635 -11.702   8.747  0.00  0.00    +0.092 C 
BRANCH  14   3
ATOM      3  N   UNL     1      -5.496 -11.700   7.577  0.00  0.00    -0.303 NA
ATOM     21  C   UNL     1      -6.898 -11.883   7.963  0.00  0.00    +0.105 C 
BRANCH   3  20
ATOM     20  C   UNL     1      -5.342 -10.455   6.818  0.00  0.00    +0.112 C 
BRANCH  20  22
ATOM     22  C   UNL     1      -6.700  -9.878   6.454  0.00  0.00    +0.171 C 
BRANCH  22   2
ATOM      2  O   UNL     1      -6.725  -8.504   6.818  0.00  0.00    -0.394 OA
ATOM     32  H   UNL     1      -6.784  -8.466   7.789  0.00  0.00    +0.209 HD
ENDBRANCH  22   2
ENDBRANCH  20  22
ENDBRANCH   3  20
ENDBRANCH  14   3
ENDBRANCH   8  14
BRANCH  10  15
ATOM     15  C   UNL     1      -2.242 -11.115  12.912  0.00  0.00    +0.105 C 
BRANCH  15  19
ATOM      1  O   UNL     1      -3.700 -11.273  14.862  0.00  0.00    -0.420 OA
ATOM      4  N   UNL     1      -1.585 -10.720  15.341  0.00  0.00    -0.112 NA
ATOM      5  N   UNL     1      -2.291 -10.773  16.528  0.00  0.00    -0.107 NA
ATOM     19  C   UNL     1      -2.446 -11.019  14.396  0.00  0.00    +0.218 A 
ATOM     23  C   UNL     1      -3.520 -11.099  16.200  0.00  0.00    +0.248 A 
BRANCH  23  24
ATOM     24  C   UNL     1      -4.680 -11.297  17.019  0.00  0.00    +0.039 A 
ATOM     25  C   UNL     1      -4.535 -11.663  18.358  0.00  0.00    +0.015 A 
ATOM     26  C   UNL     1      -5.954 -11.122  16.479  0.00  0.00    +0.015 A 
ATOM     27  C   UNL     1      -5.664 -11.855  19.155  0.00  0.00    +0.024 A 
ATOM     28  C   UNL     1      -7.083 -11.314  17.276  0.00  0.00    +0.024 A 
ATOM     29  C   UNL     1      -6.938 -11.681  18.614  0.00  0.00    +0.029 A 
BRANCH  29   6
ATOM      6  N   UNL     1      -8.078 -11.876  19.420  0.00  0.00    -0.336 N 
ATOM     30  C   UNL     1      -8.229 -13.090  20.197  0.00  0.00    +0.129 C 
ATOM     31  C   UNL     1      -9.120 -10.869  19.473  0.00  0.00    +0.129 C 
ENDBRANCH  29   6
ENDBRANCH  23  24
ENDBRANCH  15  19
ENDBRANCH  10  15
TORSDOF 10
ENDMDL
MODEL 10
REMARK VINA RESULT:      -5.8     26.777     29.167
REMARK  Name = 45783974
REMARK  16 active torsions:
REMARK  status: ('A' for Active; 'I' for Inactive)
REMARK    1  A    between atoms: O_2  and  C_22
REMARK    2  A    between atoms: N_3  and  C_14
REMARK    3  A    between atoms: N_3  and  C_20
REMARK    4  A    between atoms: N_3  and  C_21
REMARK    5  A    between atoms: N_6  and  C_29
REMARK    6  A    between atoms: N_6  and  C_30
REMARK    7  A    between atoms: N_6  and  C_31
REMARK    8  A    between atoms: C_7  and  C_11
REMARK    9  A    between atoms: C_8  and  C_14
REMARK   10  A    between atoms: C_10  and  C_15
REMARK   11  A    between atoms: C_11  and  C_16
REMARK   12  A    between atoms: C_11  and  C_17
REMARK   13  A    between atoms: C_12  and  C_18
REMARK   14  A    between atoms: C_15  and  C_19
REMARK   15  A    between atoms: C_20  and  C_22
REMARK   16  A    between atoms: C_23  and  C_24
REMARK                            x       y       z     vdW  Elec       q    Type
REMARK                         _______ _______ _______ _____ _____    ______ ____
ROOT
ATOM      7  C   UNL     1     -11.359  10.912  16.793  0.00  0.00    +0.000 C 
ATOM      8  C   UNL     1     -10.578   9.747  16.143  0.00  0.00    +0.029 C 
ATOM      9  C   UNL     1     -12.692  10.413  17.368  0.00  0.00    +0.012 C 
ATOM     10  C   UNL     1     -12.524   9.271  18.394  0.00  0.00    +0.024 C 
ATOM     12  C   UNL     1     -11.447   8.271  18.002  0.00  0.00    -0.073 C 
ATOM     13  C   UNL     1     -10.594   8.497  16.985  0.00  0.00    -0.023 C 
ATOM     18  C   UNL     1     -11.320   7.024  18.835  0.00  0.00    +0.039 C 
ENDROOT
BRANCH   7  11
ATOM     11  C   UNL     1     -10.519  11.617  17.868  0.00  0.00    -0.013 C 
ATOM     16  C   UNL     1     -11.386  12.581  18.672  0.00  0.00    +0.007 C 
ATOM     17  C   UNL     1      -9.344  12.350  17.230  0.00  0.00    +0.007 C 
ENDBRANCH   7  11
BRANCH   8  14
ATOM     14  C   UNL     1     -11.111   9.419  14.745  0.00  0.00    +0.092 C 
BRANCH  14   3
ATOM      3  N   UNL     1     -11.386   7.998  14.621  0.00  0.00    -0.303 NA
ATOM     21  C   UNL     1     -12.705   7.772  14.022  0.00  0.00    +0.105 C 
BRANCH   3  20
ATOM     20  C   UNL     1     -10.351   7.335  13.821  0.00  0.00    +0.112 C 
BRANCH  20  22
ATOM     22  C   UNL     1     -10.261   7.959  12.438  0.00  0.00    +0.171 C 
BRANCH  22   2
ATOM      2  O   UNL     1      -8.988   7.655  11.883  0.00  0.00    -0.394 OA
ATOM     32  H   UNL     1      -8.992   6.709  11.658  0.00  0.00    +0.209 HD
ENDBRANCH  22   2
ENDBRANCH  20  22
ENDBRANCH   3  20
ENDBRANCH  14   3
ENDBRANCH   8  14
BRANCH  10  15
ATOM     15  C   UNL     1     -13.892   8.615  18.623  0.00  0.00    +0.105 C 
BRANCH  15  19
ATOM      1  O   UNL     1     -13.573   9.462  20.890  0.00  0.00    -0.420 OA
ATOM      4  N   UNL     1     -15.164   7.898  20.710  0.00  0.00    -0.112 NA
ATOM      5  N   UNL     1     -15.092   8.284  22.036  0.00  0.00    -0.107 NA
ATOM     19  C   UNL     1     -14.261   8.611  20.079  0.00  0.00    +0.218 A 
ATOM     23  C   UNL     1     -14.151   9.197  22.094  0.00  0.00    +0.248 A 
BRANCH  23  24
ATOM     24  C   UNL     1     -13.648   9.946  23.208  0.00  0.00    +0.039 A 
ATOM     25  C   UNL     1     -12.534  10.771  23.049  0.00  0.00    +0.015 A 
ATOM     26  C   UNL     1     -14.274   9.852  24.451  0.00  0.00    +0.015 A 
ATOM     27  C   UNL     1     -12.046  11.500  24.134  0.00  0.00    +0.024 A 
ATOM     28  C   UNL     1     -13.785  10.582  25.536  0.00  0.00    +0.024 A 
ATOM     29  C   UNL     1     -12.671  11.406  25.376  0.00  0.00    +0.029 A 
BRANCH  29   6
ATOM      6  N   UNL     1     -12.176  12.142  26.473  0.00  0.00    -0.336 N 
ATOM     30  C   UNL     1     -12.442  13.563  26.583  0.00  0.00    +0.129 C 
ATOM     31  C   UNL     1     -11.388  11.490  27.499  0.00  0.00    +0.129 C 
ENDBRANCH  29   6
ENDBRANCH  23  24
ENDBRANCH  15  19
ENDBRANCH  10  15
TORSDOF 10
ENDMDL
