REMARK  Name = 11913299
REMARK  8 active torsions:
REMARK  status: ('A' for Active; 'I' for Inactive)
REMARK    1  A    between atoms: O_5  and  C_26
REMARK    2  A    between atoms: N_7  and  C_13
REMARK    3  A    between atoms: N_8  and  C_14
REMARK    4  A    between atoms: C_17  and  C_19
REMARK    5  A    between atoms: C_19  and  C_20
REMARK    6  A    between atoms: C_20  and  C_21
REMARK    7  A    between atoms: C_21  and  C_26
REMARK    8  A    between atoms: C_22  and  C_25
REMARK                            x       y       z     vdW  Elec       q    Type
REMARK                         _______ _______ _______ _____ _____    ______ ____
ROOT
ATOM      1  O   UNL     1       0.208   0.848   1.724  0.00  0.00    -0.370 OA
ATOM      2  O   UNL     1       0.048   3.559   0.187  0.00  0.00    -0.370 OA
ATOM     11  C   UNL     1      -0.435   2.235  -0.099  0.00  0.00    +0.171 C 
ATOM     12  C   UNL     1       0.608   1.256   0.405  0.00  0.00    +0.171 C 
ATOM     13  C   UNL     1      -1.658   1.931   0.736  0.00  0.00    +0.130 C 
ATOM     14  C   UNL     1       1.878   2.071   0.471  0.00  0.00    +0.130 C 
ATOM     15  C   UNL     1      -1.050   1.460   2.045  0.00  0.00    +0.185 C 
ATOM     16  C   UNL     1       1.362   3.469   0.757  0.00  0.00    +0.185 C 
ENDROOT
BRANCH  14   8
ATOM      8  N   UNL     1       2.554   2.039  -0.807  0.00  0.00    -0.306 N 
ATOM      9  N   UNL     1       3.628   0.044  -0.296  0.00  0.00    -0.211 NA
ATOM     10  N   UNL     1       3.973   1.144  -2.413  0.00  0.00    -0.223 NA
ATOM     18  C   UNL     1       3.423   1.032  -1.188  0.00  0.00    +0.216 A 
ATOM     22  C   UNL     1       4.479  -0.921  -0.701  0.00  0.00    +0.111 A 
ATOM     23  C   UNL     1       4.814   0.145  -2.752  0.00  0.00    +0.116 A 
ATOM     24  C   UNL     1       5.107  -0.924  -1.930  0.00  0.00    +0.051 A 
ATOM     31  H   UNL     1       2.356   2.758  -1.494  0.00  0.00    +0.149 HD
BRANCH  22  25
ATOM      4  O   UNL     1       4.015  -1.847   1.425  0.00  0.00    -0.461 OA
ATOM     25  C   UNL     1       4.695  -1.974   0.256  0.00  0.00    +0.153 A 
ATOM     27  C   UNL     1       5.458  -3.118   0.262  0.00  0.00    +0.051 A 
ATOM     28  C   UNL     1       5.232  -3.734   1.516  0.00  0.00    +0.042 A 
ATOM     29  C   UNL     1       4.347  -2.922   2.187  0.00  0.00    +0.196 A 
ENDBRANCH  22  25
ENDBRANCH  14   8
BRANCH  13   7
ATOM      3  O   UNL     1      -4.475   1.512   1.100  0.00  0.00    -0.276 OA
ATOM      7  N   UNL     1      -2.459   0.895   0.129  0.00  0.00    -0.308 N 
ATOM     17  C   UNL     1      -3.821   0.774   0.368  0.00  0.00    +0.213 C 
ATOM     30  H   UNL     1      -1.996   0.199  -0.448  0.00  0.00    +0.149 HD
BRANCH  17  19
ATOM     19  C   UNL     1      -4.418  -0.414  -0.368  0.00  0.00    +0.096 C 
BRANCH  19  20
ATOM     20  C   UNL     1      -5.918  -0.590  -0.137  0.00  0.00    +0.020 C 
BRANCH  20  21
ATOM     21  C   UNL     1      -6.489  -1.787  -0.900  0.00  0.00    +0.121 C 
BRANCH  21  26
ATOM      6  O   UNL     1      -8.668  -1.209   0.018  0.00  0.00    -0.251 OA
ATOM     26  C   UNL     1      -7.974  -1.946  -0.668  0.00  0.00    +0.305 C 
BRANCH  26   5
ATOM      5  O   UNL     1      -8.466  -3.029  -1.326  0.00  0.00    -0.481 OA
ATOM     32  H   UNL     1      -9.430  -3.137  -1.181  0.00  0.00    +0.295 HD
ENDBRANCH  26   5
ENDBRANCH  21  26
ENDBRANCH  20  21
ENDBRANCH  19  20
ENDBRANCH  17  19
ENDBRANCH  13   7
TORSDOF 8
