MODEL 1
REMARK VINA RESULT:      -6.4      0.000      0.000
REMARK  Name = 11912177
REMARK  10 active torsions:
REMARK  status: ('A' for Active; 'I' for Inactive)
REMARK    1  A    between atoms: O_3  and  C_24
REMARK    2  A    between atoms: O_3  and  C_27
REMARK    3  A    between atoms: N_5  and  C_18
REMARK    4  A    between atoms: N_5  and  C_19
REMARK    5  A    between atoms: N_6  and  C_20
REMARK    6  A    between atoms: C_8  and  C_14
REMARK    7  A    between atoms: C_9  and  C_13
REMARK    8  A    between atoms: C_13  and  C_15
REMARK    9  A    between atoms: C_14  and  C_16
REMARK   10  A    between atoms: C_18  and  C_23
REMARK                            x       y       z     vdW  Elec       q    Type
REMARK                         _______ _______ _______ _____ _____    ______ ____
ROOT
ATOM      2  O   UNL     1      10.232   9.271  22.401  0.00  0.00    -0.252 OA
ATOM      4  N   UNL     1      12.427   8.692  21.967  0.00  0.00    -0.285 N 
ATOM      6  N   UNL     1      11.923  10.384  23.532  0.00  0.00    -0.269 N 
ATOM      8  C   UNL     1      14.222   8.138  19.765  0.00  0.00    +0.004 C 
ATOM      9  C   UNL     1      14.603   9.155  20.873  0.00  0.00    +0.010 C 
ATOM     10  C   UNL     1      12.695   7.987  19.627  0.00  0.00    +0.023 C 
ATOM     11  C   UNL     1      13.879   8.788  22.179  0.00  0.00    +0.113 C 
ATOM     12  C   UNL     1      12.037   7.690  20.974  0.00  0.00    +0.109 C 
ATOM     17  C   UNL     1      11.431   9.439  22.633  0.00  0.00    +0.306 C 
ATOM     28  H   UNL     1      12.811  10.203  23.986  0.00  0.00    +0.156 HD
ENDROOT
BRANCH   6  20
ATOM     20  C   UNL     1      11.328  11.618  23.894  0.00  0.00    +0.038 A 
ATOM     21  C   UNL     1      10.931  12.518  22.905  0.00  0.00    +0.069 A 
ATOM     22  C   UNL     1      11.139  11.933  25.240  0.00  0.00    +0.023 A 
ATOM     24  C   UNL     1      10.344  13.732  23.260  0.00  0.00    +0.122 A 
ATOM     25  C   UNL     1      10.552  13.147  25.597  0.00  0.00    +0.005 A 
ATOM     26  C   UNL     1      10.155  14.047  24.606  0.00  0.00    +0.046 A 
BRANCH  24   3
ATOM      3  O   UNL     1       9.955  14.610  22.295  0.00  0.00    -0.495 OA
ATOM     27  C   UNL     1      10.623  14.528  21.037  0.00  0.00    +0.277 C 
ENDBRANCH  24   3
ENDBRANCH   6  20
BRANCH   9  13
ATOM     13  C   UNL     1      14.329  10.617  20.500  0.00  0.00    +0.002 C 
ATOM     15  C   UNL     1      14.735  11.552  21.620  0.00  0.00    +0.004 C 
ENDBRANCH   9  13
BRANCH   8  14
ATOM     14  C   UNL     1      14.855   8.458  18.412  0.00  0.00    +0.100 C 
BRANCH  14  16
ATOM      1  O   UNL     1      13.555   7.183  16.853  0.00  0.00    -0.276 OA
ATOM      5  N   UNL     1      13.377   9.492  16.719  0.00  0.00    -0.291 N 
ATOM     16  C   UNL     1      13.875   8.302  17.262  0.00  0.00    +0.216 C 
ATOM     19  C   UNL     1      13.770  10.803  17.219  0.00  0.00    +0.133 C 
BRANCH   5  18
ATOM     18  C   UNL     1      12.425   9.509  15.611  0.00  0.00    +0.226 C 
BRANCH  18  23
ATOM      7  N   UNL     1      10.172   8.354  16.295  0.00  0.00    -0.195 NA
ATOM     23  C   UNL     1      11.169   8.867  15.993  0.00  0.00    +0.082 C 
ENDBRANCH  18  23
ENDBRANCH   5  18
ENDBRANCH  14  16
ENDBRANCH   8  14
TORSDOF 7
ENDMDL
MODEL 2
REMARK VINA RESULT:      -6.1     27.988     29.935
REMARK  Name = 11912177
REMARK  10 active torsions:
REMARK  status: ('A' for Active; 'I' for Inactive)
REMARK    1  A    between atoms: O_3  and  C_24
REMARK    2  A    between atoms: O_3  and  C_27
REMARK    3  A    between atoms: N_5  and  C_18
REMARK    4  A    between atoms: N_5  and  C_19
REMARK    5  A    between atoms: N_6  and  C_20
REMARK    6  A    between atoms: C_8  and  C_14
REMARK    7  A    between atoms: C_9  and  C_13
REMARK    8  A    between atoms: C_13  and  C_15
REMARK    9  A    between atoms: C_14  and  C_16
REMARK   10  A    between atoms: C_18  and  C_23
REMARK                            x       y       z     vdW  Elec       q    Type
REMARK                         _______ _______ _______ _____ _____    ______ ____
ROOT
ATOM      2  O   UNL     1     -16.564   6.393  32.528  0.00  0.00    -0.252 OA
ATOM      4  N   UNL     1     -16.145   4.137  32.252  0.00  0.00    -0.285 N 
ATOM      6  N   UNL     1     -14.693   5.474  33.544  0.00  0.00    -0.269 N 
ATOM      8  C   UNL     1     -16.083   2.087  30.210  0.00  0.00    +0.004 C 
ATOM      9  C   UNL     1     -14.885   2.295  31.174  0.00  0.00    +0.010 C 
ATOM     10  C   UNL     1     -16.914   3.373  30.046  0.00  0.00    +0.023 C 
ATOM     11  C   UNL     1     -15.387   2.901  32.495  0.00  0.00    +0.113 C 
ATOM     12  C   UNL     1     -17.320   3.955  31.399  0.00  0.00    +0.109 C 
ATOM     17  C   UNL     1     -15.852   5.416  32.773  0.00  0.00    +0.306 C 
ATOM     28  H   UNL     1     -14.405   4.643  34.049  0.00  0.00    +0.156 HD
ENDROOT
BRANCH   6  20
ATOM     20  C   UNL     1     -13.823   6.580  33.708  0.00  0.00    +0.038 A 
ATOM     21  C   UNL     1     -13.222   7.166  32.594  0.00  0.00    +0.069 A 
ATOM     22  C   UNL     1     -13.568   7.085  34.984  0.00  0.00    +0.023 A 
ATOM     24  C   UNL     1     -12.366   8.256  32.755  0.00  0.00    +0.122 A 
ATOM     25  C   UNL     1     -12.713   8.174  35.146  0.00  0.00    +0.005 A 
ATOM     26  C   UNL     1     -12.112   8.759  34.031  0.00  0.00    +0.046 A 
BRANCH  24   3
ATOM      3  O   UNL     1     -11.781   8.829  31.668  0.00  0.00    -0.495 OA
ATOM     27  C   UNL     1     -11.446  10.212  31.765  0.00  0.00    +0.277 C 
ENDBRANCH  24   3
ENDBRANCH   6  20
BRANCH   9  13
ATOM     13  C   UNL     1     -13.752   3.146  30.590  0.00  0.00    +0.002 C 
ATOM     15  C   UNL     1     -12.705   3.457  31.638  0.00  0.00    +0.004 C 
ENDBRANCH   9  13
BRANCH   8  14
ATOM     14  C   UNL     1     -15.668   1.536  28.847  0.00  0.00    +0.100 C 
BRANCH  14  16
ATOM      1  O   UNL     1     -17.607   0.203  28.393  0.00  0.00    -0.276 OA
ATOM      5  N   UNL     1     -17.039   1.795  26.804  0.00  0.00    -0.291 N 
ATOM     16  C   UNL     1     -16.859   1.107  28.009  0.00  0.00    +0.216 C 
ATOM     19  C   UNL     1     -16.142   2.859  26.371  0.00  0.00    +0.133 C 
BRANCH   5  18
ATOM     18  C   UNL     1     -18.139   1.499  25.889  0.00  0.00    +0.226 C 
BRANCH  18  23
ATOM      7  N   UNL     1     -17.478  -0.408  24.214  0.00  0.00    -0.195 NA
ATOM     23  C   UNL     1     -17.769   0.437  24.957  0.00  0.00    +0.082 C 
ENDBRANCH  18  23
ENDBRANCH   5  18
ENDBRANCH  14  16
ENDBRANCH   8  14
TORSDOF 7
ENDMDL
MODEL 3
REMARK VINA RESULT:      -6.0     11.533     15.693
REMARK  Name = 11912177
REMARK  10 active torsions:
REMARK  status: ('A' for Active; 'I' for Inactive)
REMARK    1  A    between atoms: O_3  and  C_24
REMARK    2  A    between atoms: O_3  and  C_27
REMARK    3  A    between atoms: N_5  and  C_18
REMARK    4  A    between atoms: N_5  and  C_19
REMARK    5  A    between atoms: N_6  and  C_20
REMARK    6  A    between atoms: C_8  and  C_14
REMARK    7  A    between atoms: C_9  and  C_13
REMARK    8  A    between atoms: C_13  and  C_15
REMARK    9  A    between atoms: C_14  and  C_16
REMARK   10  A    between atoms: C_18  and  C_23
REMARK                            x       y       z     vdW  Elec       q    Type
REMARK                         _______ _______ _______ _____ _____    ______ ____
ROOT
ATOM      2  O   UNL     1       8.557   7.495   8.292  0.00  0.00    -0.252 OA
ATOM      4  N   UNL     1      10.255   6.777   6.899  0.00  0.00    -0.285 N 
ATOM      6  N   UNL     1      10.317   8.938   7.843  0.00  0.00    -0.269 N 
ATOM      8  C   UNL     1      10.685   5.418   4.380  0.00  0.00    +0.004 C 
ATOM      9  C   UNL     1      11.373   6.775   4.687  0.00  0.00    +0.010 C 
ATOM     10  C   UNL     1       9.387   5.240   5.188  0.00  0.00    +0.023 C 
ATOM     11  C   UNL     1      11.543   6.933   6.206  0.00  0.00    +0.113 C 
ATOM     12  C   UNL     1       9.617   5.478   6.680  0.00  0.00    +0.109 C 
ATOM     17  C   UNL     1       9.632   7.728   7.735  0.00  0.00    +0.306 C 
ATOM     28  H   UNL     1      11.325   8.934   7.743  0.00  0.00    +0.156 HD
ENDROOT
BRANCH   6  20
ATOM     20  C   UNL     1       9.762  10.222   8.068  0.00  0.00    +0.038 A 
ATOM     21  C   UNL     1       9.600  10.694   9.370  0.00  0.00    +0.069 A 
ATOM     22  C   UNL     1       9.379  11.016   6.986  0.00  0.00    +0.023 A 
ATOM     24  C   UNL     1       9.055  11.959   9.592  0.00  0.00    +0.122 A 
ATOM     25  C   UNL     1       8.834  12.281   7.206  0.00  0.00    +0.005 A 
ATOM     26  C   UNL     1       8.672  12.752   8.510  0.00  0.00    +0.046 A 
BRANCH  24   3
ATOM      3  O   UNL     1       8.898  12.420  10.863  0.00  0.00    -0.495 OA
ATOM     27  C   UNL     1       9.860  12.000  11.829  0.00  0.00    +0.277 C 
ENDBRANCH  24   3
ENDBRANCH   6  20
BRANCH   9  13
ATOM     13  C   UNL     1      10.648   7.991   4.098  0.00  0.00    +0.002 C 
ATOM     15  C   UNL     1      11.413   9.268   4.373  0.00  0.00    +0.004 C 
ENDBRANCH   9  13
BRANCH   8  14
ATOM     14  C   UNL     1      10.426   5.199   2.890  0.00  0.00    +0.100 C 
BRANCH  14  16
ATOM      1  O   UNL     1      11.291   2.968   2.754  0.00  0.00    -0.276 OA
ATOM      5  N   UNL     1      12.129   4.507   1.234  0.00  0.00    -0.291 N 
ATOM     16  C   UNL     1      11.312   4.116   2.301  0.00  0.00    +0.216 C 
ATOM     19  C   UNL     1      12.136   5.869   0.715  0.00  0.00    +0.133 C 
BRANCH   5  18
ATOM     18  C   UNL     1      13.036   3.581   0.560  0.00  0.00    +0.226 C 
BRANCH  18  23
ATOM      7  N   UNL     1      15.260   3.298   1.921  0.00  0.00    -0.195 NA
ATOM     23  C   UNL     1      14.274   3.421   1.320  0.00  0.00    +0.082 C 
ENDBRANCH  18  23
ENDBRANCH   5  18
ENDBRANCH  14  16
ENDBRANCH   8  14
TORSDOF 7
ENDMDL
MODEL 4
REMARK VINA RESULT:      -5.9     26.985     29.306
REMARK  Name = 11912177
REMARK  10 active torsions:
REMARK  status: ('A' for Active; 'I' for Inactive)
REMARK    1  A    between atoms: O_3  and  C_24
REMARK    2  A    between atoms: O_3  and  C_27
REMARK    3  A    between atoms: N_5  and  C_18
REMARK    4  A    between atoms: N_5  and  C_19
REMARK    5  A    between atoms: N_6  and  C_20
REMARK    6  A    between atoms: C_8  and  C_14
REMARK    7  A    between atoms: C_9  and  C_13
REMARK    8  A    between atoms: C_13  and  C_15
REMARK    9  A    between atoms: C_14  and  C_16
REMARK   10  A    between atoms: C_18  and  C_23
REMARK                            x       y       z     vdW  Elec       q    Type
REMARK                         _______ _______ _______ _____ _____    ______ ____
ROOT
ATOM      2  O   UNL     1      -2.404 -10.835  15.394  0.00  0.00    -0.252 OA
ATOM      4  N   UNL     1      -4.415 -11.686  16.150  0.00  0.00    -0.285 N 
ATOM      6  N   UNL     1      -4.007 -11.457  13.838  0.00  0.00    -0.269 N 
ATOM      8  C   UNL     1      -6.475 -11.193  18.122  0.00  0.00    +0.004 C 
ATOM      9  C   UNL     1      -6.832 -11.405  16.627  0.00  0.00    +0.010 C 
ATOM     10  C   UNL     1      -5.039 -10.667  18.299  0.00  0.00    +0.023 C 
ATOM     11  C   UNL     1      -5.751 -12.271  15.959  0.00  0.00    +0.113 C 
ATOM     12  C   UNL     1      -4.027 -11.537  17.554  0.00  0.00    +0.109 C 
ATOM     17  C   UNL     1      -3.516 -11.299  15.133  0.00  0.00    +0.306 C 
ATOM     28  H   UNL     1      -4.685 -12.190  13.664  0.00  0.00    +0.156 HD
ENDROOT
BRANCH   6  20
ATOM     20  C   UNL     1      -3.680 -10.687  12.695  0.00  0.00    +0.038 A 
ATOM     21  C   UNL     1      -4.667  -9.943  12.049  0.00  0.00    +0.069 A 
ATOM     22  C   UNL     1      -2.370 -10.673  12.215  0.00  0.00    +0.023 A 
ATOM     24  C   UNL     1      -4.345  -9.185  10.923  0.00  0.00    +0.122 A 
ATOM     25  C   UNL     1      -2.047  -9.915  11.089  0.00  0.00    +0.005 A 
ATOM     26  C   UNL     1      -3.036  -9.171  10.444  0.00  0.00    +0.046 A 
BRANCH  24   3
ATOM      3  O   UNL     1      -5.309  -8.458  10.294  0.00  0.00    -0.495 OA
ATOM     27  C   UNL     1      -6.433  -9.173   9.784  0.00  0.00    +0.277 C 
ENDBRANCH  24   3
ENDBRANCH   6  20
BRANCH   9  13
ATOM     13  C   UNL     1      -7.037 -10.104  15.842  0.00  0.00    +0.002 C 
ATOM     15  C   UNL     1      -7.525 -10.386  14.437  0.00  0.00    +0.004 C 
ENDBRANCH   9  13
BRANCH   8  14
ATOM     14  C   UNL     1      -7.471 -10.294  18.855  0.00  0.00    +0.100 C 
BRANCH  14  16
ATOM      1  O   UNL     1      -8.625 -11.995  20.088  0.00  0.00    -0.276 OA
ATOM      5  N   UNL     1      -9.925 -10.598  18.771  0.00  0.00    -0.291 N 
ATOM     16  C   UNL     1      -8.711 -11.048  19.302  0.00  0.00    +0.216 C 
ATOM     19  C   UNL     1     -10.003  -9.476  17.844  0.00  0.00    +0.133 C 
BRANCH   5  18
ATOM     18  C   UNL     1     -11.205 -11.217  19.105  0.00  0.00    +0.226 C 
BRANCH  18  23
ATOM      7  N   UNL     1     -12.527  -9.760  20.838  0.00  0.00    -0.195 NA
ATOM     23  C   UNL     1     -11.940 -10.405  20.072  0.00  0.00    +0.082 C 
ENDBRANCH  18  23
ENDBRANCH   5  18
ENDBRANCH  14  16
ENDBRANCH   8  14
TORSDOF 7
ENDMDL
MODEL 5
REMARK VINA RESULT:      -5.8     26.471     29.132
REMARK  Name = 11912177
REMARK  10 active torsions:
REMARK  status: ('A' for Active; 'I' for Inactive)
REMARK    1  A    between atoms: O_3  and  C_24
REMARK    2  A    between atoms: O_3  and  C_27
REMARK    3  A    between atoms: N_5  and  C_18
REMARK    4  A    between atoms: N_5  and  C_19
REMARK    5  A    between atoms: N_6  and  C_20
REMARK    6  A    between atoms: C_8  and  C_14
REMARK    7  A    between atoms: C_9  and  C_13
REMARK    8  A    between atoms: C_13  and  C_15
REMARK    9  A    between atoms: C_14  and  C_16
REMARK   10  A    between atoms: C_18  and  C_23
REMARK                            x       y       z     vdW  Elec       q    Type
REMARK                         _______ _______ _______ _____ _____    ______ ____
ROOT
ATOM      2  O   UNL     1      -3.092 -12.855  11.567  0.00  0.00    -0.252 OA
ATOM      4  N   UNL     1      -3.669 -11.244  10.013  0.00  0.00    -0.285 N 
ATOM      6  N   UNL     1      -2.888 -10.619  12.150  0.00  0.00    -0.269 N 
ATOM      8  C   UNL     1      -5.746 -10.589   8.106  0.00  0.00    +0.004 C 
ATOM      9  C   UNL     1      -5.263  -9.551   9.154  0.00  0.00    +0.010 C 
ATOM     10  C   UNL     1      -5.503 -12.034   8.580  0.00  0.00    +0.023 C 
ATOM     11  C   UNL     1      -3.808  -9.856   9.547  0.00  0.00    +0.113 C 
ATOM     12  C   UNL     1      -4.055 -12.245   9.018  0.00  0.00    +0.109 C 
ATOM     17  C   UNL     1      -3.194 -11.661  11.275  0.00  0.00    +0.306 C 
ATOM     28  H   UNL     1      -2.584  -9.734  11.760  0.00  0.00    +0.156 HD
ENDROOT
BRANCH   6  20
ATOM     20  C   UNL     1      -2.964 -10.634  13.565  0.00  0.00    +0.038 A 
ATOM     21  C   UNL     1      -4.206 -10.717  14.195  0.00  0.00    +0.069 A 
ATOM     22  C   UNL     1      -1.798 -10.567  14.327  0.00  0.00    +0.023 A 
ATOM     24  C   UNL     1      -4.281 -10.732  15.588  0.00  0.00    +0.122 A 
ATOM     25  C   UNL     1      -1.872 -10.582  15.720  0.00  0.00    +0.005 A 
ATOM     26  C   UNL     1      -3.115 -10.664  16.350  0.00  0.00    +0.046 A 
BRANCH  24   3
ATOM      3  O   UNL     1      -5.492 -10.813  16.204  0.00  0.00    -0.495 OA
ATOM     27  C   UNL     1      -6.253  -9.610  16.301  0.00  0.00    +0.277 C 
ENDBRANCH  24   3
ENDBRANCH   6  20
BRANCH   9  13
ATOM     13  C   UNL     1      -6.149  -9.463  10.401  0.00  0.00    +0.002 C 
ATOM     15  C   UNL     1      -5.592  -8.469  11.399  0.00  0.00    +0.004 C 
ENDBRANCH   9  13
BRANCH   8  14
ATOM     14  C   UNL     1      -7.205 -10.394   7.696  0.00  0.00    +0.100 C 
BRANCH  14  16
ATOM      1  O   UNL     1      -6.764  -8.995   5.801  0.00  0.00    -0.276 OA
ATOM      5  N   UNL     1      -8.349  -8.234   7.315  0.00  0.00    -0.291 N 
ATOM     16  C   UNL     1      -7.406  -9.154   6.843  0.00  0.00    +0.216 C 
ATOM     19  C   UNL     1      -9.094  -8.444   8.549  0.00  0.00    +0.133 C 
BRANCH   5  18
ATOM     18  C   UNL     1      -8.656  -6.994   6.607  0.00  0.00    +0.226 C 
BRANCH  18  23
ATOM      7  N   UNL     1     -10.826  -7.258   5.159  0.00  0.00    -0.195 NA
ATOM     23  C   UNL     1      -9.864  -7.142   5.798  0.00  0.00    +0.082 C 
ENDBRANCH  18  23
ENDBRANCH   5  18
ENDBRANCH  14  16
ENDBRANCH   8  14
TORSDOF 7
ENDMDL
MODEL 6
REMARK VINA RESULT:      -5.7     14.926     20.823
REMARK  Name = 11912177
REMARK  10 active torsions:
REMARK  status: ('A' for Active; 'I' for Inactive)
REMARK    1  A    between atoms: O_3  and  C_24
REMARK    2  A    between atoms: O_3  and  C_27
REMARK    3  A    between atoms: N_5  and  C_18
REMARK    4  A    between atoms: N_5  and  C_19
REMARK    5  A    between atoms: N_6  and  C_20
REMARK    6  A    between atoms: C_8  and  C_14
REMARK    7  A    between atoms: C_9  and  C_13
REMARK    8  A    between atoms: C_13  and  C_15
REMARK    9  A    between atoms: C_14  and  C_16
REMARK   10  A    between atoms: C_18  and  C_23
REMARK                            x       y       z     vdW  Elec       q    Type
REMARK                         _______ _______ _______ _____ _____    ______ ____
ROOT
ATOM      2  O   UNL     1      10.128   7.293  -0.813  0.00  0.00    -0.252 OA
ATOM      4  N   UNL     1      10.753   7.278   1.412  0.00  0.00    -0.285 N 
ATOM      6  N   UNL     1      11.941   5.995  -0.172  0.00  0.00    -0.269 N 
ATOM      8  C   UNL     1       9.629   7.075   4.071  0.00  0.00    +0.004 C 
ATOM      9  C   UNL     1      10.809   6.169   3.629  0.00  0.00    +0.010 C 
ATOM     10  C   UNL     1       8.793   7.553   2.870  0.00  0.00    +0.023 C 
ATOM     11  C   UNL     1      11.619   6.880   2.532  0.00  0.00    +0.113 C 
ATOM     12  C   UNL     1       9.671   8.187   1.792  0.00  0.00    +0.109 C 
ATOM     17  C   UNL     1      10.896   6.887   0.063  0.00  0.00    +0.306 C 
ATOM     28  H   UNL     1      12.753   6.030   0.434  0.00  0.00    +0.156 HD
ENDROOT
BRANCH   6  20
ATOM     20  C   UNL     1      12.011   4.999  -1.177  0.00  0.00    +0.038 A 
ATOM     21  C   UNL     1      10.847   4.373  -1.621  0.00  0.00    +0.069 A 
ATOM     22  C   UNL     1      13.245   4.645  -1.724  0.00  0.00    +0.023 A 
ATOM     24  C   UNL     1      10.915   3.392  -2.611  0.00  0.00    +0.122 A 
ATOM     25  C   UNL     1      13.315   3.665  -2.714  0.00  0.00    +0.005 A 
ATOM     26  C   UNL     1      12.149   3.038  -3.157  0.00  0.00    +0.046 A 
BRANCH  24   3
ATOM      3  O   UNL     1       9.779   2.782  -3.046  0.00  0.00    -0.495 OA
ATOM     27  C   UNL     1       9.603   2.667  -4.457  0.00  0.00    +0.277 C 
ENDBRANCH  24   3
ENDBRANCH   6  20
BRANCH   9  13
ATOM     13  C   UNL     1      10.384   4.773   3.161  0.00  0.00    +0.002 C 
ATOM     15  C   UNL     1      11.569   3.987   2.640  0.00  0.00    +0.004 C 
ENDBRANCH   9  13
BRANCH   8  14
ATOM     14  C   UNL     1       8.734   6.423   5.125  0.00  0.00    +0.100 C 
BRANCH  14  16
ATOM      1  O   UNL     1       9.029   7.919   6.973  0.00  0.00    -0.276 OA
ATOM      5  N   UNL     1       9.690   5.720   7.296  0.00  0.00    -0.291 N 
ATOM     16  C   UNL     1       9.159   6.771   6.541  0.00  0.00    +0.216 C 
ATOM     19  C   UNL     1       9.833   4.371   6.763  0.00  0.00    +0.133 C 
BRANCH   5  18
ATOM     18  C   UNL     1      10.142   5.894   8.674  0.00  0.00    +0.226 C 
BRANCH  18  23
ATOM      7  N   UNL     1       8.731   4.410  10.313  0.00  0.00    -0.195 NA
ATOM     23  C   UNL     1       9.357   5.065   9.587  0.00  0.00    +0.082 C 
ENDBRANCH  18  23
ENDBRANCH   5  18
ENDBRANCH  14  16
ENDBRANCH   8  14
TORSDOF 7
ENDMDL
MODEL 7
REMARK VINA RESULT:      -5.7     26.908     29.167
REMARK  Name = 11912177
REMARK  10 active torsions:
REMARK  status: ('A' for Active; 'I' for Inactive)
REMARK    1  A    between atoms: O_3  and  C_24
REMARK    2  A    between atoms: O_3  and  C_27
REMARK    3  A    between atoms: N_5  and  C_18
REMARK    4  A    between atoms: N_5  and  C_19
REMARK    5  A    between atoms: N_6  and  C_20
REMARK    6  A    between atoms: C_8  and  C_14
REMARK    7  A    between atoms: C_9  and  C_13
REMARK    8  A    between atoms: C_13  and  C_15
REMARK    9  A    between atoms: C_14  and  C_16
REMARK   10  A    between atoms: C_18  and  C_23
REMARK                            x       y       z     vdW  Elec       q    Type
REMARK                         _______ _______ _______ _____ _____    ______ ____
ROOT
ATOM      2  O   UNL     1      -7.098 -11.530  20.081  0.00  0.00    -0.252 OA
ATOM      4  N   UNL     1      -6.196 -10.442  18.253  0.00  0.00    -0.285 N 
ATOM      6  N   UNL     1      -8.503 -10.285  18.720  0.00  0.00    -0.269 N 
ATOM      8  C   UNL     1      -4.381 -10.872  16.039  0.00  0.00    +0.004 C 
ATOM      9  C   UNL     1      -5.803 -10.295  15.810  0.00  0.00    +0.010 C 
ATOM     10  C   UNL     1      -4.308 -11.714  17.327  0.00  0.00    +0.023 C 
ATOM     11  C   UNL     1      -6.271  -9.562  17.077  0.00  0.00    +0.113 C 
ATOM     12  C   UNL     1      -4.851 -10.947  18.531  0.00  0.00    +0.109 C 
ATOM     17  C   UNL     1      -7.265 -10.799  19.102  0.00  0.00    +0.306 C 
ATOM     28  H   UNL     1      -8.527  -9.406  18.216  0.00  0.00    +0.156 HD
ENDROOT
BRANCH   6  20
ATOM     20  C   UNL     1      -9.778 -10.863  18.938  0.00  0.00    +0.038 A 
ATOM     21  C   UNL     1     -10.642 -10.309  19.883  0.00  0.00    +0.069 A 
ATOM     22  C   UNL     1     -10.171 -11.985  18.207  0.00  0.00    +0.023 A 
ATOM     24  C   UNL     1     -11.898 -10.877  20.098  0.00  0.00    +0.122 A 
ATOM     25  C   UNL     1     -11.427 -12.553  18.421  0.00  0.00    +0.005 A 
ATOM     26  C   UNL     1     -12.290 -11.998  19.367  0.00  0.00    +0.046 A 
BRANCH  24   3
ATOM      3  O   UNL     1     -12.742 -10.336  21.019  0.00  0.00    -0.495 OA
ATOM     27  C   UNL     1     -13.957 -11.038  21.277  0.00  0.00    +0.277 C 
ENDBRANCH  24   3
ENDBRANCH   6  20
BRANCH   9  13
ATOM     13  C   UNL     1      -6.840 -11.339  15.380  0.00  0.00    +0.002 C 
ATOM     15  C   UNL     1      -8.194 -10.701  15.148  0.00  0.00    +0.004 C 
ENDBRANCH   9  13
BRANCH   8  14
ATOM     14  C   UNL     1      -3.856 -11.667  14.845  0.00  0.00    +0.100 C 
BRANCH  14  16
ATOM      1  O   UNL     1      -1.980 -10.205  14.552  0.00  0.00    -0.276 OA
ATOM      5  N   UNL     1      -3.028 -10.958  12.624  0.00  0.00    -0.291 N 
ATOM     16  C   UNL     1      -2.865 -10.874  14.011  0.00  0.00    +0.216 C 
ATOM     19  C   UNL     1      -4.082 -11.754  12.009  0.00  0.00    +0.133 C 
BRANCH   5  18
ATOM     18  C   UNL     1      -2.155 -10.253  11.688  0.00  0.00    +0.226 C 
BRANCH  18  23
ATOM      7  N   UNL     1      -3.559  -9.085   9.806  0.00  0.00    -0.195 NA
ATOM     23  C   UNL     1      -2.936  -9.603  10.638  0.00  0.00    +0.082 C 
ENDBRANCH  18  23
ENDBRANCH   5  18
ENDBRANCH  14  16
ENDBRANCH   8  14
TORSDOF 7
ENDMDL
MODEL 8
REMARK VINA RESULT:      -5.6     27.276     28.700
REMARK  Name = 11912177
REMARK  10 active torsions:
REMARK  status: ('A' for Active; 'I' for Inactive)
REMARK    1  A    between atoms: O_3  and  C_24
REMARK    2  A    between atoms: O_3  and  C_27
REMARK    3  A    between atoms: N_5  and  C_18
REMARK    4  A    between atoms: N_5  and  C_19
REMARK    5  A    between atoms: N_6  and  C_20
REMARK    6  A    between atoms: C_8  and  C_14
REMARK    7  A    between atoms: C_9  and  C_13
REMARK    8  A    between atoms: C_13  and  C_15
REMARK    9  A    between atoms: C_14  and  C_16
REMARK   10  A    between atoms: C_18  and  C_23
REMARK                            x       y       z     vdW  Elec       q    Type
REMARK                         _______ _______ _______ _____ _____    ______ ____
ROOT
ATOM      2  O   UNL     1      -2.726 -12.561  14.696  0.00  0.00    -0.252 OA
ATOM      4  N   UNL     1      -3.144 -11.272  12.825  0.00  0.00    -0.285 N 
ATOM      6  N   UNL     1      -3.676 -10.464  14.977  0.00  0.00    -0.269 N 
ATOM      8  C   UNL     1      -4.260 -11.455  10.160  0.00  0.00    +0.004 C 
ATOM      9  C   UNL     1      -4.722 -10.352  11.149  0.00  0.00    +0.010 C 
ATOM     10  C   UNL     1      -3.710 -12.689  10.898  0.00  0.00    +0.023 C 
ATOM     11  C   UNL     1      -3.591 -10.047  12.145  0.00  0.00    +0.113 C 
ATOM     12  C   UNL     1      -2.639 -12.303  11.918  0.00  0.00    +0.109 C 
ATOM     17  C   UNL     1      -3.143 -11.504  14.217  0.00  0.00    +0.306 C 
ATOM     28  H   UNL     1      -3.602  -9.518  14.621  0.00  0.00    +0.156 HD
ENDROOT
BRANCH   6  20
ATOM     20  C   UNL     1      -4.346 -10.564  16.221  0.00  0.00    +0.038 A 
ATOM     21  C   UNL     1      -5.599  -9.975  16.388  0.00  0.00    +0.069 A 
ATOM     22  C   UNL     1      -3.754 -11.253  17.280  0.00  0.00    +0.023 A 
ATOM     24  C   UNL     1      -6.260 -10.073  17.612  0.00  0.00    +0.122 A 
ATOM     25  C   UNL     1      -4.413 -11.352  18.505  0.00  0.00    +0.005 A 
ATOM     26  C   UNL     1      -5.667 -10.762  18.670  0.00  0.00    +0.046 A 
BRANCH  24   3
ATOM      3  O   UNL     1      -7.483  -9.499  17.775  0.00  0.00    -0.495 OA
ATOM     27  C   UNL     1      -8.200  -9.153  16.591  0.00  0.00    +0.277 C 
ENDBRANCH  24   3
ENDBRANCH   6  20
BRANCH   9  13
ATOM     13  C   UNL     1      -6.019 -10.685  11.896  0.00  0.00    +0.002 C 
ATOM     15  C   UNL     1      -6.453  -9.533  12.777  0.00  0.00    +0.004 C 
ENDBRANCH   9  13
BRANCH   8  14
ATOM     14  C   UNL     1      -5.344 -11.862   9.164  0.00  0.00    +0.100 C 
BRANCH  14  16
ATOM      1  O   UNL     1      -4.903 -10.061   7.646  0.00  0.00    -0.276 OA
ATOM      5  N   UNL     1      -7.127 -10.474   8.156  0.00  0.00    -0.291 N 
ATOM     16  C   UNL     1      -5.753 -10.718   8.253  0.00  0.00    +0.216 C 
ATOM     19  C   UNL     1      -8.113 -11.264   8.883  0.00  0.00    +0.133 C 
BRANCH   5  18
ATOM     18  C   UNL     1      -7.678  -9.410   7.320  0.00  0.00    +0.226 C 
BRANCH  18  23
ATOM      7  N   UNL     1      -8.474  -7.386   8.784  0.00  0.00    -0.195 NA
ATOM     23  C   UNL     1      -8.122  -8.284   8.137  0.00  0.00    +0.082 C 
ENDBRANCH  18  23
ENDBRANCH   5  18
ENDBRANCH  14  16
ENDBRANCH   8  14
TORSDOF 7
ENDMDL
MODEL 9
REMARK VINA RESULT:      -5.6     14.386     18.953
REMARK  Name = 11912177
REMARK  10 active torsions:
REMARK  status: ('A' for Active; 'I' for Inactive)
REMARK    1  A    between atoms: O_3  and  C_24
REMARK    2  A    between atoms: O_3  and  C_27
REMARK    3  A    between atoms: N_5  and  C_18
REMARK    4  A    between atoms: N_5  and  C_19
REMARK    5  A    between atoms: N_6  and  C_20
REMARK    6  A    between atoms: C_8  and  C_14
REMARK    7  A    between atoms: C_9  and  C_13
REMARK    8  A    between atoms: C_13  and  C_15
REMARK    9  A    between atoms: C_14  and  C_16
REMARK   10  A    between atoms: C_18  and  C_23
REMARK                            x       y       z     vdW  Elec       q    Type
REMARK                         _______ _______ _______ _____ _____    ______ ____
ROOT
ATOM      2  O   UNL     1      13.394   7.520   5.311  0.00  0.00    -0.252 OA
ATOM      4  N   UNL     1      12.905   7.086   3.094  0.00  0.00    -0.285 N 
ATOM      6  N   UNL     1      11.172   7.467   4.649  0.00  0.00    -0.269 N 
ATOM      8  C   UNL     1      13.624   5.302   0.932  0.00  0.00    +0.004 C 
ATOM      9  C   UNL     1      12.140   5.534   1.320  0.00  0.00    +0.010 C 
ATOM     10  C   UNL     1      14.572   5.568   2.116  0.00  0.00    +0.023 C 
ATOM     11  C   UNL     1      11.986   6.924   1.957  0.00  0.00    +0.113 C 
ATOM     12  C   UNL     1      14.317   6.939   2.742  0.00  0.00    +0.109 C 
ATOM     17  C   UNL     1      12.545   7.381   4.427  0.00  0.00    +0.306 C 
ATOM     28  H   UNL     1      10.576   7.764   3.885  0.00  0.00    +0.156 HD
ENDROOT
BRANCH   6  20
ATOM     20  C   UNL     1      10.474   7.165   5.844  0.00  0.00    +0.038 A 
ATOM     21  C   UNL     1      10.520   5.875   6.373  0.00  0.00    +0.069 A 
ATOM     22  C   UNL     1       9.740   8.159   6.494  0.00  0.00    +0.023 A 
ATOM     24  C   UNL     1       9.833   5.578   7.550  0.00  0.00    +0.122 A 
ATOM     25  C   UNL     1       9.053   7.863   7.671  0.00  0.00    +0.005 A 
ATOM     26  C   UNL     1       9.100   6.572   8.199  0.00  0.00    +0.046 A 
BRANCH  24   3
ATOM      3  O   UNL     1       9.879   4.320   8.067  0.00  0.00    -0.495 OA
ATOM     27  C   UNL     1       9.418   4.151   9.406  0.00  0.00    +0.277 C 
ENDBRANCH  24   3
ENDBRANCH   6  20
BRANCH   9  13
ATOM     13  C   UNL     1      11.558   4.454   2.240  0.00  0.00    +0.002 C 
ATOM     15  C   UNL     1      10.139   4.791   2.648  0.00  0.00    +0.004 C 
ENDBRANCH   9  13
BRANCH   8  14
ATOM     14  C   UNL     1      13.881   3.917   0.338  0.00  0.00    +0.100 C 
BRANCH  14  16
ATOM      1  O   UNL     1      15.238   4.329  -1.594  0.00  0.00    -0.276 OA
ATOM      5  N   UNL     1      13.075   3.583  -1.977  0.00  0.00    -0.291 N 
ATOM     16  C   UNL     1      14.142   3.968  -1.157  0.00  0.00    +0.216 C 
ATOM     19  C   UNL     1      11.789   3.160  -1.438  0.00  0.00    +0.133 C 
BRANCH   5  18
ATOM     18  C   UNL     1      13.170   3.577  -3.435  0.00  0.00    +0.226 C 
BRANCH  18  23
ATOM      7  N   UNL     1      11.394   5.190  -4.492  0.00  0.00    -0.195 NA
ATOM     23  C   UNL     1      12.179   4.474  -4.025  0.00  0.00    +0.082 C 
ENDBRANCH  18  23
ENDBRANCH   5  18
ENDBRANCH  14  16
ENDBRANCH   8  14
TORSDOF 7
ENDMDL
MODEL 10
REMARK VINA RESULT:      -5.6     27.639     29.722
REMARK  Name = 11912177
REMARK  10 active torsions:
REMARK  status: ('A' for Active; 'I' for Inactive)
REMARK    1  A    between atoms: O_3  and  C_24
REMARK    2  A    between atoms: O_3  and  C_27
REMARK    3  A    between atoms: N_5  and  C_18
REMARK    4  A    between atoms: N_5  and  C_19
REMARK    5  A    between atoms: N_6  and  C_20
REMARK    6  A    between atoms: C_8  and  C_14
REMARK    7  A    between atoms: C_9  and  C_13
REMARK    8  A    between atoms: C_13  and  C_15
REMARK    9  A    between atoms: C_14  and  C_16
REMARK   10  A    between atoms: C_18  and  C_23
REMARK                            x       y       z     vdW  Elec       q    Type
REMARK                         _______ _______ _______ _____ _____    ______ ____
ROOT
ATOM      2  O   UNL     1      -9.777 -12.528  20.039  0.00  0.00    -0.252 OA
ATOM      4  N   UNL     1      -7.934 -11.366  19.269  0.00  0.00    -0.285 N 
ATOM      6  N   UNL     1      -9.947 -10.234  19.747  0.00  0.00    -0.269 N 
ATOM      8  C   UNL     1      -5.862 -11.500  17.253  0.00  0.00    +0.004 C 
ATOM      9  C   UNL     1      -6.718 -10.220  17.438  0.00  0.00    +0.010 C 
ATOM     10  C   UNL     1      -6.601 -12.759  17.744  0.00  0.00    +0.023 C 
ATOM     11  C   UNL     1      -7.216 -10.140  18.890  0.00  0.00    +0.113 C 
ATOM     12  C   UNL     1      -7.126 -12.582  19.168  0.00  0.00    +0.109 C 
ATOM     17  C   UNL     1      -9.268 -11.450  19.722  0.00  0.00    +0.306 C 
ATOM     28  H   UNL     1      -9.414  -9.384  19.895  0.00  0.00    +0.156 HD
ENDROOT
BRANCH   6  20
ATOM     20  C   UNL     1     -11.337 -10.021  19.569  0.00  0.00    +0.038 A 
ATOM     21  C   UNL     1     -11.862  -9.880  18.284  0.00  0.00    +0.069 A 
ATOM     22  C   UNL     1     -12.180  -9.953  20.678  0.00  0.00    +0.023 A 
ATOM     24  C   UNL     1     -13.230  -9.672  18.109  0.00  0.00    +0.122 A 
ATOM     25  C   UNL     1     -13.548  -9.744  20.504  0.00  0.00    +0.005 A 
ATOM     26  C   UNL     1     -14.073  -9.603  19.218  0.00  0.00    +0.046 A 
BRANCH  24   3
ATOM      3  O   UNL     1     -13.743  -9.536  16.855  0.00  0.00    -0.495 OA
ATOM     27  C   UNL     1     -14.965 -10.217  16.577  0.00  0.00    +0.277 C 
ENDBRANCH  24   3
ENDBRANCH   6  20
BRANCH   9  13
ATOM     13  C   UNL     1      -7.894 -10.108  16.460  0.00  0.00    +0.002 C 
ATOM     15  C   UNL     1      -8.677  -8.832  16.692  0.00  0.00    +0.004 C 
ENDBRANCH   9  13
BRANCH   8  14
ATOM     14  C   UNL     1      -5.367 -11.691  15.819  0.00  0.00    +0.100 C 
BRANCH  14  16
ATOM      1  O   UNL     1      -3.432 -10.440  16.477  0.00  0.00    -0.276 OA
ATOM      5  N   UNL     1      -3.362 -11.451  14.391  0.00  0.00    -0.291 N 
ATOM     16  C   UNL     1      -3.972 -11.131  15.609  0.00  0.00    +0.216 C 
ATOM     19  C   UNL     1      -4.020 -12.269  13.380  0.00  0.00    +0.133 C 
BRANCH   5  18
ATOM     18  C   UNL     1      -2.021 -10.989  14.040  0.00  0.00    +0.226 C 
BRANCH  18  23
ATOM      7  N   UNL     1      -1.977 -10.031  11.599  0.00  0.00    -0.195 NA
ATOM     23  C   UNL     1      -1.994 -10.454  12.680  0.00  0.00    +0.082 C 
ENDBRANCH  18  23
ENDBRANCH   5  18
ENDBRANCH  14  16
ENDBRANCH   8  14
TORSDOF 7
ENDMDL
