REMARK  Name = 40777111
REMARK  7 active torsions:
REMARK  status: ('A' for Active; 'I' for Inactive)
REMARK    1  A    between atoms: N_4  and  C_14
REMARK    2  A    between atoms: C_8  and  C_15
REMARK    3  A    between atoms: C_9  and  C_14
REMARK    4  A    between atoms: C_17  and  C_20
REMARK    5  A    between atoms: C_18  and  C_21
REMARK    6  A    between atoms: C_19  and  C_22
REMARK    7  A    between atoms: C_31  and  C_33
REMARK                            x       y       z     vdW  Elec       q    Type
REMARK                         _______ _______ _______ _____ _____    ______ ____
ROOT
ATOM      3  N   UNL     1       0.425   2.924   1.005  0.00  0.00    -0.297 NA
ATOM      7  C   UNL     1      -0.024   2.399  -1.506  0.00  0.00    +0.002 C 
ATOM      8  C   UNL     1      -1.306   2.157  -0.662  0.00  0.00    +0.055 C 
ATOM      9  C   UNL     1       1.485   2.026   0.477  0.00  0.00    +0.074 C 
ATOM     10  C   UNL     1       1.127   1.538  -0.944  0.00  0.00    +0.024 C 
ATOM     11  C   UNL     1       0.373   3.877  -1.299  0.00  0.00    +0.019 C 
ATOM     12  C   UNL     1      -0.908   2.293   0.835  0.00  0.00    +0.094 C 
ATOM     13  C   UNL     1       0.450   4.174   0.209  0.00  0.00    +0.085 C 
ENDROOT
BRANCH   8  15
ATOM      5  N   UNL     1      -1.647   0.068  -1.888  0.00  0.00    -0.237 NA
ATOM      6  N   UNL     1      -3.528  -1.378  -1.462  0.00  0.00    -0.232 NA
ATOM     15  C   UNL     1      -2.116   0.897  -0.932  0.00  0.00    +0.050 A 
ATOM     16  C   UNL     1      -3.267   0.661  -0.209  0.00  0.00    +0.052 A 
ATOM     17  C   UNL     1      -3.939  -0.504  -0.520  0.00  0.00    +0.076 A 
ATOM     18  C   UNL     1      -2.392  -1.035  -2.098  0.00  0.00    +0.127 A 
ATOM     21  C   UNL     1      -1.907  -1.975  -3.149  0.00  0.00    +0.088 C 
BRANCH  17  20
ATOM      1 BR   UNL     1      -3.545  -2.268   2.119  0.00  0.00    -0.050 Br
ATOM     20  C   UNL     1      -5.158  -0.867   0.164  0.00  0.00    +0.014 A 
ATOM     23  C   UNL     1      -5.153  -1.633   1.329  0.00  0.00    +0.027 A 
ATOM     24  C   UNL     1      -6.366  -0.426  -0.376  0.00  0.00    +0.011 A 
ATOM     27  C   UNL     1      -6.356  -1.959   1.955  0.00  0.00    +0.016 A 
ATOM     28  C   UNL     1      -7.569  -0.751   0.250  0.00  0.00    +0.001 A 
ATOM     32  C   UNL     1      -7.564  -1.518   1.415  0.00  0.00    +0.001 A 
ENDBRANCH  17  20
ENDBRANCH   8  15
BRANCH   9  14
ATOM     14  C   UNL     1       1.785   0.860   1.421  0.00  0.00    +0.123 C 
BRANCH  14   4
ATOM      2  O   UNL     1       4.562   1.262   2.028  0.00  0.00    -0.270 OA
ATOM      4  N   UNL     1       2.885   0.083   0.940  0.00  0.00    -0.310 N 
ATOM     19  C   UNL     1       4.209   0.349   1.286  0.00  0.00    +0.244 C 
ATOM     34  H   UNL     1       2.669  -0.649   0.273  0.00  0.00    +0.149 HD
BRANCH  19  22
ATOM     22  C   UNL     1       5.239  -0.534   0.681  0.00  0.00    +0.037 A 
ATOM     25  C   UNL     1       6.536  -0.060   0.486  0.00  0.00    +0.013 A 
ATOM     26  C   UNL     1       4.909  -1.837   0.308  0.00  0.00    +0.013 A 
ATOM     29  C   UNL     1       7.503  -0.889  -0.083  0.00  0.00    +0.004 A 
ATOM     30  C   UNL     1       5.876  -2.666  -0.260  0.00  0.00    +0.004 A 
ATOM     31  C   UNL     1       7.173  -2.192  -0.456  0.00  0.00    -0.050 A 
ATOM     33  C   UNL     1       8.207  -3.078  -1.064  0.00  0.00    +0.044 C 
ENDBRANCH  19  22
ENDBRANCH  14   4
ENDBRANCH   9  14
TORSDOF 5
