MODEL 1
REMARK VINA RESULT:      -5.3      0.000      0.000
REMARK  Name = 75537137
REMARK  5 active torsions:
REMARK  status: ('A' for Active; 'I' for Inactive)
REMARK    1  A    between atoms: O_2  and  C_14
REMARK    2  A    between atoms: O_2  and  C_15
REMARK    3  A    between atoms: N_4  and  C_12
REMARK    4  A    between atoms: N_5  and  C_13
REMARK    5  A    between atoms: C_12  and  C_14
REMARK                            x       y       z     vdW  Elec       q    Type
REMARK                         _______ _______ _______ _____ _____    ______ ____
ROOT
ATOM      1  O   UNL     1       0.414   2.046  25.582  0.00  0.00    -0.252 OA
ATOM      3  N   UNL     1      -1.732   2.711  24.895  0.00  0.00    -0.278 N 
ATOM      4  N   UNL     1      -1.015   0.664  24.313  0.00  0.00    -0.281 N 
ATOM      5  N   UNL     1      -4.307   3.831  25.045  0.00  0.00    -0.302 NA
ATOM      6  C   UNL     1      -2.775   2.191  24.036  0.00  0.00    +0.109 C 
ATOM      7  C   UNL     1      -2.386   0.727  23.839  0.00  0.00    +0.133 C 
ATOM      8  C   UNL     1      -4.147   2.411  24.672  0.00  0.00    +0.108 C 
ATOM      9  C   UNL     1      -1.862   4.045  25.440  0.00  0.00    +0.125 C 
ATOM     10  C   UNL     1      -3.269   4.242  26.012  0.00  0.00    +0.103 C 
ATOM     11  C   UNL     1      -0.642   1.836  25.000  0.00  0.00    +0.305 C 
ATOM     13  C   UNL     1      -5.640   4.065  25.601  0.00  0.00    +0.105 C 
ENDROOT
BRANCH   4  12
ATOM     12  C   UNL     1      -0.220  -0.540  24.201  0.00  0.00    +0.137 C 
BRANCH  12  14
ATOM     14  C   UNL     1      -0.773  -1.656  25.069  0.00  0.00    +0.178 C 
BRANCH  14   2
ATOM      2  O   UNL     1      -1.614  -2.492  24.285  0.00  0.00    -0.381 OA
ATOM     15  C   UNL     1      -2.930  -2.557  24.819  0.00  0.00    +0.194 C 
ENDBRANCH  14   2
ENDBRANCH  12  14
ENDBRANCH   4  12
TORSDOF 3
ENDMDL
MODEL 2
REMARK VINA RESULT:      -5.2     16.451     18.459
REMARK  Name = 75537137
REMARK  5 active torsions:
REMARK  status: ('A' for Active; 'I' for Inactive)
REMARK    1  A    between atoms: O_2  and  C_14
REMARK    2  A    between atoms: O_2  and  C_15
REMARK    3  A    between atoms: N_4  and  C_12
REMARK    4  A    between atoms: N_5  and  C_13
REMARK    5  A    between atoms: C_12  and  C_14
REMARK                            x       y       z     vdW  Elec       q    Type
REMARK                         _______ _______ _______ _____ _____    ______ ____
ROOT
ATOM      1  O   UNL     1      12.174   6.630  18.960  0.00  0.00    -0.252 OA
ATOM      3  N   UNL     1      14.338   7.137  19.719  0.00  0.00    -0.278 N 
ATOM      4  N   UNL     1      12.633   7.316  21.169  0.00  0.00    -0.281 N 
ATOM      5  N   UNL     1      17.113   6.884  20.100  0.00  0.00    -0.302 NA
ATOM      6  C   UNL     1      14.936   7.688  20.918  0.00  0.00    +0.109 C 
ATOM      7  C   UNL     1      13.822   7.588  21.958  0.00  0.00    +0.133 C 
ATOM      8  C   UNL     1      16.215   6.931  21.271  0.00  0.00    +0.108 C 
ATOM      9  C   UNL     1      15.166   6.910  18.554  0.00  0.00    +0.125 C 
ATOM     10  C   UNL     1      16.462   6.203  18.963  0.00  0.00    +0.103 C 
ATOM     11  C   UNL     1      12.950   6.987  19.836  0.00  0.00    +0.305 C 
ATOM     13  C   UNL     1      18.367   6.213  20.445  0.00  0.00    +0.105 C 
ENDROOT
BRANCH   4  12
ATOM     12  C   UNL     1      11.316   7.254  21.765  0.00  0.00    +0.137 C 
BRANCH  12  14
ATOM     14  C   UNL     1      10.666   8.624  21.826  0.00  0.00    +0.178 C 
BRANCH  14   2
ATOM      2  O   UNL     1      10.921   9.212  23.095  0.00  0.00    -0.381 OA
ATOM     15  C   UNL     1      11.388  10.548  22.966  0.00  0.00    +0.194 C 
ENDBRANCH  14   2
ENDBRANCH  12  14
ENDBRANCH   4  12
TORSDOF 3
ENDMDL
MODEL 3
REMARK VINA RESULT:      -5.1      1.744      2.542
REMARK  Name = 75537137
REMARK  5 active torsions:
REMARK  status: ('A' for Active; 'I' for Inactive)
REMARK    1  A    between atoms: O_2  and  C_14
REMARK    2  A    between atoms: O_2  and  C_15
REMARK    3  A    between atoms: N_4  and  C_12
REMARK    4  A    between atoms: N_5  and  C_13
REMARK    5  A    between atoms: C_12  and  C_14
REMARK                            x       y       z     vdW  Elec       q    Type
REMARK                         _______ _______ _______ _____ _____    ______ ____
ROOT
ATOM      1  O   UNL     1       0.702   2.258  25.376  0.00  0.00    -0.252 OA
ATOM      3  N   UNL     1      -1.513   2.743  24.762  0.00  0.00    -0.278 N 
ATOM      4  N   UNL     1      -0.580   0.857  23.978  0.00  0.00    -0.281 N 
ATOM      5  N   UNL     1      -4.196   3.545  25.028  0.00  0.00    -0.302 NA
ATOM      6  C   UNL     1      -2.504   2.196  23.858  0.00  0.00    +0.109 C 
ATOM      7  C   UNL     1      -1.956   0.812  23.515  0.00  0.00    +0.133 C 
ATOM      8  C   UNL     1      -3.883   2.196  24.515  0.00  0.00    +0.108 C 
ATOM      9  C   UNL     1      -1.785   3.993  25.438  0.00  0.00    +0.125 C 
ATOM     10  C   UNL     1      -3.197   3.973  26.029  0.00  0.00    +0.103 C 
ATOM     11  C   UNL     1      -0.332   1.990  24.778  0.00  0.00    +0.305 C 
ATOM     13  C   UNL     1      -5.539   3.572  25.606  0.00  0.00    +0.105 C 
ENDROOT
BRANCH   4  12
ATOM     12  C   UNL     1       0.342  -0.233  23.745  0.00  0.00    +0.137 C 
BRANCH  12  14
ATOM     14  C   UNL     1       1.255   0.051  22.565  0.00  0.00    +0.178 C 
BRANCH  14   2
ATOM      2  O   UNL     1       2.585  -0.325  22.897  0.00  0.00    -0.381 OA
ATOM     15  C   UNL     1       3.507   0.722  22.621  0.00  0.00    +0.194 C 
ENDBRANCH  14   2
ENDBRANCH  12  14
ENDBRANCH   4  12
TORSDOF 3
ENDMDL
MODEL 4
REMARK VINA RESULT:      -4.9     17.000     18.483
REMARK  Name = 75537137
REMARK  5 active torsions:
REMARK  status: ('A' for Active; 'I' for Inactive)
REMARK    1  A    between atoms: O_2  and  C_14
REMARK    2  A    between atoms: O_2  and  C_15
REMARK    3  A    between atoms: N_4  and  C_12
REMARK    4  A    between atoms: N_5  and  C_13
REMARK    5  A    between atoms: C_12  and  C_14
REMARK                            x       y       z     vdW  Elec       q    Type
REMARK                         _______ _______ _______ _____ _____    ______ ____
ROOT
ATOM      1  O   UNL     1      14.409   7.577  17.499  0.00  0.00    -0.252 OA
ATOM      3  N   UNL     1      13.124   7.502  19.465  0.00  0.00    -0.278 N 
ATOM      4  N   UNL     1      15.219   6.695  19.532  0.00  0.00    -0.281 N 
ATOM      5  N   UNL     1      11.372   8.360  21.490  0.00  0.00    -0.302 NA
ATOM      6  C   UNL     1      13.254   6.937  20.792  0.00  0.00    +0.109 C 
ATOM      7  C   UNL     1      14.741   6.604  20.900  0.00  0.00    +0.133 C 
ATOM      8  C   UNL     1      12.737   7.919  21.841  0.00  0.00    +0.108 C 
ATOM      9  C   UNL     1      11.866   8.098  19.068  0.00  0.00    +0.125 C 
ATOM     10  C   UNL     1      11.356   9.027  20.173  0.00  0.00    +0.103 C 
ATOM     11  C   UNL     1      14.266   7.290  18.681  0.00  0.00    +0.305 C 
ATOM     13  C   UNL     1      10.844   9.255  22.521  0.00  0.00    +0.105 C 
ENDROOT
BRANCH   4  12
ATOM     12  C   UNL     1      16.574   6.344  19.169  0.00  0.00    +0.137 C 
BRANCH  12  14
ATOM     14  C   UNL     1      17.522   6.487  20.347  0.00  0.00    +0.178 C 
BRANCH  14   2
ATOM      2  O   UNL     1      18.698   5.728  20.101  0.00  0.00    -0.381 OA
ATOM     15  C   UNL     1      19.849   6.357  20.649  0.00  0.00    +0.194 C 
ENDBRANCH  14   2
ENDBRANCH  12  14
ENDBRANCH   4  12
TORSDOF 3
ENDMDL
MODEL 5
REMARK VINA RESULT:      -4.8     15.818     17.682
REMARK  Name = 75537137
REMARK  5 active torsions:
REMARK  status: ('A' for Active; 'I' for Inactive)
REMARK    1  A    between atoms: O_2  and  C_14
REMARK    2  A    between atoms: O_2  and  C_15
REMARK    3  A    between atoms: N_4  and  C_12
REMARK    4  A    between atoms: N_5  and  C_13
REMARK    5  A    between atoms: C_12  and  C_14
REMARK                            x       y       z     vdW  Elec       q    Type
REMARK                         _______ _______ _______ _____ _____    ______ ____
ROOT
ATOM      1  O   UNL     1      13.735   7.722  22.122  0.00  0.00    -0.252 OA
ATOM      3  N   UNL     1      13.168   7.671  19.842  0.00  0.00    -0.278 N 
ATOM      4  N   UNL     1      11.637   8.425  21.302  0.00  0.00    -0.281 N 
ATOM      5  N   UNL     1      13.439   7.999  17.062  0.00  0.00    -0.302 NA
ATOM      6  C   UNL     1      11.982   7.894  19.042  0.00  0.00    +0.109 C 
ATOM      7  C   UNL     1      11.032   8.617  19.996  0.00  0.00    +0.133 C 
ATOM      8  C   UNL     1      12.333   8.671  17.774  0.00  0.00    +0.108 C 
ATOM      9  C   UNL     1      14.362   7.153  19.209  0.00  0.00    +0.125 C 
ATOM     10  C   UNL     1      14.643   7.919  17.914  0.00  0.00    +0.103 C 
ATOM     11  C   UNL     1      12.946   7.910  21.204  0.00  0.00    +0.305 C 
ATOM     13  C   UNL     1      13.743   8.701  15.815  0.00  0.00    +0.105 C 
ENDROOT
BRANCH   4  12
ATOM     12  C   UNL     1      10.991   8.867  22.518  0.00  0.00    +0.137 C 
BRANCH  12  14
ATOM     14  C   UNL     1      11.210  10.350  22.759  0.00  0.00    +0.178 C 
BRANCH  14   2
ATOM      2  O   UNL     1      10.882  10.663  24.106  0.00  0.00    -0.381 OA
ATOM     15  C   UNL     1      10.712  12.062  24.290  0.00  0.00    +0.194 C 
ENDBRANCH  14   2
ENDBRANCH  12  14
ENDBRANCH   4  12
TORSDOF 3
ENDMDL
MODEL 6
REMARK VINA RESULT:      -4.7     13.330     14.774
REMARK  Name = 75537137
REMARK  5 active torsions:
REMARK  status: ('A' for Active; 'I' for Inactive)
REMARK    1  A    between atoms: O_2  and  C_14
REMARK    2  A    between atoms: O_2  and  C_15
REMARK    3  A    between atoms: N_4  and  C_12
REMARK    4  A    between atoms: N_5  and  C_13
REMARK    5  A    between atoms: C_12  and  C_14
REMARK                            x       y       z     vdW  Elec       q    Type
REMARK                         _______ _______ _______ _____ _____    ______ ____
ROOT
ATOM      1  O   UNL     1     -14.554   1.427  34.220  0.00  0.00    -0.252 OA
ATOM      3  N   UNL     1     -14.414   3.562  33.248  0.00  0.00    -0.278 N 
ATOM      4  N   UNL     1     -14.672   1.791  31.892  0.00  0.00    -0.281 N 
ATOM      5  N   UNL     1     -14.884   6.308  32.866  0.00  0.00    -0.302 NA
ATOM      6  C   UNL     1     -14.323   4.111  31.911  0.00  0.00    +0.109 C 
ATOM      7  C   UNL     1     -14.726   2.944  31.012  0.00  0.00    +0.133 C 
ATOM      8  C   UNL     1     -15.202   5.354  31.785  0.00  0.00    +0.108 C 
ATOM      9  C   UNL     1     -14.266   4.442  34.387  0.00  0.00    +0.125 C 
ATOM     10  C   UNL     1     -15.117   5.700  34.192  0.00  0.00    +0.103 C 
ATOM     11  C   UNL     1     -14.543   2.167  33.244  0.00  0.00    +0.305 C 
ATOM     13  C   UNL     1     -15.678   7.528  32.720  0.00  0.00    +0.105 C 
ENDROOT
BRANCH   4  12
ATOM     12  C   UNL     1     -14.882   0.445  31.405  0.00  0.00    +0.137 C 
BRANCH  12  14
ATOM     14  C   UNL     1     -15.627   0.441  30.082  0.00  0.00    +0.178 C 
BRANCH  14   2
ATOM      2  O   UNL     1     -14.848  -0.237  29.104  0.00  0.00    -0.381 OA
ATOM     15  C   UNL     1     -13.586  -0.632  29.624  0.00  0.00    +0.194 C 
ENDBRANCH  14   2
ENDBRANCH  12  14
ENDBRANCH   4  12
TORSDOF 3
ENDMDL
MODEL 7
REMARK VINA RESULT:      -4.7     30.473     31.267
REMARK  Name = 75537137
REMARK  5 active torsions:
REMARK  status: ('A' for Active; 'I' for Inactive)
REMARK    1  A    between atoms: O_2  and  C_14
REMARK    2  A    between atoms: O_2  and  C_15
REMARK    3  A    between atoms: N_4  and  C_12
REMARK    4  A    between atoms: N_5  and  C_13
REMARK    5  A    between atoms: C_12  and  C_14
REMARK                            x       y       z     vdW  Elec       q    Type
REMARK                         _______ _______ _______ _____ _____    ______ ____
ROOT
ATOM      1  O   UNL     1      -0.048   1.769  -3.856  0.00  0.00    -0.252 OA
ATOM      3  N   UNL     1       1.004   3.341  -5.250  0.00  0.00    -0.278 N 
ATOM      4  N   UNL     1       0.198   1.463  -6.182  0.00  0.00    -0.281 N 
ATOM      5  N   UNL     1       1.683   5.842  -6.342  0.00  0.00    -0.302 NA
ATOM      6  C   UNL     1       1.424   3.412  -6.634  0.00  0.00    +0.109 C 
ATOM      7  C   UNL     1       0.679   2.256  -7.299  0.00  0.00    +0.133 C 
ATOM      8  C   UNL     1       1.116   4.792  -7.213  0.00  0.00    +0.108 C 
ATOM      9  C   UNL     1       1.381   4.400  -4.339  0.00  0.00    +0.125 C 
ATOM     10  C   UNL     1       1.112   5.763  -4.982  0.00  0.00    +0.103 C 
ATOM     11  C   UNL     1       0.341   2.142  -4.956  0.00  0.00    +0.305 C 
ATOM     13  C   UNL     1       1.446   7.166  -6.917  0.00  0.00    +0.105 C 
ENDROOT
BRANCH   4  12
ATOM     12  C   UNL     1      -0.477   0.198  -6.375  0.00  0.00    +0.137 C 
BRANCH  12  14
ATOM     14  C   UNL     1      -1.652   0.333  -7.328  0.00  0.00    +0.178 C 
BRANCH  14   2
ATOM      2  O   UNL     1      -2.641  -0.633  -6.997  0.00  0.00    -0.381 OA
ATOM     15  C   UNL     1      -3.843  -0.420  -7.724  0.00  0.00    +0.194 C 
ENDBRANCH  14   2
ENDBRANCH  12  14
ENDBRANCH   4  12
TORSDOF 3
ENDMDL
MODEL 8
REMARK VINA RESULT:      -4.6     18.605     20.396
REMARK  Name = 75537137
REMARK  5 active torsions:
REMARK  status: ('A' for Active; 'I' for Inactive)
REMARK    1  A    between atoms: O_2  and  C_14
REMARK    2  A    between atoms: O_2  and  C_15
REMARK    3  A    between atoms: N_4  and  C_12
REMARK    4  A    between atoms: N_5  and  C_13
REMARK    5  A    between atoms: C_12  and  C_14
REMARK                            x       y       z     vdW  Elec       q    Type
REMARK                         _______ _______ _______ _____ _____    ______ ____
ROOT
ATOM      1  O   UNL     1      15.338   9.795  20.223  0.00  0.00    -0.252 OA
ATOM      3  N   UNL     1      16.816   8.030  20.694  0.00  0.00    -0.278 N 
ATOM      4  N   UNL     1      15.113   7.644  19.281  0.00  0.00    -0.281 N 
ATOM      5  N   UNL     1      19.249   6.686  21.119  0.00  0.00    -0.302 NA
ATOM      6  C   UNL     1      16.895   6.613  20.407  0.00  0.00    +0.109 C 
ATOM      7  C   UNL     1      15.885   6.414  19.278  0.00  0.00    +0.133 C 
ATOM      8  C   UNL     1      18.330   6.219  20.061  0.00  0.00    +0.108 C 
ATOM      9  C   UNL     1      17.769   8.622  21.608  0.00  0.00    +0.125 C 
ATOM     10  C   UNL     1      19.185   8.155  21.262  0.00  0.00    +0.103 C 
ATOM     11  C   UNL     1      15.707   8.635  20.088  0.00  0.00    +0.305 C 
ATOM     13  C   UNL     1      20.619   6.262  20.828  0.00  0.00    +0.105 C 
ENDROOT
BRANCH   4  12
ATOM     12  C   UNL     1      13.964   7.829  18.423  0.00  0.00    +0.137 C 
BRANCH  12  14
ATOM     14  C   UNL     1      12.736   7.127  18.975  0.00  0.00    +0.178 C 
BRANCH  14   2
ATOM      2  O   UNL     1      11.581   7.910  18.700  0.00  0.00    -0.381 OA
ATOM     15  C   UNL     1      11.113   8.577  19.865  0.00  0.00    +0.194 C 
ENDBRANCH  14   2
ENDBRANCH  12  14
ENDBRANCH   4  12
TORSDOF 3
ENDMDL
MODEL 9
REMARK VINA RESULT:      -4.6     17.812     19.582
REMARK  Name = 75537137
REMARK  5 active torsions:
REMARK  status: ('A' for Active; 'I' for Inactive)
REMARK    1  A    between atoms: O_2  and  C_14
REMARK    2  A    between atoms: O_2  and  C_15
REMARK    3  A    between atoms: N_4  and  C_12
REMARK    4  A    between atoms: N_5  and  C_13
REMARK    5  A    between atoms: C_12  and  C_14
REMARK                            x       y       z     vdW  Elec       q    Type
REMARK                         _______ _______ _______ _____ _____    ______ ____
ROOT
ATOM      1  O   UNL     1      14.362  10.556  20.121  0.00  0.00    -0.252 OA
ATOM      3  N   UNL     1      15.391   8.451  20.305  0.00  0.00    -0.278 N 
ATOM      4  N   UNL     1      13.718   8.692  18.826  0.00  0.00    -0.281 N 
ATOM      5  N   UNL     1      17.445   6.544  20.527  0.00  0.00    -0.302 NA
ATOM      6  C   UNL     1      15.171   7.118  19.783  0.00  0.00    +0.109 C 
ATOM      7  C   UNL     1      14.200   7.338  18.624  0.00  0.00    +0.133 C 
ATOM      8  C   UNL     1      16.500   6.473  19.394  0.00  0.00    +0.108 C 
ATOM      9  C   UNL     1      16.403   8.658  21.318  0.00  0.00    +0.125 C 
ATOM     10  C   UNL     1      17.698   7.946  20.916  0.00  0.00    +0.103 C 
ATOM     11  C   UNL     1      14.474   9.381  19.796  0.00  0.00    +0.305 C 
ATOM     13  C   UNL     1      18.701   5.876  20.186  0.00  0.00    +0.105 C 
ENDROOT
BRANCH   4  12
ATOM     12  C   UNL     1      12.682   9.268  17.997  0.00  0.00    +0.137 C 
BRANCH  12  14
ATOM     14  C   UNL     1      11.355   8.555  18.186  0.00  0.00    +0.178 C 
BRANCH  14   2
ATOM      2  O   UNL     1      10.931   8.007  16.945  0.00  0.00    -0.381 OA
ATOM     15  C   UNL     1      10.910   8.992  15.920  0.00  0.00    +0.194 C 
ENDBRANCH  14   2
ENDBRANCH  12  14
ENDBRANCH   4  12
TORSDOF 3
ENDMDL
MODEL 10
REMARK VINA RESULT:      -4.6     15.927     16.998
REMARK  Name = 75537137
REMARK  5 active torsions:
REMARK  status: ('A' for Active; 'I' for Inactive)
REMARK    1  A    between atoms: O_2  and  C_14
REMARK    2  A    between atoms: O_2  and  C_15
REMARK    3  A    between atoms: N_4  and  C_12
REMARK    4  A    between atoms: N_5  and  C_13
REMARK    5  A    between atoms: C_12  and  C_14
REMARK                            x       y       z     vdW  Elec       q    Type
REMARK                         _______ _______ _______ _____ _____    ______ ____
ROOT
ATOM      1  O   UNL     1      14.563   8.764  21.852  0.00  0.00    -0.252 OA
ATOM      3  N   UNL     1      12.855  10.228  22.530  0.00  0.00    -0.278 N 
ATOM      4  N   UNL     1      12.272   8.222  21.705  0.00  0.00    -0.281 N 
ATOM      5  N   UNL     1      11.467  12.083  24.124  0.00  0.00    -0.302 NA
ATOM      6  C   UNL     1      11.409  10.269  22.462  0.00  0.00    +0.109 C 
ATOM      7  C   UNL     1      11.021   8.831  22.122  0.00  0.00    +0.133 C 
ATOM      8  C   UNL     1      10.829  10.797  23.774  0.00  0.00    +0.108 C 
ATOM      9  C   UNL     1      13.575  11.390  23.005  0.00  0.00    +0.125 C 
ATOM     10  C   UNL     1      12.926  11.921  24.286  0.00  0.00    +0.103 C 
ATOM     11  C   UNL     1      13.380   9.039  22.006  0.00  0.00    +0.305 C 
ATOM     13  C   UNL     1      10.877  12.628  25.347  0.00  0.00    +0.105 C 
ENDROOT
BRANCH   4  12
ATOM     12  C   UNL     1      12.331   6.873  21.188  0.00  0.00    +0.137 C 
BRANCH  12  14
ATOM     14  C   UNL     1      12.696   6.855  19.714  0.00  0.00    +0.178 C 
BRANCH  14   2
ATOM      2  O   UNL     1      11.668   7.491  18.966  0.00  0.00    -0.381 OA
ATOM     15  C   UNL     1      12.202   8.292  17.921  0.00  0.00    +0.194 C 
ENDBRANCH  14   2
ENDBRANCH  12  14
ENDBRANCH   4  12
TORSDOF 3
ENDMDL
