MODEL 1
REMARK VINA RESULT:      -7.1      0.000      0.000
REMARK  Name = 45783767
REMARK  6 active torsions:
REMARK  status: ('A' for Active; 'I' for Inactive)
REMARK    1  A    between atoms: N_4  and  C_13
REMARK    2  A    between atoms: N_8  and  C_26
REMARK    3  A    between atoms: N_8  and  C_27
REMARK    4  A    between atoms: C_9  and  C_14
REMARK    5  A    between atoms: C_13  and  C_15
REMARK    6  A    between atoms: C_18  and  C_21
REMARK                            x       y       z     vdW  Elec       q    Type
REMARK                         _______ _______ _______ _____ _____    ______ ____
ROOT
ATOM      4  N   UNL     1      12.562   8.420  18.627  0.00  0.00    -0.287 NA
ATOM      9  C   UNL     1      13.711   7.614  18.170  0.00  0.00    +0.146 C 
ATOM     10  C   UNL     1      13.950   8.061  16.716  0.00  0.00    +0.030 C 
ATOM     11  C   UNL     1      12.851   9.074  16.426  0.00  0.00    +0.017 C 
ATOM     12  C   UNL     1      11.773   8.729  17.435  0.00  0.00    +0.085 C 
ENDROOT
BRANCH   9  14
ATOM      3  O   UNL     1      15.048   8.988  19.686  0.00  0.00    -0.336 OA
ATOM      5  N   UNL     1      15.918   6.964  19.281  0.00  0.00    -0.190 NA
ATOM      6  N   UNL     1      16.238   8.922  20.421  0.00  0.00    -0.056 NA
ATOM     14  C   UNL     1      14.934   7.795  19.045  0.00  0.00    +0.245 A 
ATOM     18  C   UNL     1      16.693   7.699  20.130  0.00  0.00    +0.204 A 
BRANCH  18  21
ATOM      7  N   UNL     1      19.651   7.316  22.351  0.00  0.00    -0.240 NA
ATOM     21  C   UNL     1      17.915   7.181  20.672  0.00  0.00    +0.041 A 
ATOM     23  C   UNL     1      18.551   6.090  20.092  0.00  0.00    +0.016 A 
ATOM     24  C   UNL     1      18.501   7.754  21.791  0.00  0.00    +0.124 A 
ATOM     25  C   UNL     1      19.736   5.611  20.640  0.00  0.00    +0.044 A 
ATOM     26  C   UNL     1      20.240   6.253  21.759  0.00  0.00    +0.118 A 
BRANCH  26   8
ATOM      8  N   UNL     1      21.447   5.752  22.307  0.00  0.00    -0.332 N 
ATOM     27  C   UNL     1      21.814   4.375  22.236  0.00  0.00    +0.127 C 
ATOM     28  H   UNL     1      21.945   6.355  22.955  0.00  0.00    +0.147 HD
ENDBRANCH  26   8
ENDBRANCH  18  21
ENDBRANCH   9  14
BRANCH   4  13
ATOM     13  C   UNL     1      11.767   7.757  19.654  0.00  0.00    +0.120 C 
BRANCH  13  15
ATOM      1  F   UNL     1      11.856  12.173  21.732  0.00  0.00    -0.202 F 
ATOM      2  F   UNL     1      10.648  11.190  23.979  0.00  0.00    -0.202 F 
ATOM     15  C   UNL     1      11.469   8.675  20.810  0.00  0.00    -0.030 A 
ATOM     16  C   UNL     1      11.808  10.026  20.735  0.00  0.00    +0.046 A 
ATOM     17  C   UNL     1      10.852   8.174  21.957  0.00  0.00    +0.008 A 
ATOM     19  C   UNL     1      11.530  10.876  21.805  0.00  0.00    +0.159 A 
ATOM     20  C   UNL     1      10.574   9.024  23.027  0.00  0.00    +0.041 A 
ATOM     22  C   UNL     1      10.913  10.375  22.952  0.00  0.00    +0.158 A 
ENDBRANCH  13  15
ENDBRANCH   4  13
TORSDOF 5
ENDMDL
MODEL 2
REMARK VINA RESULT:      -7.1      4.526      6.103
REMARK  Name = 45783767
REMARK  6 active torsions:
REMARK  status: ('A' for Active; 'I' for Inactive)
REMARK    1  A    between atoms: N_4  and  C_13
REMARK    2  A    between atoms: N_8  and  C_26
REMARK    3  A    between atoms: N_8  and  C_27
REMARK    4  A    between atoms: C_9  and  C_14
REMARK    5  A    between atoms: C_13  and  C_15
REMARK    6  A    between atoms: C_18  and  C_21
REMARK                            x       y       z     vdW  Elec       q    Type
REMARK                         _______ _______ _______ _____ _____    ______ ____
ROOT
ATOM      4  N   UNL     1      11.635   8.965  21.646  0.00  0.00    -0.287 NA
ATOM      9  C   UNL     1      12.366   7.820  21.069  0.00  0.00    +0.146 C 
ATOM     10  C   UNL     1      11.436   6.612  21.287  0.00  0.00    +0.030 C 
ATOM     11  C   UNL     1      10.238   7.164  22.046  0.00  0.00    +0.017 C 
ATOM     12  C   UNL     1      10.778   8.420  22.700  0.00  0.00    +0.085 C 
ENDROOT
BRANCH   9  14
ATOM      3  O   UNL     1      12.144   7.178  18.722  0.00  0.00    -0.336 OA
ATOM      5  N   UNL     1      13.509   8.920  19.067  0.00  0.00    -0.190 NA
ATOM      6  N   UNL     1      12.613   7.562  17.458  0.00  0.00    -0.056 NA
ATOM     14  C   UNL     1      12.719   8.030  19.611  0.00  0.00    +0.245 A 
ATOM     18  C   UNL     1      13.413   8.594  17.746  0.00  0.00    +0.204 A 
BRANCH  18  21
ATOM      7  N   UNL     1      15.057   9.387  14.506  0.00  0.00    -0.240 NA
ATOM     21  C   UNL     1      14.126   9.322  16.737  0.00  0.00    +0.041 A 
ATOM     23  C   UNL     1      14.577  10.616  16.970  0.00  0.00    +0.016 A 
ATOM     24  C   UNL     1      14.390   8.756  15.499  0.00  0.00    +0.124 A 
ATOM     25  C   UNL     1      15.267  11.296  15.972  0.00  0.00    +0.044 A 
ATOM     26  C   UNL     1      15.478  10.643  14.769  0.00  0.00    +0.118 A 
BRANCH  26   8
ATOM      8  N   UNL     1      16.182  11.350  13.762  0.00  0.00    -0.332 N 
ATOM     27  C   UNL     1      16.208  12.775  13.694  0.00  0.00    +0.127 C 
ATOM     28  H   UNL     1      16.483  10.819  12.951  0.00  0.00    +0.147 HD
ENDBRANCH  26   8
ENDBRANCH  18  21
ENDBRANCH   9  14
BRANCH   4  13
ATOM     13  C   UNL     1      12.514  10.016  22.143  0.00  0.00    +0.120 C 
BRANCH  13  15
ATOM      1  F   UNL     1      10.489  12.512  25.817  0.00  0.00    -0.202 F 
ATOM      2  F   UNL     1       9.608  14.435  24.085  0.00  0.00    -0.202 F 
ATOM     15  C   UNL     1      11.737  11.196  22.662  0.00  0.00    -0.030 A 
ATOM     16  C   UNL     1      11.467  11.310  24.026  0.00  0.00    +0.046 A 
ATOM     17  C   UNL     1      11.287  12.179  21.779  0.00  0.00    +0.008 A 
ATOM     19  C   UNL     1      10.748  12.404  24.507  0.00  0.00    +0.159 A 
ATOM     20  C   UNL     1      10.568  13.272  22.260  0.00  0.00    +0.041 A 
ATOM     22  C   UNL     1      10.298  13.386  23.624  0.00  0.00    +0.158 A 
ENDBRANCH  13  15
ENDBRANCH   4  13
TORSDOF 5
ENDMDL
MODEL 3
REMARK VINA RESULT:      -7.1     26.515     29.325
REMARK  Name = 45783767
REMARK  6 active torsions:
REMARK  status: ('A' for Active; 'I' for Inactive)
REMARK    1  A    between atoms: N_4  and  C_13
REMARK    2  A    between atoms: N_8  and  C_26
REMARK    3  A    between atoms: N_8  and  C_27
REMARK    4  A    between atoms: C_9  and  C_14
REMARK    5  A    between atoms: C_13  and  C_15
REMARK    6  A    between atoms: C_18  and  C_21
REMARK                            x       y       z     vdW  Elec       q    Type
REMARK                         _______ _______ _______ _____ _____    ______ ____
ROOT
ATOM      4  N   UNL     1      -3.365 -10.689  14.516  0.00  0.00    -0.287 NA
ATOM      9  C   UNL     1      -3.765 -11.296  15.801  0.00  0.00    +0.146 C 
ATOM     10  C   UNL     1      -2.578 -11.032  16.745  0.00  0.00    +0.030 C 
ATOM     11  C   UNL     1      -1.536 -10.328  15.888  0.00  0.00    +0.017 C 
ATOM     12  C   UNL     1      -1.903 -10.735  14.474  0.00  0.00    +0.085 C 
ENDROOT
BRANCH   9  14
ATOM      3  O   UNL     1      -5.444  -9.521  15.844  0.00  0.00    -0.336 OA
ATOM      5  N   UNL     1      -5.901 -11.244  17.200  0.00  0.00    -0.190 NA
ATOM      6  N   UNL     1      -6.659  -9.213  16.470  0.00  0.00    -0.056 NA
ATOM     14  C   UNL     1      -5.068 -10.733  16.330  0.00  0.00    +0.245 A 
ATOM     18  C   UNL     1      -6.861 -10.276  17.254  0.00  0.00    +0.204 A 
BRANCH  18  21
ATOM      7  N   UNL     1      -9.001 -11.280  20.125  0.00  0.00    -0.240 NA
ATOM     21  C   UNL     1      -8.012 -10.402  18.101  0.00  0.00    +0.041 A 
ATOM     23  C   UNL     1      -9.221  -9.809  17.759  0.00  0.00    +0.016 A 
ATOM     24  C   UNL     1      -7.954 -11.121  19.284  0.00  0.00    +0.124 A 
ATOM     25  C   UNL     1     -10.320  -9.950  18.599  0.00  0.00    +0.044 A 
ATOM     26  C   UNL     1     -10.160 -10.688  19.759  0.00  0.00    +0.118 A 
BRANCH  26   8
ATOM      8  N   UNL     1     -11.288 -10.822  20.606  0.00  0.00    -0.332 N 
ATOM     27  C   UNL     1     -12.437  -9.983  20.497  0.00  0.00    +0.127 C 
ATOM     28  H   UNL     1     -11.172 -11.380  21.445  0.00  0.00    +0.147 HD
ENDBRANCH  26   8
ENDBRANCH  18  21
ENDBRANCH   9  14
BRANCH   4  13
ATOM     13  C   UNL     1      -3.967 -11.341  13.360  0.00  0.00    +0.120 C 
BRANCH  13  15
ATOM      1  F   UNL     1      -3.173  -8.767   9.289  0.00  0.00    -0.202 F 
ATOM      2  F   UNL     1      -5.642  -7.610   9.485  0.00  0.00    -0.202 F 
ATOM     15  C   UNL     1      -4.414 -10.344  12.325  0.00  0.00    -0.030 A 
ATOM     16  C   UNL     1      -3.570 -10.010  11.266  0.00  0.00    +0.046 A 
ATOM     17  C   UNL     1      -5.674  -9.753  12.424  0.00  0.00    +0.008 A 
ATOM     19  C   UNL     1      -3.984  -9.087  10.306  0.00  0.00    +0.159 A 
ATOM     20  C   UNL     1      -6.089  -8.830  11.464  0.00  0.00    +0.041 A 
ATOM     22  C   UNL     1      -5.245  -8.497  10.405  0.00  0.00    +0.158 A 
ENDBRANCH  13  15
ENDBRANCH   4  13
TORSDOF 5
ENDMDL
MODEL 4
REMARK VINA RESULT:      -7.0      4.495      8.324
REMARK  Name = 45783767
REMARK  6 active torsions:
REMARK  status: ('A' for Active; 'I' for Inactive)
REMARK    1  A    between atoms: N_4  and  C_13
REMARK    2  A    between atoms: N_8  and  C_26
REMARK    3  A    between atoms: N_8  and  C_27
REMARK    4  A    between atoms: C_9  and  C_14
REMARK    5  A    between atoms: C_13  and  C_15
REMARK    6  A    between atoms: C_18  and  C_21
REMARK                            x       y       z     vdW  Elec       q    Type
REMARK                         _______ _______ _______ _____ _____    ______ ____
ROOT
ATOM      4  N   UNL     1      12.872   7.963  20.736  0.00  0.00    -0.287 NA
ATOM      9  C   UNL     1      11.601   8.709  20.640  0.00  0.00    +0.146 C 
ATOM     10  C   UNL     1      10.551   7.776  21.273  0.00  0.00    +0.030 C 
ATOM     11  C   UNL     1      11.313   6.510  21.638  0.00  0.00    +0.017 C 
ATOM     12  C   UNL     1      12.520   6.543  20.722  0.00  0.00    +0.085 C 
ENDROOT
BRANCH   9  14
ATOM      3  O   UNL     1      12.024  11.113  20.539  0.00  0.00    -0.336 OA
ATOM      5  N   UNL     1      11.430  10.375  22.568  0.00  0.00    -0.190 NA
ATOM      6  N   UNL     1      12.016  12.238  21.375  0.00  0.00    -0.056 NA
ATOM     14  C   UNL     1      11.667  10.061  21.320  0.00  0.00    +0.245 A 
ATOM     18  C   UNL     1      11.657  11.720  22.554  0.00  0.00    +0.204 A 
BRANCH  18  21
ATOM      7  N   UNL     1      12.387  13.210  25.883  0.00  0.00    -0.240 NA
ATOM     21  C   UNL     1      11.513  12.521  23.736  0.00  0.00    +0.041 A 
ATOM     23  C   UNL     1      10.417  13.358  23.905  0.00  0.00    +0.016 A 
ATOM     24  C   UNL     1      12.462  12.482  24.745  0.00  0.00    +0.124 A 
ATOM     25  C   UNL     1      10.305  14.122  25.062  0.00  0.00    +0.044 A 
ATOM     26  C   UNL     1      11.307  14.013  26.011  0.00  0.00    +0.118 A 
BRANCH  26   8
ATOM      8  N   UNL     1      11.179  14.797  27.184  0.00  0.00    -0.332 N 
ATOM     27  C   UNL     1      12.304  15.317  27.891  0.00  0.00    +0.127 C 
ATOM     28  H   UNL     1      10.275  14.794  27.646  0.00  0.00    +0.147 HD
ENDBRANCH  26   8
ENDBRANCH  18  21
ENDBRANCH   9  14
BRANCH   4  13
ATOM     13  C   UNL     1      13.819   8.304  19.682  0.00  0.00    +0.120 C 
BRANCH  13  15
ATOM      1  F   UNL     1      17.475   5.305  18.475  0.00  0.00    -0.202 F 
ATOM      2  F   UNL     1      18.916   6.110  20.654  0.00  0.00    -0.202 F 
ATOM     15  C   UNL     1      15.180   7.717  19.942  0.00  0.00    -0.030 A 
ATOM     16  C   UNL     1      15.708   6.763  19.071  0.00  0.00    +0.046 A 
ATOM     17  C   UNL     1      15.916   8.128  21.054  0.00  0.00    +0.008 A 
ATOM     19  C   UNL     1      16.969   6.220  19.311  0.00  0.00    +0.159 A 
ATOM     20  C   UNL     1      17.178   7.585  21.294  0.00  0.00    +0.041 A 
ATOM     22  C   UNL     1      17.705   6.631  20.423  0.00  0.00    +0.158 A 
ENDBRANCH  13  15
ENDBRANCH   4  13
TORSDOF 5
ENDMDL
MODEL 5
REMARK VINA RESULT:      -6.8      3.992      6.955
REMARK  Name = 45783767
REMARK  6 active torsions:
REMARK  status: ('A' for Active; 'I' for Inactive)
REMARK    1  A    between atoms: N_4  and  C_13
REMARK    2  A    between atoms: N_8  and  C_26
REMARK    3  A    between atoms: N_8  and  C_27
REMARK    4  A    between atoms: C_9  and  C_14
REMARK    5  A    between atoms: C_13  and  C_15
REMARK    6  A    between atoms: C_18  and  C_21
REMARK                            x       y       z     vdW  Elec       q    Type
REMARK                         _______ _______ _______ _____ _____    ______ ____
ROOT
ATOM      4  N   UNL     1      13.092   7.861  20.539  0.00  0.00    -0.287 NA
ATOM      9  C   UNL     1      12.281   7.794  19.307  0.00  0.00    +0.146 C 
ATOM     10  C   UNL     1      10.981   8.542  19.654  0.00  0.00    +0.030 C 
ATOM     11  C   UNL     1      11.128   8.939  21.116  0.00  0.00    +0.017 C 
ATOM     12  C   UNL     1      12.148   7.954  21.652  0.00  0.00    +0.085 C 
ENDROOT
BRANCH   9  14
ATOM      3  O   UNL     1      12.971   7.648  16.968  0.00  0.00    -0.336 OA
ATOM      5  N   UNL     1      13.640   9.518  18.002  0.00  0.00    -0.190 NA
ATOM      6  N   UNL     1      13.682   8.387  16.014  0.00  0.00    -0.056 NA
ATOM     14  C   UNL     1      12.993   8.385  18.108  0.00  0.00    +0.245 A 
ATOM     18  C   UNL     1      14.045   9.475  16.700  0.00  0.00    +0.204 A 
BRANCH  18  21
ATOM      7  N   UNL     1      15.770  12.747  16.316  0.00  0.00    -0.240 NA
ATOM     21  C   UNL     1      14.809  10.538  16.113  0.00  0.00    +0.041 A 
ATOM     23  C   UNL     1      15.321  10.426  14.826  0.00  0.00    +0.016 A 
ATOM     24  C   UNL     1      15.059  11.709  16.811  0.00  0.00    +0.124 A 
ATOM     25  C   UNL     1      16.057  11.473  14.283  0.00  0.00    +0.044 A 
ATOM     26  C   UNL     1      16.252  12.602  15.062  0.00  0.00    +0.118 A 
BRANCH  26   8
ATOM      8  N   UNL     1      17.005  13.660  14.495  0.00  0.00    -0.332 N 
ATOM     27  C   UNL     1      18.265  13.455  13.858  0.00  0.00    +0.127 C 
ATOM     28  H   UNL     1      16.738  14.605  14.752  0.00  0.00    +0.147 HD
ENDBRANCH  26   8
ENDBRANCH  18  21
ENDBRANCH   9  14
BRANCH   4  13
ATOM     13  C   UNL     1      14.006   6.735  20.687  0.00  0.00    +0.120 C 
BRANCH  13  15
ATOM      1  F   UNL     1      18.766   6.086  19.826  0.00  0.00    -0.202 F 
ATOM      2  F   UNL     1      19.363   8.428  21.103  0.00  0.00    -0.202 F 
ATOM     15  C   UNL     1      15.437   7.186  20.799  0.00  0.00    -0.030 A 
ATOM     16  C   UNL     1      16.459   6.411  20.250  0.00  0.00    +0.046 A 
ATOM     17  C   UNL     1      15.743   8.382  21.450  0.00  0.00    +0.008 A 
ATOM     19  C   UNL     1      17.785   6.830  20.352  0.00  0.00    +0.159 A 
ATOM     20  C   UNL     1      17.069   8.801  21.553  0.00  0.00    +0.041 A 
ATOM     22  C   UNL     1      18.091   8.026  21.004  0.00  0.00    +0.158 A 
ENDBRANCH  13  15
ENDBRANCH   4  13
TORSDOF 5
ENDMDL
MODEL 6
REMARK VINA RESULT:      -6.8      2.484      4.142
REMARK  Name = 45783767
REMARK  6 active torsions:
REMARK  status: ('A' for Active; 'I' for Inactive)
REMARK    1  A    between atoms: N_4  and  C_13
REMARK    2  A    between atoms: N_8  and  C_26
REMARK    3  A    between atoms: N_8  and  C_27
REMARK    4  A    between atoms: C_9  and  C_14
REMARK    5  A    between atoms: C_13  and  C_15
REMARK    6  A    between atoms: C_18  and  C_21
REMARK                            x       y       z     vdW  Elec       q    Type
REMARK                         _______ _______ _______ _____ _____    ______ ____
ROOT
ATOM      4  N   UNL     1      12.607   7.550  20.354  0.00  0.00    -0.287 NA
ATOM      9  C   UNL     1      13.459   8.755  20.359  0.00  0.00    +0.146 C 
ATOM     10  C   UNL     1      12.790   9.703  21.372  0.00  0.00    +0.030 C 
ATOM     11  C   UNL     1      11.540   8.971  21.836  0.00  0.00    +0.017 C 
ATOM     12  C   UNL     1      11.260   7.994  20.711  0.00  0.00    +0.085 C 
ENDROOT
BRANCH   9  14
ATOM      3  O   UNL     1      15.494   9.280  21.606  0.00  0.00    -0.336 OA
ATOM      5  N   UNL     1      15.675   7.488  20.275  0.00  0.00    -0.190 NA
ATOM      6  N   UNL     1      16.802   8.803  21.770  0.00  0.00    -0.056 NA
ATOM     14  C   UNL     1      14.900   8.448  20.711  0.00  0.00    +0.245 A 
ATOM     18  C   UNL     1      16.831   7.747  20.951  0.00  0.00    +0.204 A 
BRANCH  18  21
ATOM      7  N   UNL     1      19.106   5.115  19.636  0.00  0.00    -0.240 NA
ATOM     21  C   UNL     1      17.998   6.928  20.790  0.00  0.00    +0.041 A 
ATOM     23  C   UNL     1      19.121   7.118  21.586  0.00  0.00    +0.016 A 
ATOM     24  C   UNL     1      18.040   5.922  19.838  0.00  0.00    +0.124 A 
ATOM     25  C   UNL     1      20.238   6.308  21.407  0.00  0.00    +0.044 A 
ATOM     26  C   UNL     1      20.180   5.331  20.428  0.00  0.00    +0.118 A 
BRANCH  26   8
ATOM      8  N   UNL     1      21.325   4.514  20.257  0.00  0.00    -0.332 N 
ATOM     27  C   UNL     1      21.632   3.424  21.125  0.00  0.00    +0.127 C 
ATOM     28  H   UNL     1      22.051   4.860  19.638  0.00  0.00    +0.147 HD
ENDBRANCH  26   8
ENDBRANCH  18  21
ENDBRANCH   9  14
BRANCH   4  13
ATOM     13  C   UNL     1      12.630   6.835  19.084  0.00  0.00    +0.120 C 
BRANCH  13  15
ATOM      1  F   UNL     1      10.269   9.543  15.780  0.00  0.00    -0.202 F 
ATOM      2  F   UNL     1      12.638  10.371  14.697  0.00  0.00    -0.202 F 
ATOM     15  C   UNL     1      12.632   7.779  17.911  0.00  0.00    -0.030 A 
ATOM     16  C   UNL     1      11.425   8.233  17.378  0.00  0.00    +0.046 A 
ATOM     17  C   UNL     1      13.841   8.202  17.358  0.00  0.00    +0.008 A 
ATOM     19  C   UNL     1      11.427   9.108  16.292  0.00  0.00    +0.159 A 
ATOM     20  C   UNL     1      13.843   9.078  16.273  0.00  0.00    +0.041 A 
ATOM     22  C   UNL     1      12.636   9.531  15.739  0.00  0.00    +0.158 A 
ENDBRANCH  13  15
ENDBRANCH   4  13
TORSDOF 5
ENDMDL
MODEL 7
REMARK VINA RESULT:      -6.7     26.203     29.085
REMARK  Name = 45783767
REMARK  6 active torsions:
REMARK  status: ('A' for Active; 'I' for Inactive)
REMARK    1  A    between atoms: N_4  and  C_13
REMARK    2  A    between atoms: N_8  and  C_26
REMARK    3  A    between atoms: N_8  and  C_27
REMARK    4  A    between atoms: C_9  and  C_14
REMARK    5  A    between atoms: C_13  and  C_15
REMARK    6  A    between atoms: C_18  and  C_21
REMARK                            x       y       z     vdW  Elec       q    Type
REMARK                         _______ _______ _______ _____ _____    ______ ____
ROOT
ATOM      4  N   UNL     1      -2.998 -10.515  14.065  0.00  0.00    -0.287 NA
ATOM      9  C   UNL     1      -3.343 -11.312  15.260  0.00  0.00    +0.146 C 
ATOM     10  C   UNL     1      -2.308 -10.894  16.320  0.00  0.00    +0.030 C 
ATOM     11  C   UNL     1      -1.389  -9.908  15.613  0.00  0.00    +0.017 C 
ATOM     12  C   UNL     1      -1.562 -10.249  14.146  0.00  0.00    +0.085 C 
ENDROOT
BRANCH   9  14
ATOM      3  O   UNL     1      -5.337 -12.089  16.438  0.00  0.00    -0.336 OA
ATOM      5  N   UNL     1      -5.555 -10.060  15.516  0.00  0.00    -0.190 NA
ATOM      6  N   UNL     1      -6.636 -11.660  16.742  0.00  0.00    -0.056 NA
ATOM     14  C   UNL     1      -4.770 -11.088  15.716  0.00  0.00    +0.245 A 
ATOM     18  C   UNL     1      -6.688 -10.457  16.163  0.00  0.00    +0.204 A 
BRANCH  18  21
ATOM      7  N   UNL     1      -9.349  -8.241  17.520  0.00  0.00    -0.240 NA
ATOM     21  C   UNL     1      -7.856  -9.625  16.216  0.00  0.00    +0.041 A 
ATOM     23  C   UNL     1      -8.619  -9.389  15.079  0.00  0.00    +0.016 A 
ATOM     24  C   UNL     1      -8.259  -9.034  17.402  0.00  0.00    +0.124 A 
ATOM     25  C   UNL     1      -9.747  -8.579  15.161  0.00  0.00    +0.044 A 
ATOM     26  C   UNL     1     -10.065  -8.034  16.393  0.00  0.00    +0.118 A 
BRANCH  26   8
ATOM      8  N   UNL     1     -11.217  -7.210  16.461  0.00  0.00    -0.332 N 
ATOM     27  C   UNL     1     -11.375  -6.039  15.662  0.00  0.00    +0.127 C 
ATOM     28  H   UNL     1     -11.832  -7.342  17.257  0.00  0.00    +0.147 HD
ENDBRANCH  26   8
ENDBRANCH  18  21
ENDBRANCH   9  14
BRANCH   4  13
ATOM     13  C   UNL     1      -3.365 -11.168  12.814  0.00  0.00    +0.120 C 
BRANCH  13  15
ATOM      1  F   UNL     1      -3.592  -8.550   8.701  0.00  0.00    -0.202 F 
ATOM      2  F   UNL     1      -6.097  -7.667   9.347  0.00  0.00    -0.202 F 
ATOM     15  C   UNL     1      -4.094 -10.232  11.888  0.00  0.00    -0.030 A 
ATOM     16  C   UNL     1      -3.493  -9.815  10.700  0.00  0.00    +0.046 A 
ATOM     17  C   UNL     1      -5.373  -9.781  12.217  0.00  0.00    +0.008 A 
ATOM     19  C   UNL     1      -4.169  -8.949   9.841  0.00  0.00    +0.159 A 
ATOM     20  C   UNL     1      -6.049  -8.915  11.358  0.00  0.00    +0.041 A 
ATOM     22  C   UNL     1      -5.448  -8.498  10.170  0.00  0.00    +0.158 A 
ENDBRANCH  13  15
ENDBRANCH   4  13
TORSDOF 5
ENDMDL
MODEL 8
REMARK VINA RESULT:      -6.6     27.553     30.859
REMARK  Name = 45783767
REMARK  6 active torsions:
REMARK  status: ('A' for Active; 'I' for Inactive)
REMARK    1  A    between atoms: N_4  and  C_13
REMARK    2  A    between atoms: N_8  and  C_26
REMARK    3  A    between atoms: N_8  and  C_27
REMARK    4  A    between atoms: C_9  and  C_14
REMARK    5  A    between atoms: C_13  and  C_15
REMARK    6  A    between atoms: C_18  and  C_21
REMARK                            x       y       z     vdW  Elec       q    Type
REMARK                         _______ _______ _______ _____ _____    ______ ____
ROOT
ATOM      4  N   UNL     1     -15.213   6.105  21.410  0.00  0.00    -0.287 NA
ATOM      9  C   UNL     1     -16.525   5.843  22.034  0.00  0.00    +0.146 C 
ATOM     10  C   UNL     1     -17.504   5.726  20.851  0.00  0.00    +0.030 C 
ATOM     11  C   UNL     1     -16.664   5.997  19.611  0.00  0.00    +0.017 C 
ATOM     12  C   UNL     1     -15.485   6.787  20.145  0.00  0.00    +0.085 C 
ENDROOT
BRANCH   9  14
ATOM      3  O   UNL     1     -16.578   3.411  22.268  0.00  0.00    -0.336 OA
ATOM      5  N   UNL     1     -16.461   4.514  24.214  0.00  0.00    -0.190 NA
ATOM      6  N   UNL     1     -16.557   2.432  23.270  0.00  0.00    -0.056 NA
ATOM     14  C   UNL     1     -16.517   4.607  22.910  0.00  0.00    +0.245 A 
ATOM     18  C   UNL     1     -16.489   3.161  24.388  0.00  0.00    +0.204 A 
BRANCH  18  21
ATOM      7  N   UNL     1     -16.647   0.593  27.073  0.00  0.00    -0.240 NA
ATOM     21  C   UNL     1     -16.443   2.568  25.693  0.00  0.00    +0.041 A 
ATOM     23  C   UNL     1     -16.168   3.335  26.819  0.00  0.00    +0.016 A 
ATOM     24  C   UNL     1     -16.674   1.213  25.872  0.00  0.00    +0.124 A 
ATOM     25  C   UNL     1     -16.131   2.732  28.072  0.00  0.00    +0.044 A 
ATOM     26  C   UNL     1     -16.375   1.371  28.145  0.00  0.00    +0.118 A 
BRANCH  26   8
ATOM      8  N   UNL     1     -16.333   0.771  29.428  0.00  0.00    -0.332 N 
ATOM     27  C   UNL     1     -15.177   0.101  29.928  0.00  0.00    +0.127 C 
ATOM     28  H   UNL     1     -17.221   0.627  29.899  0.00  0.00    +0.147 HD
ENDBRANCH  26   8
ENDBRANCH  18  21
ENDBRANCH   9  14
BRANCH   4  13
ATOM     13  C   UNL     1     -14.314   6.873  22.264  0.00  0.00    +0.120 C 
BRANCH  13  15
ATOM      1  F   UNL     1     -12.203  10.940  20.583  0.00  0.00    -0.202 F 
ATOM      2  F   UNL     1     -10.301   9.470  19.282  0.00  0.00    -0.202 F 
ATOM     15  C   UNL     1     -13.243   7.567  21.467  0.00  0.00    -0.030 A 
ATOM     16  C   UNL     1     -13.219   8.960  21.392  0.00  0.00    +0.046 A 
ATOM     17  C   UNL     1     -12.271   6.818  20.802  0.00  0.00    +0.008 A 
ATOM     19  C   UNL     1     -12.226   9.603  20.655  0.00  0.00    +0.159 A 
ATOM     20  C   UNL     1     -11.278   7.461  20.065  0.00  0.00    +0.041 A 
ATOM     22  C   UNL     1     -11.254   8.853  19.990  0.00  0.00    +0.158 A 
ENDBRANCH  13  15
ENDBRANCH   4  13
TORSDOF 5
ENDMDL
MODEL 9
REMARK VINA RESULT:      -6.6      4.946      8.042
REMARK  Name = 45783767
REMARK  6 active torsions:
REMARK  status: ('A' for Active; 'I' for Inactive)
REMARK    1  A    between atoms: N_4  and  C_13
REMARK    2  A    between atoms: N_8  and  C_26
REMARK    3  A    between atoms: N_8  and  C_27
REMARK    4  A    between atoms: C_9  and  C_14
REMARK    5  A    between atoms: C_13  and  C_15
REMARK    6  A    between atoms: C_18  and  C_21
REMARK                            x       y       z     vdW  Elec       q    Type
REMARK                         _______ _______ _______ _____ _____    ______ ____
ROOT
ATOM      4  N   UNL     1      14.372  12.733  14.136  0.00  0.00    -0.287 NA
ATOM      9  C   UNL     1      15.396  11.999  14.906  0.00  0.00    +0.146 C 
ATOM     10  C   UNL     1      15.859  12.993  15.987  0.00  0.00    +0.030 C 
ATOM     11  C   UNL     1      15.086  14.274  15.708  0.00  0.00    +0.017 C 
ATOM     12  C   UNL     1      14.711  14.152  14.244  0.00  0.00    +0.085 C 
ENDROOT
BRANCH   9  14
ATOM      3  O   UNL     1      14.619   9.701  14.608  0.00  0.00    -0.336 OA
ATOM      5  N   UNL     1      14.609  10.400  16.736  0.00  0.00    -0.190 NA
ATOM      6  N   UNL     1      14.147   8.624  15.370  0.00  0.00    -0.056 NA
ATOM     14  C   UNL     1      14.868  10.705  15.490  0.00  0.00    +0.245 A 
ATOM     18  C   UNL     1      14.169   9.115  16.613  0.00  0.00    +0.204 A 
BRANCH  18  21
ATOM      7  N   UNL     1      11.971   7.506  19.145  0.00  0.00    -0.240 NA
ATOM     21  C   UNL     1      13.761   8.346  17.753  0.00  0.00    +0.041 A 
ATOM     23  C   UNL     1      14.696   7.710  18.560  0.00  0.00    +0.016 A 
ATOM     24  C   UNL     1      12.422   8.214  18.085  0.00  0.00    +0.124 A 
ATOM     25  C   UNL     1      14.271   6.972  19.660  0.00  0.00    +0.044 A 
ATOM     26  C   UNL     1      12.910   6.901  19.906  0.00  0.00    +0.118 A 
BRANCH  26   8
ATOM      8  N   UNL     1      12.492   6.145  21.029  0.00  0.00    -0.332 N 
ATOM     27  C   UNL     1      11.168   6.216  21.557  0.00  0.00    +0.127 C 
ATOM     28  H   UNL     1      13.218   5.719  21.596  0.00  0.00    +0.147 HD
ENDBRANCH  26   8
ENDBRANCH  18  21
ENDBRANCH   9  14
BRANCH   4  13
ATOM     13  C   UNL     1      14.274  12.296  12.749  0.00  0.00    +0.120 C 
BRANCH  13  15
ATOM      1  F   UNL     1       9.518  11.791  13.721  0.00  0.00    -0.202 F 
ATOM      2  F   UNL     1       8.917  11.881  11.056  0.00  0.00    -0.202 F 
ATOM     15  C   UNL     1      12.843  12.184  12.297  0.00  0.00    -0.030 A 
ATOM     16  C   UNL     1      11.823  12.036  13.237  0.00  0.00    +0.046 A 
ATOM     17  C   UNL     1      12.535  12.231  10.937  0.00  0.00    +0.008 A 
ATOM     19  C   UNL     1      10.497  11.934  12.818  0.00  0.00    +0.159 A 
ATOM     20  C   UNL     1      11.209  12.128  10.518  0.00  0.00    +0.041 A 
ATOM     22  C   UNL     1      10.189  11.980  11.458  0.00  0.00    +0.158 A 
ENDBRANCH  13  15
ENDBRANCH   4  13
TORSDOF 5
ENDMDL
MODEL 10
REMARK VINA RESULT:      -6.4     15.168     18.719
REMARK  Name = 45783767
REMARK  6 active torsions:
REMARK  status: ('A' for Active; 'I' for Inactive)
REMARK    1  A    between atoms: N_4  and  C_13
REMARK    2  A    between atoms: N_8  and  C_26
REMARK    3  A    between atoms: N_8  and  C_27
REMARK    4  A    between atoms: C_9  and  C_14
REMARK    5  A    between atoms: C_13  and  C_15
REMARK    6  A    between atoms: C_18  and  C_21
REMARK                            x       y       z     vdW  Elec       q    Type
REMARK                         _______ _______ _______ _____ _____    ______ ____
ROOT
ATOM      4  N   UNL     1       9.397   7.722   6.329  0.00  0.00    -0.287 NA
ATOM      9  C   UNL     1      10.521   6.775   6.475  0.00  0.00    +0.146 C 
ATOM     10  C   UNL     1      10.301   6.116   7.850  0.00  0.00    +0.030 C 
ATOM     11  C   UNL     1       9.068   6.798   8.425  0.00  0.00    +0.017 C 
ATOM     12  C   UNL     1       9.012   8.119   7.683  0.00  0.00    +0.085 C 
ENDROOT
BRANCH   9  14
ATOM      3  O   UNL     1      10.049   4.543   5.601  0.00  0.00    -0.336 OA
ATOM      5  N   UNL     1      11.084   5.895   4.145  0.00  0.00    -0.190 NA
ATOM      6  N   UNL     1      10.221   3.794   4.429  0.00  0.00    -0.056 NA
ATOM     14  C   UNL     1      10.583   5.767   5.347  0.00  0.00    +0.245 A 
ATOM     18  C   UNL     1      10.839   4.660   3.619  0.00  0.00    +0.204 A 
BRANCH  18  21
ATOM      7  N   UNL     1      10.616   4.119  -0.054  0.00  0.00    -0.240 NA
ATOM     21  C   UNL     1      11.222   4.323   2.278  0.00  0.00    +0.041 A 
ATOM     23  C   UNL     1      12.509   3.885   1.989  0.00  0.00    +0.016 A 
ATOM     24  C   UNL     1      10.320   4.422   1.231  0.00  0.00    +0.124 A 
ATOM     25  C   UNL     1      12.851   3.564   0.680  0.00  0.00    +0.044 A 
ATOM     26  C   UNL     1      11.877   3.698  -0.296  0.00  0.00    +0.118 A 
BRANCH  26   8
ATOM      8  N   UNL     1      12.241   3.369  -1.625  0.00  0.00    -0.332 N 
ATOM     27  C   UNL     1      11.311   2.843  -2.571  0.00  0.00    +0.127 C 
ATOM     28  H   UNL     1      13.233   3.299  -1.829  0.00  0.00    +0.147 HD
ENDBRANCH  26   8
ENDBRANCH  18  21
ENDBRANCH   9  14
BRANCH   4  13
ATOM     13  C   UNL     1       9.719   8.870   5.491  0.00  0.00    +0.120 C 
BRANCH  13  15
ATOM      1  F   UNL     1       5.327  10.274   3.890  0.00  0.00    -0.202 F 
ATOM      2  F   UNL     1       5.976   9.549   1.335  0.00  0.00    -0.202 F 
ATOM     15  C   UNL     1       8.718   9.051   4.381  0.00  0.00    -0.030 A 
ATOM     16  C   UNL     1       7.461   9.589   4.655  0.00  0.00    +0.046 A 
ATOM     17  C   UNL     1       9.049   8.682   3.077  0.00  0.00    +0.008 A 
ATOM     19  C   UNL     1       6.534   9.758   3.627  0.00  0.00    +0.159 A 
ATOM     20  C   UNL     1       8.123   8.850   2.048  0.00  0.00    +0.041 A 
ATOM     22  C   UNL     1       6.865   9.388   2.322  0.00  0.00    +0.158 A 
ENDBRANCH  13  15
ENDBRANCH   4  13
TORSDOF 5
ENDMDL
