MODEL 1
REMARK VINA RESULT:      -6.2      0.000      0.000
REMARK  Name = 38027519
REMARK  12 active torsions:
REMARK  status: ('A' for Active; 'I' for Inactive)
REMARK    1  A    between atoms: S_1  and  N_6
REMARK    2  A    between atoms: S_1  and  C_21
REMARK    3  A    between atoms: N_6  and  C_15
REMARK    4  A    between atoms: N_7  and  C_22
REMARK    5  A    between atoms: C_8  and  C_12
REMARK    6  A    between atoms: C_9  and  C_15
REMARK    7  A    between atoms: C_11  and  C_16
REMARK    8  A    between atoms: C_12  and  C_17
REMARK    9  A    between atoms: C_12  and  C_18
REMARK   10  A    between atoms: C_13  and  C_19
REMARK   11  A    between atoms: C_16  and  C_20
REMARK   12  A    between atoms: C_22  and  C_23
REMARK                            x       y       z     vdW  Elec       q    Type
REMARK                         _______ _______ _______ _____ _____    ______ ____
ROOT
ATOM      8  C   UNL     1      -5.735 -10.600  15.194  0.00  0.00    +0.000 C 
ATOM      9  C   UNL     1      -6.595 -10.588  16.482  0.00  0.00    +0.030 C 
ATOM     10  C   UNL     1      -4.781 -11.805  15.196  0.00  0.00    +0.012 C 
ATOM     11  C   UNL     1      -3.837 -11.798  16.413  0.00  0.00    +0.023 C 
ATOM     13  C   UNL     1      -4.584 -11.525  17.702  0.00  0.00    -0.073 C 
ATOM     14  C   UNL     1      -5.821 -10.996  17.714  0.00  0.00    -0.023 C 
ATOM     19  C   UNL     1      -3.894 -11.914  18.980  0.00  0.00    +0.039 C 
ENDROOT
BRANCH   8  12
ATOM     12  C   UNL     1      -6.601 -10.626  13.931  0.00  0.00    -0.013 C 
ATOM     17  C   UNL     1      -6.713 -12.049  13.392  0.00  0.00    +0.007 C 
ATOM     18  C   UNL     1      -6.027  -9.690  12.872  0.00  0.00    +0.007 C 
ENDBRANCH   8  12
BRANCH   9  15
ATOM     15  C   UNL     1      -7.232  -9.214  16.710  0.00  0.00    +0.113 C 
BRANCH  15   6
ATOM      6  N   UNL     1      -8.153  -9.295  17.856  0.00  0.00    -0.194 NA
ATOM     29  H   UNL     1      -7.805  -9.880  18.627  0.00  0.00    +0.148 HD
BRANCH   6   1
ATOM      1  S   UNL     1      -9.835  -9.380  17.571  0.00  0.00    +0.027 S 
ATOM      4  O   UNL     1     -10.530  -9.639  18.817  0.00  0.00    -0.158 OA
ATOM      5  O   UNL     1     -10.066 -10.213  16.406  0.00  0.00    -0.158 OA
ATOM     21  C   UNL     1     -10.171  -7.700  17.096  0.00  0.00    +0.214 C 
ENDBRANCH   6   1
ENDBRANCH  15   6
ENDBRANCH   9  15
BRANCH  11  16
ATOM     16  C   UNL     1      -2.692 -10.800  16.219  0.00  0.00    +0.103 C 
BRANCH  16  20
ATOM      3  O   UNL     1      -1.161 -12.025  14.801  0.00  0.00    -0.276 OA
ATOM      7  N   UNL     1      -2.167 -10.090  13.997  0.00  0.00    -0.311 N 
ATOM     20  C   UNL     1      -1.914 -11.066  14.950  0.00  0.00    +0.214 C 
ATOM     30  H   UNL     1      -2.813  -9.337  14.210  0.00  0.00    +0.149 HD
BRANCH   7  22
ATOM     22  C   UNL     1      -1.558 -10.089  12.687  0.00  0.00    +0.139 C 
BRANCH  22  23
ATOM      2  F   UNL     1      -5.250 -11.405   8.644  0.00  0.00    -0.205 F 
ATOM     23  C   UNL     1      -2.542 -10.440  11.609  0.00  0.00    -0.030 A 
ATOM     24  C   UNL     1      -3.088 -11.722  11.553  0.00  0.00    +0.008 A 
ATOM     25  C   UNL     1      -2.911  -9.483  10.664  0.00  0.00    +0.008 A 
ATOM     26  C   UNL     1      -4.002 -12.049  10.552  0.00  0.00    +0.038 A 
ATOM     27  C   UNL     1      -3.825  -9.810   9.662  0.00  0.00    +0.038 A 
ATOM     28  C   UNL     1      -4.371 -11.092   9.605  0.00  0.00    +0.123 A 
ENDBRANCH  22  23
ENDBRANCH   7  22
ENDBRANCH  16  20
ENDBRANCH  11  16
TORSDOF 8
ENDMDL
MODEL 2
REMARK VINA RESULT:      -6.1     27.826     29.576
REMARK  Name = 38027519
REMARK  12 active torsions:
REMARK  status: ('A' for Active; 'I' for Inactive)
REMARK    1  A    between atoms: S_1  and  N_6
REMARK    2  A    between atoms: S_1  and  C_21
REMARK    3  A    between atoms: N_6  and  C_15
REMARK    4  A    between atoms: N_7  and  C_22
REMARK    5  A    between atoms: C_8  and  C_12
REMARK    6  A    between atoms: C_9  and  C_15
REMARK    7  A    between atoms: C_11  and  C_16
REMARK    8  A    between atoms: C_12  and  C_17
REMARK    9  A    between atoms: C_12  and  C_18
REMARK   10  A    between atoms: C_13  and  C_19
REMARK   11  A    between atoms: C_16  and  C_20
REMARK   12  A    between atoms: C_22  and  C_23
REMARK                            x       y       z     vdW  Elec       q    Type
REMARK                         _______ _______ _______ _____ _____    ______ ____
ROOT
ATOM      8  C   UNL     1      11.873  12.914  22.807  0.00  0.00    +0.000 C 
ATOM      9  C   UNL     1      10.991  12.255  23.896  0.00  0.00    +0.030 C 
ATOM     10  C   UNL     1      11.526  12.349  21.421  0.00  0.00    +0.012 C 
ATOM     11  C   UNL     1      11.721  10.822  21.349  0.00  0.00    +0.023 C 
ATOM     13  C   UNL     1      11.102  10.120  22.540  0.00  0.00    -0.073 C 
ATOM     14  C   UNL     1      10.770  10.779  23.666  0.00  0.00    -0.023 C 
ATOM     19  C   UNL     1      10.831   8.648  22.394  0.00  0.00    +0.039 C 
ENDROOT
BRANCH   8  12
ATOM     12  C   UNL     1      11.724  14.438  22.797  0.00  0.00    -0.013 C 
ATOM     17  C   UNL     1      10.251  14.827  22.733  0.00  0.00    +0.007 C 
ATOM     18  C   UNL     1      12.495  15.042  21.628  0.00  0.00    +0.007 C 
ENDBRANCH   8  12
BRANCH   9  15
ATOM     15  C   UNL     1      11.583  12.471  25.293  0.00  0.00    +0.113 C 
BRANCH  15   6
ATOM      6  N   UNL     1      12.599  11.438  25.549  0.00  0.00    -0.194 NA
ATOM     29  H   UNL     1      12.280  10.687  26.175  0.00  0.00    +0.148 HD
BRANCH   6   1
ATOM      1  S   UNL     1      14.234  11.901  25.733  0.00  0.00    +0.027 S 
ATOM      4  O   UNL     1      14.929  11.753  24.469  0.00  0.00    -0.158 OA
ATOM      5  O   UNL     1      14.754  11.291  26.941  0.00  0.00    -0.158 OA
ATOM     21  C   UNL     1      14.046  13.639  26.054  0.00  0.00    +0.214 C 
ENDBRANCH   6   1
ENDBRANCH  15   6
ENDBRANCH   9  15
BRANCH  11  16
ATOM     16  C   UNL     1      13.202  10.460  21.206  0.00  0.00    +0.103 C 
BRANCH  16  20
ATOM      3  O   UNL     1      13.099   9.701  18.911  0.00  0.00    -0.276 OA
ATOM      7  N   UNL     1      14.096   8.352  20.519  0.00  0.00    -0.311 N 
ATOM     20  C   UNL     1      13.444   9.492  20.071  0.00  0.00    +0.214 C 
ATOM     30  H   UNL     1      14.349   8.271  21.499  0.00  0.00    +0.149 HD
BRANCH   7  22
ATOM     22  C   UNL     1      14.454   7.254  19.651  0.00  0.00    +0.139 C 
BRANCH  22  23
ATOM      2  F   UNL     1      19.789   5.620  20.413  0.00  0.00    -0.205 F 
ATOM     23  C   UNL     1      15.877   6.818  19.853  0.00  0.00    -0.030 A 
ATOM     24  C   UNL     1      16.516   6.046  18.883  0.00  0.00    +0.008 A 
ATOM     25  C   UNL     1      16.559   7.186  21.013  0.00  0.00    +0.008 A 
ATOM     26  C   UNL     1      17.837   5.641  19.072  0.00  0.00    +0.038 A 
ATOM     27  C   UNL     1      17.881   6.780  21.202  0.00  0.00    +0.038 A 
ATOM     28  C   UNL     1      18.520   6.008  20.232  0.00  0.00    +0.123 A 
ENDBRANCH  22  23
ENDBRANCH   7  22
ENDBRANCH  16  20
ENDBRANCH  11  16
TORSDOF 8
ENDMDL
MODEL 3
REMARK VINA RESULT:      -6.1      4.243      7.191
REMARK  Name = 38027519
REMARK  12 active torsions:
REMARK  status: ('A' for Active; 'I' for Inactive)
REMARK    1  A    between atoms: S_1  and  N_6
REMARK    2  A    between atoms: S_1  and  C_21
REMARK    3  A    between atoms: N_6  and  C_15
REMARK    4  A    between atoms: N_7  and  C_22
REMARK    5  A    between atoms: C_8  and  C_12
REMARK    6  A    between atoms: C_9  and  C_15
REMARK    7  A    between atoms: C_11  and  C_16
REMARK    8  A    between atoms: C_12  and  C_17
REMARK    9  A    between atoms: C_12  and  C_18
REMARK   10  A    between atoms: C_13  and  C_19
REMARK   11  A    between atoms: C_16  and  C_20
REMARK   12  A    between atoms: C_22  and  C_23
REMARK                            x       y       z     vdW  Elec       q    Type
REMARK                         _______ _______ _______ _____ _____    ______ ____
ROOT
ATOM      8  C   UNL     1      -5.026 -10.646  10.992  0.00  0.00    +0.000 C 
ATOM      9  C   UNL     1      -4.536  -9.736   9.839  0.00  0.00    +0.030 C 
ATOM     10  C   UNL     1      -4.438 -10.178  12.332  0.00  0.00    +0.012 C 
ATOM     11  C   UNL     1      -2.898 -10.183  12.327  0.00  0.00    +0.023 C 
ATOM     13  C   UNL     1      -2.337  -9.533  11.080  0.00  0.00    -0.073 C 
ATOM     14  C   UNL     1      -3.088  -9.329   9.981  0.00  0.00    -0.023 C 
ATOM     19  C   UNL     1      -0.905  -9.081  11.136  0.00  0.00    +0.039 C 
ENDROOT
BRANCH   8  12
ATOM     12  C   UNL     1      -6.554 -10.682  11.080  0.00  0.00    -0.013 C 
ATOM     17  C   UNL     1      -7.113  -9.267  11.192  0.00  0.00    +0.007 C 
ATOM     18  C   UNL     1      -7.001 -11.535  12.262  0.00  0.00    +0.007 C 
ENDBRANCH   8  12
BRANCH   9  15
ATOM     15  C   UNL     1      -4.747 -10.405   8.477  0.00  0.00    +0.113 C 
BRANCH  15   6
ATOM      6  N   UNL     1      -5.271  -9.409   7.528  0.00  0.00    -0.194 NA
ATOM     29  H   UNL     1      -4.777  -8.508   7.559  0.00  0.00    +0.148 HD
BRANCH   6   1
ATOM      1  S   UNL     1      -6.956  -9.316   7.261  0.00  0.00    +0.027 S 
ATOM      4  O   UNL     1      -7.478  -8.100   7.854  0.00  0.00    -0.158 OA
ATOM      5  O   UNL     1      -7.545 -10.604   7.569  0.00  0.00    -0.158 OA
ATOM     21  C   UNL     1      -6.995  -9.123   5.494  0.00  0.00    +0.214 C 
ENDBRANCH   6   1
ENDBRANCH  15   6
ENDBRANCH   9  15
BRANCH  11  16
ATOM     16  C   UNL     1      -2.350 -11.603  12.501  0.00  0.00    +0.103 C 
BRANCH  16  20
ATOM      3  O   UNL     1      -2.400 -13.213  14.307  0.00  0.00    -0.276 OA
ATOM      7  N   UNL     1      -2.284 -10.944  14.798  0.00  0.00    -0.311 N 
ATOM     20  C   UNL     1      -2.348 -12.039  13.948  0.00  0.00    +0.214 C 
ATOM     30  H   UNL     1      -2.236 -10.009  14.407  0.00  0.00    +0.149 HD
BRANCH   7  22
ATOM     22  C   UNL     1      -2.269 -11.062  16.238  0.00  0.00    +0.139 C 
BRANCH  22  23
ATOM      2  F   UNL     1      -7.395 -10.372  18.464  0.00  0.00    -0.205 F 
ATOM     23  C   UNL     1      -3.636 -10.877  16.831  0.00  0.00    -0.030 A 
ATOM     24  C   UNL     1      -4.612 -10.171  16.128  0.00  0.00    +0.008 A 
ATOM     25  C   UNL     1      -3.929 -11.413  18.085  0.00  0.00    +0.008 A 
ATOM     26  C   UNL     1      -5.882 -10.000  16.680  0.00  0.00    +0.038 A 
ATOM     27  C   UNL     1      -5.199 -11.242  18.636  0.00  0.00    +0.038 A 
ATOM     28  C   UNL     1      -6.175 -10.535  17.934  0.00  0.00    +0.123 A 
ENDBRANCH  22  23
ENDBRANCH   7  22
ENDBRANCH  16  20
ENDBRANCH  11  16
TORSDOF 8
ENDMDL
MODEL 4
REMARK VINA RESULT:      -5.8      1.646      2.109
REMARK  Name = 38027519
REMARK  12 active torsions:
REMARK  status: ('A' for Active; 'I' for Inactive)
REMARK    1  A    between atoms: S_1  and  N_6
REMARK    2  A    between atoms: S_1  and  C_21
REMARK    3  A    between atoms: N_6  and  C_15
REMARK    4  A    between atoms: N_7  and  C_22
REMARK    5  A    between atoms: C_8  and  C_12
REMARK    6  A    between atoms: C_9  and  C_15
REMARK    7  A    between atoms: C_11  and  C_16
REMARK    8  A    between atoms: C_12  and  C_17
REMARK    9  A    between atoms: C_12  and  C_18
REMARK   10  A    between atoms: C_13  and  C_19
REMARK   11  A    between atoms: C_16  and  C_20
REMARK   12  A    between atoms: C_22  and  C_23
REMARK                            x       y       z     vdW  Elec       q    Type
REMARK                         _______ _______ _______ _____ _____    ______ ____
ROOT
ATOM      8  C   UNL     1      -6.537 -10.962  16.403  0.00  0.00    +0.000 C 
ATOM      9  C   UNL     1      -6.921 -11.194  17.885  0.00  0.00    +0.030 C 
ATOM     10  C   UNL     1      -5.443 -11.952  15.972  0.00  0.00    +0.012 C 
ATOM     11  C   UNL     1      -4.171 -11.825  16.831  0.00  0.00    +0.023 C 
ATOM     13  C   UNL     1      -4.493 -11.777  18.310  0.00  0.00    -0.073 C 
ATOM     14  C   UNL     1      -5.731 -11.506  18.763  0.00  0.00    -0.023 C 
ATOM     19  C   UNL     1      -3.371 -12.091  19.259  0.00  0.00    +0.039 C 
ENDROOT
BRANCH   8  12
ATOM     12  C   UNL     1      -7.747 -11.090  15.474  0.00  0.00    -0.013 C 
ATOM     17  C   UNL     1      -8.296 -12.513  15.509  0.00  0.00    +0.007 C 
ATOM     18  C   UNL     1      -7.372 -10.690  14.051  0.00  0.00    +0.007 C 
ENDBRANCH   8  12
BRANCH   9  15
ATOM     15  C   UNL     1      -7.674  -9.988  18.457  0.00  0.00    +0.113 C 
BRANCH  15   6
ATOM      6  N   UNL     1      -8.431 -10.414  19.645  0.00  0.00    -0.194 NA
ATOM     29  H   UNL     1      -7.878 -10.967  20.313  0.00  0.00    +0.148 HD
BRANCH   6   1
ATOM      1  S   UNL     1     -10.063 -10.889  19.471  0.00  0.00    +0.027 S 
ATOM      4  O   UNL     1     -10.395 -10.989  18.063  0.00  0.00    -0.158 OA
ATOM      5  O   UNL     1     -10.875 -10.092  20.370  0.00  0.00    -0.158 OA
ATOM     21  C   UNL     1      -9.996 -12.536  20.136  0.00  0.00    +0.214 C 
ENDBRANCH   6   1
ENDBRANCH  15   6
ENDBRANCH   9  15
BRANCH  11  16
ATOM     16  C   UNL     1      -3.339 -10.609  16.410  0.00  0.00    +0.103 C 
BRANCH  16  20
ATOM      3  O   UNL     1      -1.426 -11.588  15.298  0.00  0.00    -0.276 OA
ATOM      7  N   UNL     1      -2.941 -10.323  14.070  0.00  0.00    -0.311 N 
ATOM     20  C   UNL     1      -2.448 -10.911  15.227  0.00  0.00    +0.214 C 
ATOM     30  H   UNL     1      -3.801  -9.786  14.108  0.00  0.00    +0.149 HD
BRANCH   7  22
ATOM     22  C   UNL     1      -2.292 -10.444  12.785  0.00  0.00    +0.139 C 
BRANCH  22  23
ATOM      2  F   UNL     1      -5.828  -9.393   8.531  0.00  0.00    -0.205 F 
ATOM     23  C   UNL     1      -3.234 -10.163  11.651  0.00  0.00    -0.030 A 
ATOM     24  C   UNL     1      -2.816  -9.386  10.571  0.00  0.00    +0.008 A 
ATOM     25  C   UNL     1      -4.529 -10.681  11.677  0.00  0.00    +0.008 A 
ATOM     26  C   UNL     1      -3.692  -9.125   9.517  0.00  0.00    +0.038 A 
ATOM     27  C   UNL     1      -5.405 -10.420  10.623  0.00  0.00    +0.038 A 
ATOM     28  C   UNL     1      -4.987  -9.642   9.543  0.00  0.00    +0.123 A 
ENDBRANCH  22  23
ENDBRANCH   7  22
ENDBRANCH  16  20
ENDBRANCH  11  16
TORSDOF 8
ENDMDL
MODEL 5
REMARK VINA RESULT:      -5.8     27.915     30.081
REMARK  Name = 38027519
REMARK  12 active torsions:
REMARK  status: ('A' for Active; 'I' for Inactive)
REMARK    1  A    between atoms: S_1  and  N_6
REMARK    2  A    between atoms: S_1  and  C_21
REMARK    3  A    between atoms: N_6  and  C_15
REMARK    4  A    between atoms: N_7  and  C_22
REMARK    5  A    between atoms: C_8  and  C_12
REMARK    6  A    between atoms: C_9  and  C_15
REMARK    7  A    between atoms: C_11  and  C_16
REMARK    8  A    between atoms: C_12  and  C_17
REMARK    9  A    between atoms: C_12  and  C_18
REMARK   10  A    between atoms: C_13  and  C_19
REMARK   11  A    between atoms: C_16  and  C_20
REMARK   12  A    between atoms: C_22  and  C_23
REMARK                            x       y       z     vdW  Elec       q    Type
REMARK                         _______ _______ _______ _____ _____    ______ ____
ROOT
ATOM      8  C   UNL     1      16.237   8.875  21.528  0.00  0.00    +0.000 C 
ATOM      9  C   UNL     1      15.195   8.189  20.610  0.00  0.00    +0.030 C 
ATOM     10  C   UNL     1      17.612   8.914  20.843  0.00  0.00    +0.012 C 
ATOM     11  C   UNL     1      18.126   7.507  20.488  0.00  0.00    +0.023 C 
ATOM     13  C   UNL     1      17.059   6.672  19.812  0.00  0.00    -0.073 C 
ATOM     14  C   UNL     1      15.754   6.999  19.866  0.00  0.00    -0.023 C 
ATOM     19  C   UNL     1      17.526   5.473  19.034  0.00  0.00    +0.039 C 
ENDROOT
BRANCH   8  12
ATOM     12  C   UNL     1      15.809  10.294  21.914  0.00  0.00    -0.013 C 
ATOM     17  C   UNL     1      15.284  11.042  20.693  0.00  0.00    +0.007 C 
ATOM     18  C   UNL     1      16.973  11.047  22.551  0.00  0.00    +0.007 C 
ENDBRANCH   8  12
BRANCH   9  15
ATOM     15  C   UNL     1      13.956   7.760  21.402  0.00  0.00    +0.113 C 
BRANCH  15   6
ATOM      6  N   UNL     1      12.796   8.539  20.940  0.00  0.00    -0.194 NA
ATOM     29  H   UNL     1      12.225   8.926  21.703  0.00  0.00    +0.148 HD
BRANCH   6   1
ATOM      1  S   UNL     1      11.927   8.010  19.568  0.00  0.00    +0.027 S 
ATOM      4  O   UNL     1      10.549   8.453  19.661  0.00  0.00    -0.158 OA
ATOM      5  O   UNL     1      12.243   6.614  19.330  0.00  0.00    -0.158 OA
ATOM     21  C   UNL     1      12.722   8.959  18.292  0.00  0.00    +0.214 C 
ENDBRANCH   6   1
ENDBRANCH  15   6
ENDBRANCH   9  15
BRANCH  11  16
ATOM     16  C   UNL     1      18.682   6.793  21.725  0.00  0.00    +0.103 C 
BRANCH  16  20
ATOM      3  O   UNL     1      20.807   7.374  22.726  0.00  0.00    -0.276 OA
ATOM      7  N   UNL     1      20.768   6.287  20.671  0.00  0.00    -0.311 N 
ATOM     20  C   UNL     1      20.190   6.865  21.793  0.00  0.00    +0.214 C 
ATOM     30  H   UNL     1      20.174   5.884  19.953  0.00  0.00    +0.149 HD
BRANCH   7  22
ATOM     22  C   UNL     1      22.196   6.216  20.467  0.00  0.00    +0.139 C 
BRANCH  22  23
ATOM      2  F   UNL     1      24.133   0.952  20.965  0.00  0.00    -0.205 F 
ATOM     23  C   UNL     1      22.713   4.813  20.599  0.00  0.00    -0.030 A 
ATOM     24  C   UNL     1      24.003   4.500  20.169  0.00  0.00    +0.008 A 
ATOM     25  C   UNL     1      21.903   3.821  21.153  0.00  0.00    +0.008 A 
ATOM     26  C   UNL     1      24.482   3.196  20.292  0.00  0.00    +0.038 A 
ATOM     27  C   UNL     1      22.383   2.517  21.276  0.00  0.00    +0.038 A 
ATOM     28  C   UNL     1      23.672   2.204  20.845  0.00  0.00    +0.123 A 
ENDBRANCH  22  23
ENDBRANCH   7  22
ENDBRANCH  16  20
ENDBRANCH  11  16
TORSDOF 8
ENDMDL
MODEL 6
REMARK VINA RESULT:      -5.8     27.285     29.415
REMARK  Name = 38027519
REMARK  12 active torsions:
REMARK  status: ('A' for Active; 'I' for Inactive)
REMARK    1  A    between atoms: S_1  and  N_6
REMARK    2  A    between atoms: S_1  and  C_21
REMARK    3  A    between atoms: N_6  and  C_15
REMARK    4  A    between atoms: N_7  and  C_22
REMARK    5  A    between atoms: C_8  and  C_12
REMARK    6  A    between atoms: C_9  and  C_15
REMARK    7  A    between atoms: C_11  and  C_16
REMARK    8  A    between atoms: C_12  and  C_17
REMARK    9  A    between atoms: C_12  and  C_18
REMARK   10  A    between atoms: C_13  and  C_19
REMARK   11  A    between atoms: C_16  and  C_20
REMARK   12  A    between atoms: C_22  and  C_23
REMARK                            x       y       z     vdW  Elec       q    Type
REMARK                         _______ _______ _______ _____ _____    ______ ____
ROOT
ATOM      8  C   UNL     1      14.132   9.089  20.304  0.00  0.00    +0.000 C 
ATOM      9  C   UNL     1      14.253   7.671  19.693  0.00  0.00    +0.030 C 
ATOM     10  C   UNL     1      13.685   9.004  21.772  0.00  0.00    +0.012 C 
ATOM     11  C   UNL     1      12.330   8.288  21.928  0.00  0.00    +0.023 C 
ATOM     13  C   UNL     1      12.279   7.002  21.131  0.00  0.00    -0.073 C 
ATOM     14  C   UNL     1      13.154   6.737  20.143  0.00  0.00    -0.023 C 
ATOM     19  C   UNL     1      11.224   6.004  21.521  0.00  0.00    +0.039 C 
ENDROOT
BRANCH   8  12
ATOM     12  C   UNL     1      15.448   9.865  20.207  0.00  0.00    -0.013 C 
ATOM     17  C   UNL     1      16.029  10.104  21.597  0.00  0.00    +0.007 C 
ATOM     18  C   UNL     1      15.235  11.186  19.475  0.00  0.00    +0.007 C 
ENDBRANCH   8  12
BRANCH   9  15
ATOM     15  C   UNL     1      14.278   7.728  18.162  0.00  0.00    +0.113 C 
BRANCH  15   6
ATOM      6  N   UNL     1      12.998   8.272  17.680  0.00  0.00    -0.194 NA
ATOM     29  H   UNL     1      12.200   7.638  17.816  0.00  0.00    +0.148 HD
BRANCH   6   1
ATOM      1  S   UNL     1      12.970   9.191  16.240  0.00  0.00    +0.027 S 
ATOM      4  O   UNL     1      13.643   8.463  15.182  0.00  0.00    -0.158 OA
ATOM      5  O   UNL     1      13.344  10.556  16.554  0.00  0.00    -0.158 OA
ATOM     21  C   UNL     1      11.228   9.186  15.885  0.00  0.00    +0.214 C 
ENDBRANCH   6   1
ENDBRANCH  15   6
ENDBRANCH   9  15
BRANCH  11  16
ATOM     16  C   UNL     1      11.170   9.215  21.553  0.00  0.00    +0.103 C 
BRANCH  16  20
ATOM      3  O   UNL     1      10.929  10.262  23.721  0.00  0.00    -0.276 OA
ATOM      7  N   UNL     1      11.074  11.589  21.818  0.00  0.00    -0.311 N 
ATOM     20  C   UNL     1      11.044  10.383  22.504  0.00  0.00    +0.214 C 
ATOM     30  H   UNL     1      11.179  11.589  20.808  0.00  0.00    +0.149 HD
BRANCH   7  22
ATOM     22  C   UNL     1      10.971  12.873  22.473  0.00  0.00    +0.139 C 
BRANCH  22  23
ATOM      2  F   UNL     1      16.004  14.834  24.060  0.00  0.00    -0.205 F 
ATOM     23  C   UNL     1      12.313  13.396  22.896  0.00  0.00    -0.030 A 
ATOM     24  C   UNL     1      12.407  14.300  23.955  0.00  0.00    +0.008 A 
ATOM     25  C   UNL     1      13.465  12.978  22.231  0.00  0.00    +0.008 A 
ATOM     26  C   UNL     1      13.654  14.786  24.348  0.00  0.00    +0.038 A 
ATOM     27  C   UNL     1      14.712  13.465  22.624  0.00  0.00    +0.038 A 
ATOM     28  C   UNL     1      14.807  14.369  23.682  0.00  0.00    +0.123 A 
ENDBRANCH  22  23
ENDBRANCH   7  22
ENDBRANCH  16  20
ENDBRANCH  11  16
TORSDOF 8
ENDMDL
MODEL 7
REMARK VINA RESULT:      -5.6     27.759     29.459
REMARK  Name = 38027519
REMARK  12 active torsions:
REMARK  status: ('A' for Active; 'I' for Inactive)
REMARK    1  A    between atoms: S_1  and  N_6
REMARK    2  A    between atoms: S_1  and  C_21
REMARK    3  A    between atoms: N_6  and  C_15
REMARK    4  A    between atoms: N_7  and  C_22
REMARK    5  A    between atoms: C_8  and  C_12
REMARK    6  A    between atoms: C_9  and  C_15
REMARK    7  A    between atoms: C_11  and  C_16
REMARK    8  A    between atoms: C_12  and  C_17
REMARK    9  A    between atoms: C_12  and  C_18
REMARK   10  A    between atoms: C_13  and  C_19
REMARK   11  A    between atoms: C_16  and  C_20
REMARK   12  A    between atoms: C_22  and  C_23
REMARK                            x       y       z     vdW  Elec       q    Type
REMARK                         _______ _______ _______ _____ _____    ______ ____
ROOT
ATOM      8  C   UNL     1      12.515  10.870  22.001  0.00  0.00    +0.000 C 
ATOM      9  C   UNL     1      11.124  10.661  22.648  0.00  0.00    +0.030 C 
ATOM     10  C   UNL     1      12.620  10.081  20.686  0.00  0.00    +0.012 C 
ATOM     11  C   UNL     1      12.401   8.571  20.895  0.00  0.00    +0.023 C 
ATOM     13  C   UNL     1      11.187   8.292  21.756  0.00  0.00    -0.073 C 
ATOM     14  C   UNL     1      10.621   9.242  22.523  0.00  0.00    -0.023 C 
ATOM     19  C   UNL     1      10.608   6.906  21.683  0.00  0.00    +0.039 C 
ENDROOT
BRANCH   8  12
ATOM     12  C   UNL     1      12.806  12.351  21.740  0.00  0.00    -0.013 C 
ATOM     17  C   UNL     1      11.660  12.988  20.960  0.00  0.00    +0.007 C 
ATOM     18  C   UNL     1      14.125  12.513  20.993  0.00  0.00    +0.007 C 
ENDBRANCH   8  12
BRANCH   9  15
ATOM     15  C   UNL     1      11.132  11.072  24.124  0.00  0.00    +0.113 C 
BRANCH  15   6
ATOM      6  N   UNL     1      10.241  12.228  24.306  0.00  0.00    -0.194 NA
ATOM     29  H   UNL     1       9.560  12.351  23.545  0.00  0.00    +0.148 HD
BRANCH   6   1
ATOM      1  S   UNL     1      10.869  13.672  24.969  0.00  0.00    +0.027 S 
ATOM      4  O   UNL     1      10.271  13.915  26.267  0.00  0.00    -0.158 OA
ATOM      5  O   UNL     1      10.856  14.697  23.943  0.00  0.00    -0.158 OA
ATOM     21  C   UNL     1      12.564  13.201  25.228  0.00  0.00    +0.214 C 
ENDBRANCH   6   1
ENDBRANCH  15   6
ENDBRANCH   9  15
BRANCH  11  16
ATOM     16  C   UNL     1      13.653   7.906  21.478  0.00  0.00    +0.103 C 
BRANCH  16  20
ATOM      3  O   UNL     1      15.002   8.092  19.478  0.00  0.00    -0.276 OA
ATOM      7  N   UNL     1      15.888   8.754  21.523  0.00  0.00    -0.311 N 
ATOM     20  C   UNL     1      14.897   8.249  20.692  0.00  0.00    +0.214 C 
ATOM     30  H   UNL     1      15.706   8.854  22.516  0.00  0.00    +0.149 HD
BRANCH   7  22
ATOM     22  C   UNL     1      17.188   9.164  21.042  0.00  0.00    +0.139 C 
BRANCH  22  23
ATOM      2  F   UNL     1      21.084   5.178  21.840  0.00  0.00    -0.205 F 
ATOM     23  C   UNL     1      18.226   8.101  21.255  0.00  0.00    -0.030 A 
ATOM     24  C   UNL     1      18.226   6.955  20.459  0.00  0.00    +0.008 A 
ATOM     25  C   UNL     1      19.192   8.259  22.248  0.00  0.00    +0.008 A 
ATOM     26  C   UNL     1      19.191   5.967  20.656  0.00  0.00    +0.038 A 
ATOM     27  C   UNL     1      20.157   7.272  22.446  0.00  0.00    +0.038 A 
ATOM     28  C   UNL     1      20.157   6.125  21.651  0.00  0.00    +0.123 A 
ENDBRANCH  22  23
ENDBRANCH   7  22
ENDBRANCH  16  20
ENDBRANCH  11  16
TORSDOF 8
ENDMDL
MODEL 8
REMARK VINA RESULT:      -5.5      3.760      7.922
REMARK  Name = 38027519
REMARK  12 active torsions:
REMARK  status: ('A' for Active; 'I' for Inactive)
REMARK    1  A    between atoms: S_1  and  N_6
REMARK    2  A    between atoms: S_1  and  C_21
REMARK    3  A    between atoms: N_6  and  C_15
REMARK    4  A    between atoms: N_7  and  C_22
REMARK    5  A    between atoms: C_8  and  C_12
REMARK    6  A    between atoms: C_9  and  C_15
REMARK    7  A    between atoms: C_11  and  C_16
REMARK    8  A    between atoms: C_12  and  C_17
REMARK    9  A    between atoms: C_12  and  C_18
REMARK   10  A    between atoms: C_13  and  C_19
REMARK   11  A    between atoms: C_16  and  C_20
REMARK   12  A    between atoms: C_22  and  C_23
REMARK                            x       y       z     vdW  Elec       q    Type
REMARK                         _______ _______ _______ _____ _____    ______ ____
ROOT
ATOM      8  C   UNL     1      -5.977 -10.520  17.813  0.00  0.00    +0.000 C 
ATOM      9  C   UNL     1      -5.414 -10.898  16.421  0.00  0.00    +0.030 C 
ATOM     10  C   UNL     1      -7.487 -10.795  17.874  0.00  0.00    +0.012 C 
ATOM     11  C   UNL     1      -8.266 -10.010  16.802  0.00  0.00    +0.023 C 
ATOM     13  C   UNL     1      -7.614 -10.118  15.440  0.00  0.00    -0.073 C 
ATOM     14  C   UNL     1      -6.342 -10.530  15.287  0.00  0.00    -0.023 C 
ATOM     19  C   UNL     1      -8.471  -9.786  14.250  0.00  0.00    +0.039 C 
ENDROOT
BRANCH   8  12
ATOM     12  C   UNL     1      -5.266 -11.275  18.940  0.00  0.00    -0.013 C 
ATOM     17  C   UNL     1      -4.986 -12.715  18.520  0.00  0.00    +0.007 C 
ATOM     18  C   UNL     1      -6.099 -11.236  20.216  0.00  0.00    +0.007 C 
ENDBRANCH   8  12
BRANCH   9  15
ATOM     15  C   UNL     1      -4.042 -10.258  16.185  0.00  0.00    +0.113 C 
BRANCH  15   6
ATOM      6  N   UNL     1      -3.712 -10.342  14.753  0.00  0.00    -0.194 NA
ATOM     29  H   UNL     1      -4.484 -10.690  14.169  0.00  0.00    +0.148 HD
BRANCH   6   1
ATOM      1  S   UNL     1      -2.150 -10.848  14.283  0.00  0.00    +0.027 S 
ATOM      4  O   UNL     1      -1.780 -10.202  13.039  0.00  0.00    -0.158 OA
ATOM      5  O   UNL     1      -2.069 -12.289  14.423  0.00  0.00    -0.158 OA
ATOM     21  C   UNL     1      -1.171 -10.132  15.583  0.00  0.00    +0.214 C 
ENDBRANCH   6   1
ENDBRANCH  15   6
ENDBRANCH   9  15
BRANCH  11  16
ATOM     16  C   UNL     1      -8.444  -8.544  17.212  0.00  0.00    +0.103 C 
BRANCH  16  20
ATOM      3  O   UNL     1     -10.791  -8.725  17.770  0.00  0.00    -0.276 OA
ATOM      7  N   UNL     1     -10.064  -6.968  16.433  0.00  0.00    -0.311 N 
ATOM     20  C   UNL     1      -9.894  -8.119  17.190  0.00  0.00    +0.214 C 
ATOM     30  H   UNL     1      -9.259  -6.532  15.996  0.00  0.00    +0.149 HD
BRANCH   7  22
ATOM     22  C   UNL     1     -11.348  -6.336  16.236  0.00  0.00    +0.139 C 
BRANCH  22  23
ATOM      2  F   UNL     1     -13.111  -6.754  10.904  0.00  0.00    -0.205 F 
ATOM     23  C   UNL     1     -11.818  -6.448  14.814  0.00  0.00    -0.030 A 
ATOM     24  C   UNL     1     -11.973  -7.704  14.227  0.00  0.00    +0.008 A 
ATOM     25  C   UNL     1     -12.100  -5.295  14.081  0.00  0.00    +0.008 A 
ATOM     26  C   UNL     1     -12.409  -7.807  12.906  0.00  0.00    +0.038 A 
ATOM     27  C   UNL     1     -12.536  -5.399  12.760  0.00  0.00    +0.038 A 
ATOM     28  C   UNL     1     -12.690  -6.655  12.172  0.00  0.00    +0.123 A 
ENDBRANCH  22  23
ENDBRANCH   7  22
ENDBRANCH  16  20
ENDBRANCH  11  16
TORSDOF 8
ENDMDL
MODEL 9
REMARK VINA RESULT:      -5.4     23.596     25.780
REMARK  Name = 38027519
REMARK  12 active torsions:
REMARK  status: ('A' for Active; 'I' for Inactive)
REMARK    1  A    between atoms: S_1  and  N_6
REMARK    2  A    between atoms: S_1  and  C_21
REMARK    3  A    between atoms: N_6  and  C_15
REMARK    4  A    between atoms: N_7  and  C_22
REMARK    5  A    between atoms: C_8  and  C_12
REMARK    6  A    between atoms: C_9  and  C_15
REMARK    7  A    between atoms: C_11  and  C_16
REMARK    8  A    between atoms: C_12  and  C_17
REMARK    9  A    between atoms: C_12  and  C_18
REMARK   10  A    between atoms: C_13  and  C_19
REMARK   11  A    between atoms: C_16  and  C_20
REMARK   12  A    between atoms: C_22  and  C_23
REMARK                            x       y       z     vdW  Elec       q    Type
REMARK                         _______ _______ _______ _____ _____    ______ ____
ROOT
ATOM      8  C   UNL     1       9.084   8.133   5.924  0.00  0.00    +0.000 C 
ATOM      9  C   UNL     1       9.017   8.116   7.471  0.00  0.00    +0.030 C 
ATOM     10  C   UNL     1       8.525   6.823   5.348  0.00  0.00    +0.012 C 
ATOM     11  C   UNL     1       9.292   5.589   5.856  0.00  0.00    +0.023 C 
ATOM     13  C   UNL     1       9.499   5.633   7.356  0.00  0.00    -0.073 C 
ATOM     14  C   UNL     1       9.359   6.769   8.063  0.00  0.00    -0.023 C 
ATOM     19  C   UNL     1       9.829   4.332   8.034  0.00  0.00    +0.039 C 
ENDROOT
BRANCH   8  12
ATOM     12  C   UNL     1       8.326   9.326   5.333  0.00  0.00    -0.013 C 
ATOM     17  C   UNL     1       7.535   8.895   4.102  0.00  0.00    +0.007 C 
ATOM     18  C   UNL     1       9.292  10.454   4.989  0.00  0.00    +0.007 C 
ENDBRANCH   8  12
BRANCH   9  15
ATOM     15  C   UNL     1       9.929   9.187   8.077  0.00  0.00    +0.113 C 
BRANCH  15   6
ATOM      6  N   UNL     1       9.132  10.052   8.962  0.00  0.00    -0.194 NA
ATOM     29  H   UNL     1       8.124  10.036   8.760  0.00  0.00    +0.148 HD
BRANCH   6   1
ATOM      1  S   UNL     1       9.762  11.568   9.438  0.00  0.00    +0.027 S 
ATOM      4  O   UNL     1       9.528  12.545   8.392  0.00  0.00    -0.158 OA
ATOM      5  O   UNL     1      11.092  11.367   9.980  0.00  0.00    -0.158 OA
ATOM     21  C   UNL     1       8.686  11.955  10.799  0.00  0.00    +0.214 C 
ENDBRANCH   6   1
ENDBRANCH  15   6
ENDBRANCH   9  15
BRANCH  11  16
ATOM     16  C   UNL     1      10.627   5.426   5.122  0.00  0.00    +0.103 C 
BRANCH  16  20
ATOM      3  O   UNL     1      10.206   6.511   3.000  0.00  0.00    -0.276 OA
ATOM      7  N   UNL     1      10.630   4.226   3.054  0.00  0.00    -0.311 N 
ATOM     20  C   UNL     1      10.460   5.482   3.620  0.00  0.00    +0.214 C 
ATOM     30  H   UNL     1      10.846   3.433   3.649  0.00  0.00    +0.149 HD
BRANCH   7  22
ATOM     22  C   UNL     1      10.525   3.980   1.634  0.00  0.00    +0.139 C 
BRANCH  22  23
ATOM      2  F   UNL     1      15.573   3.827  -0.855  0.00  0.00    -0.205 F 
ATOM     23  C   UNL     1      11.870   3.940   0.970  0.00  0.00    -0.030 A 
ATOM     24  C   UNL     1      12.000   4.311  -0.369  0.00  0.00    +0.008 A 
ATOM     25  C   UNL     1      12.991   3.530   1.692  0.00  0.00    +0.008 A 
ATOM     26  C   UNL     1      13.251   4.273  -0.986  0.00  0.00    +0.038 A 
ATOM     27  C   UNL     1      14.242   3.492   1.075  0.00  0.00    +0.038 A 
ATOM     28  C   UNL     1      14.372   3.863  -0.264  0.00  0.00    +0.123 A 
ENDBRANCH  22  23
ENDBRANCH   7  22
ENDBRANCH  16  20
ENDBRANCH  11  16
TORSDOF 8
ENDMDL
MODEL 10
REMARK VINA RESULT:      -5.4     23.876     26.117
REMARK  Name = 38027519
REMARK  12 active torsions:
REMARK  status: ('A' for Active; 'I' for Inactive)
REMARK    1  A    between atoms: S_1  and  N_6
REMARK    2  A    between atoms: S_1  and  C_21
REMARK    3  A    between atoms: N_6  and  C_15
REMARK    4  A    between atoms: N_7  and  C_22
REMARK    5  A    between atoms: C_8  and  C_12
REMARK    6  A    between atoms: C_9  and  C_15
REMARK    7  A    between atoms: C_11  and  C_16
REMARK    8  A    between atoms: C_12  and  C_17
REMARK    9  A    between atoms: C_12  and  C_18
REMARK   10  A    between atoms: C_13  and  C_19
REMARK   11  A    between atoms: C_16  and  C_20
REMARK   12  A    between atoms: C_22  and  C_23
REMARK                            x       y       z     vdW  Elec       q    Type
REMARK                         _______ _______ _______ _____ _____    ______ ____
ROOT
ATOM      8  C   UNL     1       9.068   8.339   3.449  0.00  0.00    +0.000 C 
ATOM      9  C   UNL     1       8.043   7.865   4.509  0.00  0.00    +0.030 C 
ATOM     10  C   UNL     1       9.591   7.144   2.636  0.00  0.00    +0.012 C 
ATOM     11  C   UNL     1      10.265   6.084   3.527  0.00  0.00    +0.023 C 
ATOM     13  C   UNL     1       9.427   5.757   4.745  0.00  0.00    -0.073 C 
ATOM     14  C   UNL     1       8.429   6.558   5.162  0.00  0.00    -0.023 C 
ATOM     19  C   UNL     1       9.731   4.465   5.450  0.00  0.00    +0.039 C 
ENDROOT
BRANCH   8  12
ATOM     12  C   UNL     1       8.470   9.386   2.505  0.00  0.00    -0.013 C 
ATOM     17  C   UNL     1       8.396   8.840   1.083  0.00  0.00    +0.007 C 
ATOM     18  C   UNL     1       9.287  10.673   2.549  0.00  0.00    +0.007 C 
ENDBRANCH   8  12
BRANCH   9  15
ATOM     15  C   UNL     1       7.829   8.931   5.588  0.00  0.00    +0.113 C 
BRANCH  15   6
ATOM      6  N   UNL     1       9.137   9.356   6.110  0.00  0.00    -0.194 NA
ATOM     29  H   UNL     1       9.886   9.355   5.405  0.00  0.00    +0.148 HD
BRANCH   6   1
ATOM      1  S   UNL     1       9.607   8.874   7.681  0.00  0.00    +0.027 S 
ATOM      4  O   UNL     1       8.623   7.958   8.226  0.00  0.00    -0.158 OA
ATOM      5  O   UNL     1      10.016  10.050   8.423  0.00  0.00    -0.158 OA
ATOM     21  C   UNL     1      11.075   7.942   7.310  0.00  0.00    +0.214 C 
ENDBRANCH   6   1
ENDBRANCH  15   6
ENDBRANCH   9  15
BRANCH  11  16
ATOM     16  C   UNL     1      11.677   6.519   3.932  0.00  0.00    +0.103 C 
BRANCH  16  20
ATOM      3  O   UNL     1      13.734   6.719   2.674  0.00  0.00    -0.276 OA
ATOM      7  N   UNL     1      12.367   4.867   2.347  0.00  0.00    -0.311 N 
ATOM     20  C   UNL     1      12.718   6.077   2.929  0.00  0.00    +0.214 C 
ATOM     30  H   UNL     1      11.508   4.406   2.629  0.00  0.00    +0.149 HD
BRANCH   7  22
ATOM     22  C   UNL     1      13.177   4.207   1.350  0.00  0.00    +0.139 C 
BRANCH  22  23
ATOM      2  F   UNL     1      10.341   3.341  -3.437  0.00  0.00    -0.205 F 
ATOM     23  C   UNL     1      12.420   3.976   0.074  0.00  0.00    -0.030 A 
ATOM     24  C   UNL     1      11.277   4.725  -0.205  0.00  0.00    +0.008 A 
ATOM     25  C   UNL     1      12.862   3.013  -0.834  0.00  0.00    +0.008 A 
ATOM     26  C   UNL     1      10.574   4.510  -1.390  0.00  0.00    +0.038 A 
ATOM     27  C   UNL     1      12.159   2.798  -2.019  0.00  0.00    +0.038 A 
ATOM     28  C   UNL     1      11.014   3.546  -2.298  0.00  0.00    +0.123 A 
ENDBRANCH  22  23
ENDBRANCH   7  22
ENDBRANCH  16  20
ENDBRANCH  11  16
TORSDOF 8
ENDMDL
