MODEL 1
REMARK VINA RESULT:      -6.8      0.000      0.000
REMARK  Name = 45783807
REMARK  9 active torsions:
REMARK  status: ('A' for Active; 'I' for Inactive)
REMARK    1  A    between atoms: N_2  and  C_11
REMARK    2  A    between atoms: N_6  and  C_26
REMARK    3  A    between atoms: N_6  and  C_27
REMARK    4  A    between atoms: N_6  and  C_28
REMARK    5  A    between atoms: C_7  and  C_12
REMARK    6  A    between atoms: C_11  and  C_13
REMARK    7  A    between atoms: C_13  and  C_14
REMARK    8  A    between atoms: C_14  and  C_15
REMARK    9  A    between atoms: C_16  and  C_17
REMARK                            x       y       z     vdW  Elec       q    Type
REMARK                         _______ _______ _______ _____ _____    ______ ____
ROOT
ATOM      2  N   UNL     1     -17.423   3.175  27.015  0.00  0.00    -0.291 NA
ATOM      7  C   UNL     1     -16.370   2.426  26.301  0.00  0.00    +0.146 C 
ATOM      8  C   UNL     1     -16.880   0.974  26.264  0.00  0.00    +0.030 C 
ATOM      9  C   UNL     1     -18.073   2.219  27.913  0.00  0.00    +0.085 C 
ATOM     10  C   UNL     1     -18.193   0.993  27.032  0.00  0.00    +0.017 C 
ENDROOT
BRANCH   7  12
ATOM      1  O   UNL     1     -16.696   2.354  23.880  0.00  0.00    -0.336 OA
ATOM      3  N   UNL     1     -15.346   4.002  24.573  0.00  0.00    -0.190 NA
ATOM      4  N   UNL     1     -16.294   3.040  22.726  0.00  0.00    -0.056 NA
ATOM     12  C   UNL     1     -16.092   2.985  24.922  0.00  0.00    +0.245 A 
ATOM     16  C   UNL     1     -15.500   3.996  23.217  0.00  0.00    +0.204 A 
BRANCH  16  17
ATOM      5  N   UNL     1     -15.028   6.730  20.741  0.00  0.00    -0.240 NA
ATOM     17  C   UNL     1     -14.848   4.963  22.380  0.00  0.00    +0.041 A 
ATOM     22  C   UNL     1     -13.464   5.087  22.374  0.00  0.00    +0.016 A 
ATOM     23  C   UNL     1     -15.579   5.801  21.553  0.00  0.00    +0.124 A 
ATOM     25  C   UNL     1     -12.859   6.032  21.552  0.00  0.00    +0.044 A 
ATOM     26  C   UNL     1     -13.679   6.822  20.762  0.00  0.00    +0.121 A 
BRANCH  26   6
ATOM      6  N   UNL     1     -13.050   7.781  19.931  0.00  0.00    -0.321 N 
ATOM     27  C   UNL     1     -11.758   7.500  19.344  0.00  0.00    +0.130 C 
ATOM     28  C   UNL     1     -13.691   9.050  19.669  0.00  0.00    +0.130 C 
ENDBRANCH  26   6
ENDBRANCH  16  17
ENDBRANCH   7  12
BRANCH   2  11
ATOM     11  C   UNL     1     -16.916   4.339  27.729  0.00  0.00    +0.085 C 
BRANCH  11  13
ATOM     13  C   UNL     1     -16.732   4.016  29.210  0.00  0.00    +0.020 C 
BRANCH  13  14
ATOM     14  C   UNL     1     -15.264   3.725  29.533  0.00  0.00    +0.036 C 
BRANCH  14  15
ATOM     15  C   UNL     1     -15.104   2.425  30.279  0.00  0.00    -0.047 A 
ATOM     18  C   UNL     1     -15.077   1.217  29.579  0.00  0.00    +0.003 A 
ATOM     19  C   UNL     1     -14.981   2.428  31.668  0.00  0.00    +0.003 A 
ATOM     20  C   UNL     1     -14.928   0.014  30.270  0.00  0.00    +0.000 A 
ATOM     21  C   UNL     1     -14.833   1.224  32.359  0.00  0.00    +0.000 A 
ATOM     24  C   UNL     1     -14.807   0.018  31.660  0.00  0.00    +0.000 A 
ENDBRANCH  14  15
ENDBRANCH  13  14
ENDBRANCH  11  13
ENDBRANCH   2  11
TORSDOF 7
ENDMDL
MODEL 2
REMARK VINA RESULT:      -6.8      1.781      9.746
REMARK  Name = 45783807
REMARK  9 active torsions:
REMARK  status: ('A' for Active; 'I' for Inactive)
REMARK    1  A    between atoms: N_2  and  C_11
REMARK    2  A    between atoms: N_6  and  C_26
REMARK    3  A    between atoms: N_6  and  C_27
REMARK    4  A    between atoms: N_6  and  C_28
REMARK    5  A    between atoms: C_7  and  C_12
REMARK    6  A    between atoms: C_11  and  C_13
REMARK    7  A    between atoms: C_13  and  C_14
REMARK    8  A    between atoms: C_14  and  C_15
REMARK    9  A    between atoms: C_16  and  C_17
REMARK                            x       y       z     vdW  Elec       q    Type
REMARK                         _______ _______ _______ _____ _____    ______ ____
ROOT
ATOM      2  N   UNL     1     -15.596   4.795  21.948  0.00  0.00    -0.291 NA
ATOM      7  C   UNL     1     -16.512   5.244  23.015  0.00  0.00    +0.146 C 
ATOM      8  C   UNL     1     -17.827   5.576  22.287  0.00  0.00    +0.030 C 
ATOM      9  C   UNL     1     -16.029   5.467  20.722  0.00  0.00    +0.085 C 
ATOM     10  C   UNL     1     -17.536   5.342  20.812  0.00  0.00    +0.017 C 
ENDROOT
BRANCH   7  12
ATOM      1  O   UNL     1     -17.611   3.233  23.866  0.00  0.00    -0.336 OA
ATOM      3  N   UNL     1     -16.085   4.101  25.258  0.00  0.00    -0.190 NA
ATOM      4  N   UNL     1     -17.597   2.405  24.996  0.00  0.00    -0.056 NA
ATOM     12  C   UNL     1     -16.691   4.206  24.103  0.00  0.00    +0.245 A 
ATOM     16  C   UNL     1     -16.674   2.982  25.770  0.00  0.00    +0.204 A 
BRANCH  16  17
ATOM      5  N   UNL     1     -16.251   0.593  28.589  0.00  0.00    -0.240 NA
ATOM     17  C   UNL     1     -16.316   2.464  27.060  0.00  0.00    +0.041 A 
ATOM     22  C   UNL     1     -15.710   3.275  28.013  0.00  0.00    +0.016 A 
ATOM     23  C   UNL     1     -16.563   1.142  27.393  0.00  0.00    +0.124 A 
ATOM     25  C   UNL     1     -15.374   2.746  29.255  0.00  0.00    +0.044 A 
ATOM     26  C   UNL     1     -15.663   1.411  29.491  0.00  0.00    +0.121 A 
BRANCH  26   6
ATOM      6  N   UNL     1     -15.315   0.886  30.759  0.00  0.00    -0.321 N 
ATOM     27  C   UNL     1     -15.306  -0.543  30.978  0.00  0.00    +0.130 C 
ATOM     28  C   UNL     1     -14.972   1.776  31.846  0.00  0.00    +0.130 C 
ENDBRANCH  26   6
ENDBRANCH  16  17
ENDBRANCH   7  12
BRANCH   2  11
ATOM     11  C   UNL     1     -14.194   5.053  22.248  0.00  0.00    +0.085 C 
BRANCH  11  13
ATOM     13  C   UNL     1     -13.733   6.338  21.562  0.00  0.00    +0.020 C 
BRANCH  13  14
ATOM     14  C   UNL     1     -12.247   6.266  21.199  0.00  0.00    +0.036 C 
BRANCH  14  15
ATOM     15  C   UNL     1     -11.846   7.380  20.266  0.00  0.00    -0.047 A 
ATOM     18  C   UNL     1     -11.917   8.707  20.693  0.00  0.00    +0.003 A 
ATOM     19  C   UNL     1     -11.404   7.086  18.977  0.00  0.00    +0.003 A 
ATOM     20  C   UNL     1     -11.546   9.738  19.830  0.00  0.00    +0.000 A 
ATOM     21  C   UNL     1     -11.034   8.118  18.113  0.00  0.00    +0.000 A 
ATOM     24  C   UNL     1     -11.105   9.444  18.540  0.00  0.00    +0.000 A 
ENDBRANCH  14  15
ENDBRANCH  13  14
ENDBRANCH  11  13
ENDBRANCH   2  11
TORSDOF 7
ENDMDL
MODEL 3
REMARK VINA RESULT:      -6.4     27.545     31.326
REMARK  Name = 45783807
REMARK  9 active torsions:
REMARK  status: ('A' for Active; 'I' for Inactive)
REMARK    1  A    between atoms: N_2  and  C_11
REMARK    2  A    between atoms: N_6  and  C_26
REMARK    3  A    between atoms: N_6  and  C_27
REMARK    4  A    between atoms: N_6  and  C_28
REMARK    5  A    between atoms: C_7  and  C_12
REMARK    6  A    between atoms: C_11  and  C_13
REMARK    7  A    between atoms: C_13  and  C_14
REMARK    8  A    between atoms: C_14  and  C_15
REMARK    9  A    between atoms: C_16  and  C_17
REMARK                            x       y       z     vdW  Elec       q    Type
REMARK                         _______ _______ _______ _____ _____    ______ ____
ROOT
ATOM      2  N   UNL     1      12.294  11.187  22.939  0.00  0.00    -0.291 NA
ATOM      7  C   UNL     1      12.481  11.309  21.480  0.00  0.00    +0.146 C 
ATOM      8  C   UNL     1      12.507  12.825  21.214  0.00  0.00    +0.030 C 
ATOM      9  C   UNL     1      11.569  12.385  23.365  0.00  0.00    +0.085 C 
ATOM     10  C   UNL     1      12.266  13.471  22.571  0.00  0.00    +0.017 C 
ENDROOT
BRANCH   7  12
ATOM      1  O   UNL     1      14.004  10.709  19.665  0.00  0.00    -0.336 OA
ATOM      3  N   UNL     1      14.608   9.910  21.669  0.00  0.00    -0.190 NA
ATOM      4  N   UNL     1      15.190   9.992  19.457  0.00  0.00    -0.056 NA
ATOM     12  C   UNL     1      13.732  10.609  20.993  0.00  0.00    +0.245 A 
ATOM     16  C   UNL     1      15.483   9.551  20.684  0.00  0.00    +0.204 A 
BRANCH  16  17
ATOM      5  N   UNL     1      18.969   8.647  21.613  0.00  0.00    -0.240 NA
ATOM     17  C   UNL     1      16.643   8.753  20.961  0.00  0.00    +0.041 A 
ATOM     22  C   UNL     1      16.601   7.368  20.856  0.00  0.00    +0.016 A 
ATOM     23  C   UNL     1      17.841   9.339  21.339  0.00  0.00    +0.124 A 
ATOM     25  C   UNL     1      17.741   6.620  21.130  0.00  0.00    +0.044 A 
ATOM     26  C   UNL     1      18.890   7.302  21.501  0.00  0.00    +0.121 A 
BRANCH  26   6
ATOM      6  N   UNL     1      20.043   6.527  21.777  0.00  0.00    -0.321 N 
ATOM     27  C   UNL     1      20.626   6.536  23.100  0.00  0.00    +0.130 C 
ATOM     28  C   UNL     1      20.649   5.727  20.736  0.00  0.00    +0.130 C 
ENDBRANCH  26   6
ENDBRANCH  16  17
ENDBRANCH   7  12
BRANCH   2  11
ATOM     11  C   UNL     1      11.607   9.964  23.330  0.00  0.00    +0.085 C 
BRANCH  11  13
ATOM     13  C   UNL     1      10.531   9.609  22.306  0.00  0.00    +0.020 C 
BRANCH  13  14
ATOM     14  C   UNL     1      10.601   8.129  21.921  0.00  0.00    +0.036 C 
BRANCH  14  15
ATOM     15  C   UNL     1      11.384   7.920  20.650  0.00  0.00    -0.047 A 
ATOM     18  C   UNL     1      10.999   8.575  19.478  0.00  0.00    +0.003 A 
ATOM     19  C   UNL     1      12.492   7.074  20.643  0.00  0.00    +0.003 A 
ATOM     20  C   UNL     1      11.724   8.381  18.302  0.00  0.00    +0.000 A 
ATOM     21  C   UNL     1      13.216   6.880  19.466  0.00  0.00    +0.000 A 
ATOM     24  C   UNL     1      12.831   7.534  18.296  0.00  0.00    +0.000 A 
ENDBRANCH  14  15
ENDBRANCH  13  14
ENDBRANCH  11  13
ENDBRANCH   2  11
TORSDOF 7
ENDMDL
MODEL 4
REMARK VINA RESULT:      -6.2     33.619     35.655
REMARK  Name = 45783807
REMARK  9 active torsions:
REMARK  status: ('A' for Active; 'I' for Inactive)
REMARK    1  A    between atoms: N_2  and  C_11
REMARK    2  A    between atoms: N_6  and  C_26
REMARK    3  A    between atoms: N_6  and  C_27
REMARK    4  A    between atoms: N_6  and  C_28
REMARK    5  A    between atoms: C_7  and  C_12
REMARK    6  A    between atoms: C_11  and  C_13
REMARK    7  A    between atoms: C_13  and  C_14
REMARK    8  A    between atoms: C_14  and  C_15
REMARK    9  A    between atoms: C_16  and  C_17
REMARK                            x       y       z     vdW  Elec       q    Type
REMARK                         _______ _______ _______ _____ _____    ______ ____
ROOT
ATOM      2  N   UNL     1      19.637  -6.216  23.875  0.00  0.00    -0.291 NA
ATOM      7  C   UNL     1      20.557  -5.934  24.995  0.00  0.00    +0.146 C 
ATOM      8  C   UNL     1      21.951  -5.864  24.347  0.00  0.00    +0.030 C 
ATOM      9  C   UNL     1      20.416  -6.945  22.873  0.00  0.00    +0.085 C 
ATOM     10  C   UNL     1      21.723  -6.178  22.876  0.00  0.00    +0.017 C 
ENDROOT
BRANCH   7  12
ATOM      1  O   UNL     1      20.403  -3.497  25.084  0.00  0.00    -0.336 OA
ATOM      3  N   UNL     1      19.700  -4.527  26.945  0.00  0.00    -0.190 NA
ATOM      4  N   UNL     1      19.999  -2.482  25.962  0.00  0.00    -0.056 NA
ATOM     12  C   UNL     1      20.194  -4.668  25.741  0.00  0.00    +0.245 A 
ATOM     16  C   UNL     1      19.598  -3.169  27.037  0.00  0.00    +0.204 A 
BRANCH  16  17
ATOM      5  N   UNL     1      19.479  -1.078  30.110  0.00  0.00    -0.240 NA
ATOM     17  C   UNL     1      19.089  -2.529  28.216  0.00  0.00    +0.041 A 
ATOM     22  C   UNL     1      17.771  -2.712  28.617  0.00  0.00    +0.016 A 
ATOM     23  C   UNL     1      19.896  -1.709  28.989  0.00  0.00    +0.124 A 
ATOM     25  C   UNL     1      17.305  -2.079  29.765  0.00  0.00    +0.044 A 
ATOM     26  C   UNL     1      18.191  -1.280  30.470  0.00  0.00    +0.121 A 
BRANCH  26   6
ATOM      6  N   UNL     1      17.702  -0.642  31.635  0.00  0.00    -0.321 N 
ATOM     27  C   UNL     1      16.632  -1.242  32.399  0.00  0.00    +0.130 C 
ATOM     28  C   UNL     1      18.265   0.619  32.065  0.00  0.00    +0.130 C 
ENDBRANCH  26   6
ENDBRANCH  16  17
ENDBRANCH   7  12
BRANCH   2  11
ATOM     11  C   UNL     1      18.445  -6.949  24.281  0.00  0.00    +0.085 C 
BRANCH  11  13
ATOM     13  C   UNL     1      17.225  -6.030  24.265  0.00  0.00    +0.020 C 
BRANCH  13  14
ATOM     14  C   UNL     1      17.249  -5.102  23.048  0.00  0.00    +0.036 C 
BRANCH  14  15
ATOM     15  C   UNL     1      17.191  -3.651  23.452  0.00  0.00    -0.047 A 
ATOM     18  C   UNL     1      17.657  -2.665  22.580  0.00  0.00    +0.003 A 
ATOM     19  C   UNL     1      16.671  -3.292  24.695  0.00  0.00    +0.003 A 
ATOM     20  C   UNL     1      17.603  -1.322  22.954  0.00  0.00    +0.000 A 
ATOM     21  C   UNL     1      16.618  -1.949  25.068  0.00  0.00    +0.000 A 
ATOM     24  C   UNL     1      17.084  -0.964  24.198  0.00  0.00    +0.000 A 
ENDBRANCH  14  15
ENDBRANCH  13  14
ENDBRANCH  11  13
ENDBRANCH   2  11
TORSDOF 7
ENDMDL
MODEL 5
REMARK VINA RESULT:      -6.2      2.092      9.349
REMARK  Name = 45783807
REMARK  9 active torsions:
REMARK  status: ('A' for Active; 'I' for Inactive)
REMARK    1  A    between atoms: N_2  and  C_11
REMARK    2  A    between atoms: N_6  and  C_26
REMARK    3  A    between atoms: N_6  and  C_27
REMARK    4  A    between atoms: N_6  and  C_28
REMARK    5  A    between atoms: C_7  and  C_12
REMARK    6  A    between atoms: C_11  and  C_13
REMARK    7  A    between atoms: C_13  and  C_14
REMARK    8  A    between atoms: C_14  and  C_15
REMARK    9  A    between atoms: C_16  and  C_17
REMARK                            x       y       z     vdW  Elec       q    Type
REMARK                         _______ _______ _______ _____ _____    ______ ____
ROOT
ATOM      2  N   UNL     1     -16.402   4.184  23.206  0.00  0.00    -0.291 NA
ATOM      7  C   UNL     1     -17.363   4.293  24.321  0.00  0.00    +0.146 C 
ATOM      8  C   UNL     1     -18.696   3.792  23.739  0.00  0.00    +0.030 C 
ATOM      9  C   UNL     1     -17.180   4.325  21.974  0.00  0.00    +0.085 C 
ATOM     10  C   UNL     1     -18.402   3.482  22.279  0.00  0.00    +0.017 C 
ENDROOT
BRANCH   7  12
ATOM      1  O   UNL     1     -16.905   2.158  25.420  0.00  0.00    -0.336 OA
ATOM      3  N   UNL     1     -16.560   3.949  26.720  0.00  0.00    -0.190 NA
ATOM      4  N   UNL     1     -16.476   1.664  26.658  0.00  0.00    -0.056 NA
ATOM     12  C   UNL     1     -16.927   3.512  25.543  0.00  0.00    +0.245 A 
ATOM     16  C   UNL     1     -16.295   2.780  27.371  0.00  0.00    +0.204 A 
BRANCH  16  17
ATOM      5  N   UNL     1     -15.059   3.981  30.667  0.00  0.00    -0.240 NA
ATOM     17  C   UNL     1     -15.845   2.760  28.734  0.00  0.00    +0.041 A 
ATOM     22  C   UNL     1     -15.753   1.566  29.440  0.00  0.00    +0.016 A 
ATOM     23  C   UNL     1     -15.490   3.930  29.387  0.00  0.00    +0.124 A 
ATOM     25  C   UNL     1     -15.314   1.577  30.760  0.00  0.00    +0.044 A 
ATOM     26  C   UNL     1     -14.982   2.800  31.322  0.00  0.00    +0.121 A 
BRANCH  26   6
ATOM      6  N   UNL     1     -14.537   2.796  32.666  0.00  0.00    -0.321 N 
ATOM     27  C   UNL     1     -14.667   1.602  33.472  0.00  0.00    +0.130 C 
ATOM     28  C   UNL     1     -13.958   3.988  33.245  0.00  0.00    +0.130 C 
ENDBRANCH  26   6
ENDBRANCH  16  17
ENDBRANCH   7  12
BRANCH   2  11
ATOM     11  C   UNL     1     -15.319   5.156  23.283  0.00  0.00    +0.085 C 
BRANCH  11  13
ATOM     13  C   UNL     1     -14.738   5.414  21.894  0.00  0.00    +0.020 C 
BRANCH  13  14
ATOM     14  C   UNL     1     -13.213   5.537  21.947  0.00  0.00    +0.036 C 
BRANCH  14  15
ATOM     15  C   UNL     1     -12.733   6.817  21.312  0.00  0.00    -0.047 A 
ATOM     18  C   UNL     1     -11.660   6.793  20.420  0.00  0.00    +0.003 A 
ATOM     19  C   UNL     1     -13.361   8.025  21.616  0.00  0.00    +0.003 A 
ATOM     20  C   UNL     1     -11.216   7.978  19.833  0.00  0.00    +0.000 A 
ATOM     21  C   UNL     1     -12.916   9.209  21.028  0.00  0.00    +0.000 A 
ATOM     24  C   UNL     1     -11.844   9.186  20.137  0.00  0.00    +0.000 A 
ENDBRANCH  14  15
ENDBRANCH  13  14
ENDBRANCH  11  13
ENDBRANCH   2  11
TORSDOF 7
ENDMDL
MODEL 6
REMARK VINA RESULT:      -6.2     19.210     21.996
REMARK  Name = 45783807
REMARK  9 active torsions:
REMARK  status: ('A' for Active; 'I' for Inactive)
REMARK    1  A    between atoms: N_2  and  C_11
REMARK    2  A    between atoms: N_6  and  C_26
REMARK    3  A    between atoms: N_6  and  C_27
REMARK    4  A    between atoms: N_6  and  C_28
REMARK    5  A    between atoms: C_7  and  C_12
REMARK    6  A    between atoms: C_11  and  C_13
REMARK    7  A    between atoms: C_13  and  C_14
REMARK    8  A    between atoms: C_14  and  C_15
REMARK    9  A    between atoms: C_16  and  C_17
REMARK                            x       y       z     vdW  Elec       q    Type
REMARK                         _______ _______ _______ _____ _____    ______ ____
ROOT
ATOM      2  N   UNL     1      -3.044 -10.701  14.309  0.00  0.00    -0.291 NA
ATOM      7  C   UNL     1      -2.855 -11.277  15.655  0.00  0.00    +0.146 C 
ATOM      8  C   UNL     1      -1.590 -10.591  16.200  0.00  0.00    +0.030 C 
ATOM      9  C   UNL     1      -1.714 -10.320  13.832  0.00  0.00    +0.085 C 
ATOM     10  C   UNL     1      -1.105  -9.694  15.070  0.00  0.00    +0.017 C 
ENDROOT
BRANCH   7  12
ATOM      1  O   UNL     1      -3.890 -11.351  17.868  0.00  0.00    -0.336 OA
ATOM      3  N   UNL     1      -5.266 -10.669  16.237  0.00  0.00    -0.190 NA
ATOM      4  N   UNL     1      -5.123 -11.094  18.481  0.00  0.00    -0.056 NA
ATOM     12  C   UNL     1      -4.061 -11.076  16.548  0.00  0.00    +0.245 A 
ATOM     16  C   UNL     1      -5.882 -10.698  17.454  0.00  0.00    +0.204 A 
BRANCH  16  17
ATOM      5  N   UNL     1      -9.407 -10.730  18.641  0.00  0.00    -0.240 NA
ATOM     17  C   UNL     1      -7.257 -10.320  17.612  0.00  0.00    +0.041 A 
ATOM     22  C   UNL     1      -7.783  -9.229  16.930  0.00  0.00    +0.016 A 
ATOM     23  C   UNL     1      -8.103 -11.032  18.448  0.00  0.00    +0.124 A 
ATOM     25  C   UNL     1      -9.120  -8.887  17.102  0.00  0.00    +0.044 A 
ATOM     26  C   UNL     1      -9.883  -9.663  17.961  0.00  0.00    +0.121 A 
BRANCH  26   6
ATOM      6  N   UNL     1     -11.242  -9.302  18.127  0.00  0.00    -0.321 N 
ATOM     27  C   UNL     1     -11.985  -9.772  19.275  0.00  0.00    +0.130 C 
ATOM     28  C   UNL     1     -11.898  -8.467  17.145  0.00  0.00    +0.130 C 
ENDBRANCH  26   6
ENDBRANCH  16  17
ENDBRANCH   7  12
BRANCH   2  11
ATOM     11  C   UNL     1      -3.718 -11.604  13.386  0.00  0.00    +0.085 C 
BRANCH  11  13
ATOM     13  C   UNL     1      -2.741 -12.104  12.323  0.00  0.00    +0.020 C 
BRANCH  13  14
ATOM     14  C   UNL     1      -3.468 -12.434  11.017  0.00  0.00    +0.036 C 
BRANCH  14  15
ATOM     15  C   UNL     1      -4.037 -11.199  10.368  0.00  0.00    -0.047 A 
ATOM     18  C   UNL     1      -5.350 -11.202   9.893  0.00  0.00    +0.003 A 
ATOM     19  C   UNL     1      -3.254 -10.052  10.241  0.00  0.00    +0.003 A 
ATOM     20  C   UNL     1      -5.877 -10.059   9.292  0.00  0.00    +0.000 A 
ATOM     21  C   UNL     1      -3.781  -8.909   9.639  0.00  0.00    +0.000 A 
ATOM     24  C   UNL     1      -5.093  -8.913   9.165  0.00  0.00    +0.000 A 
ENDBRANCH  14  15
ENDBRANCH  13  14
ENDBRANCH  11  13
ENDBRANCH   2  11
TORSDOF 7
ENDMDL
MODEL 7
REMARK VINA RESULT:      -6.2      7.529     10.074
REMARK  Name = 45783807
REMARK  9 active torsions:
REMARK  status: ('A' for Active; 'I' for Inactive)
REMARK    1  A    between atoms: N_2  and  C_11
REMARK    2  A    between atoms: N_6  and  C_26
REMARK    3  A    between atoms: N_6  and  C_27
REMARK    4  A    between atoms: N_6  and  C_28
REMARK    5  A    between atoms: C_7  and  C_12
REMARK    6  A    between atoms: C_11  and  C_13
REMARK    7  A    between atoms: C_13  and  C_14
REMARK    8  A    between atoms: C_14  and  C_15
REMARK    9  A    between atoms: C_16  and  C_17
REMARK                            x       y       z     vdW  Elec       q    Type
REMARK                         _______ _______ _______ _____ _____    ______ ____
ROOT
ATOM      2  N   UNL     1     -14.264   9.121  33.655  0.00  0.00    -0.291 NA
ATOM      7  C   UNL     1     -13.106   8.218  33.811  0.00  0.00    +0.146 C 
ATOM      8  C   UNL     1     -12.441   8.659  35.127  0.00  0.00    +0.030 C 
ATOM      9  C   UNL     1     -13.913  10.365  34.341  0.00  0.00    +0.085 C 
ATOM     10  C   UNL     1     -13.257   9.851  35.606  0.00  0.00    +0.017 C 
ENDROOT
BRANCH   7  12
ATOM      1  O   UNL     1     -13.967   6.261  34.994  0.00  0.00    -0.336 OA
ATOM      3  N   UNL     1     -13.471   5.884  32.842  0.00  0.00    -0.190 NA
ATOM      4  N   UNL     1     -14.266   4.913  34.755  0.00  0.00    -0.056 NA
ATOM     12  C   UNL     1     -13.504   6.758  33.816  0.00  0.00    +0.245 A 
ATOM     16  C   UNL     1     -13.946   4.767  33.465  0.00  0.00    +0.204 A 
BRANCH  16  17
ATOM      5  N   UNL     1     -13.801   2.241  30.740  0.00  0.00    -0.240 NA
ATOM     17  C   UNL     1     -14.093   3.521  32.770  0.00  0.00    +0.041 A 
ATOM     22  C   UNL     1     -14.644   2.410  33.400  0.00  0.00    +0.016 A 
ATOM     23  C   UNL     1     -13.690   3.386  31.451  0.00  0.00    +0.124 A 
ATOM     25  C   UNL     1     -14.774   1.215  32.701  0.00  0.00    +0.044 A 
ATOM     26  C   UNL     1     -14.342   1.183  31.384  0.00  0.00    +0.121 A 
BRANCH  26   6
ATOM      6  N   UNL     1     -14.480  -0.041  30.686  0.00  0.00    -0.321 N 
ATOM     27  C   UNL     1     -13.436  -0.490  29.792  0.00  0.00    +0.130 C 
ATOM     28  C   UNL     1     -15.668  -0.846  30.857  0.00  0.00    +0.130 C 
ENDBRANCH  26   6
ENDBRANCH  16  17
ENDBRANCH   7  12
BRANCH   2  11
ATOM     11  C   UNL     1     -14.632   9.348  32.264  0.00  0.00    +0.085 C 
BRANCH  11  13
ATOM     13  C   UNL     1     -16.102   8.997  32.040  0.00  0.00    +0.020 C 
BRANCH  13  14
ATOM     14  C   UNL     1     -16.244   7.782  31.119  0.00  0.00    +0.036 C 
BRANCH  14  15
ATOM     15  C   UNL     1     -16.811   6.591  31.850  0.00  0.00    -0.047 A 
ATOM     18  C   UNL     1     -16.985   5.379  31.180  0.00  0.00    +0.003 A 
ATOM     19  C   UNL     1     -17.161   6.700  33.196  0.00  0.00    +0.003 A 
ATOM     20  C   UNL     1     -17.509   4.278  31.857  0.00  0.00    +0.000 A 
ATOM     21  C   UNL     1     -17.686   5.598  33.872  0.00  0.00    +0.000 A 
ATOM     24  C   UNL     1     -17.860   4.387  33.202  0.00  0.00    +0.000 A 
ENDBRANCH  14  15
ENDBRANCH  13  14
ENDBRANCH  11  13
ENDBRANCH   2  11
TORSDOF 7
ENDMDL
MODEL 8
REMARK VINA RESULT:      -6.2      1.435      2.097
REMARK  Name = 45783807
REMARK  9 active torsions:
REMARK  status: ('A' for Active; 'I' for Inactive)
REMARK    1  A    between atoms: N_2  and  C_11
REMARK    2  A    between atoms: N_6  and  C_26
REMARK    3  A    between atoms: N_6  and  C_27
REMARK    4  A    between atoms: N_6  and  C_28
REMARK    5  A    between atoms: C_7  and  C_12
REMARK    6  A    between atoms: C_11  and  C_13
REMARK    7  A    between atoms: C_13  and  C_14
REMARK    8  A    between atoms: C_14  and  C_15
REMARK    9  A    between atoms: C_16  and  C_17
REMARK                            x       y       z     vdW  Elec       q    Type
REMARK                         _______ _______ _______ _____ _____    ______ ____
ROOT
ATOM      2  N   UNL     1     -17.132   3.307  25.435  0.00  0.00    -0.291 NA
ATOM      7  C   UNL     1     -16.532   2.866  24.161  0.00  0.00    +0.146 C 
ATOM      8  C   UNL     1     -17.587   1.937  23.533  0.00  0.00    +0.030 C 
ATOM      9  C   UNL     1     -18.040   2.240  25.857  0.00  0.00    +0.085 C 
ATOM     10  C   UNL     1     -18.715   1.870  24.552  0.00  0.00    +0.017 C 
ENDROOT
BRANCH   7  12
ATOM      1  O   UNL     1     -17.178   4.842  22.877  0.00  0.00    -0.336 OA
ATOM      3  N   UNL     1     -14.991   4.366  22.785  0.00  0.00    -0.190 NA
ATOM      4  N   UNL     1     -16.599   5.824  22.061  0.00  0.00    -0.056 NA
ATOM     12  C   UNL     1     -16.162   4.025  23.260  0.00  0.00    +0.245 A 
ATOM     16  C   UNL     1     -15.309   5.474  22.055  0.00  0.00    +0.204 A 
BRANCH  16  17
ATOM      5  N   UNL     1     -13.785   7.896  19.679  0.00  0.00    -0.240 NA
ATOM     17  C   UNL     1     -14.313   6.213  21.332  0.00  0.00    +0.041 A 
ATOM     22  C   UNL     1     -12.958   5.992  21.552  0.00  0.00    +0.016 A 
ATOM     23  C   UNL     1     -14.672   7.167  20.394  0.00  0.00    +0.124 A 
ATOM     25  C   UNL     1     -12.015   6.722  20.837  0.00  0.00    +0.044 A 
ATOM     26  C   UNL     1     -12.477   7.654  19.920  0.00  0.00    +0.121 A 
BRANCH  26   6
ATOM      6  N   UNL     1     -11.505   8.390  19.200  0.00  0.00    -0.321 N 
ATOM     27  C   UNL     1     -11.026   9.656  19.709  0.00  0.00    +0.130 C 
ATOM     28  C   UNL     1     -10.990   7.885  17.946  0.00  0.00    +0.130 C 
ENDBRANCH  26   6
ENDBRANCH  16  17
ENDBRANCH   7  12
BRANCH   2  11
ATOM     11  C   UNL     1     -16.143   3.620  26.458  0.00  0.00    +0.085 C 
BRANCH  11  13
ATOM     13  C   UNL     1     -16.318   2.701  27.666  0.00  0.00    +0.020 C 
BRANCH  13  14
ATOM     14  C   UNL     1     -15.525   3.214  28.870  0.00  0.00    +0.036 C 
BRANCH  14  15
ATOM     15  C   UNL     1     -15.308   2.133  29.897  0.00  0.00    -0.047 A 
ATOM     18  C   UNL     1     -14.991   2.474  31.213  0.00  0.00    +0.003 A 
ATOM     19  C   UNL     1     -15.425   0.791  29.534  0.00  0.00    +0.003 A 
ATOM     20  C   UNL     1     -14.790   1.472  32.164  0.00  0.00    +0.000 A 
ATOM     21  C   UNL     1     -15.224  -0.210  30.485  0.00  0.00    +0.000 A 
ATOM     24  C   UNL     1     -14.906   0.131  31.800  0.00  0.00    +0.000 A 
ENDBRANCH  14  15
ENDBRANCH  13  14
ENDBRANCH  11  13
ENDBRANCH   2  11
TORSDOF 7
ENDMDL
MODEL 9
REMARK VINA RESULT:      -6.1      7.137     11.238
REMARK  Name = 45783807
REMARK  9 active torsions:
REMARK  status: ('A' for Active; 'I' for Inactive)
REMARK    1  A    between atoms: N_2  and  C_11
REMARK    2  A    between atoms: N_6  and  C_26
REMARK    3  A    between atoms: N_6  and  C_27
REMARK    4  A    between atoms: N_6  and  C_28
REMARK    5  A    between atoms: C_7  and  C_12
REMARK    6  A    between atoms: C_11  and  C_13
REMARK    7  A    between atoms: C_13  and  C_14
REMARK    8  A    between atoms: C_14  and  C_15
REMARK    9  A    between atoms: C_16  and  C_17
REMARK                            x       y       z     vdW  Elec       q    Type
REMARK                         _______ _______ _______ _____ _____    ______ ____
ROOT
ATOM      2  N   UNL     1     -10.863  10.350  17.138  0.00  0.00    -0.291 NA
ATOM      7  C   UNL     1     -10.799  11.484  18.081  0.00  0.00    +0.146 C 
ATOM      8  C   UNL     1     -11.160  12.718  17.235  0.00  0.00    +0.030 C 
ATOM      9  C   UNL     1     -10.560  10.896  15.814  0.00  0.00    +0.085 C 
ATOM     10  C   UNL     1     -11.350  12.189  15.821  0.00  0.00    +0.017 C 
ENDROOT
BRANCH   7  12
ATOM      1  O   UNL     1     -13.050  11.315  19.017  0.00  0.00    -0.336 OA
ATOM      3  N   UNL     1     -11.413  11.129  20.534  0.00  0.00    -0.190 NA
ATOM      4  N   UNL     1     -13.684  11.132  20.253  0.00  0.00    -0.056 NA
ATOM     12  C   UNL     1     -11.715  11.302  19.273  0.00  0.00    +0.245 A 
ATOM     16  C   UNL     1     -12.652  11.031  21.097  0.00  0.00    +0.204 A 
BRANCH  16  17
ATOM      5  N   UNL     1     -12.010  11.167  24.758  0.00  0.00    -0.240 NA
ATOM     17  C   UNL     1     -12.826  10.830  22.507  0.00  0.00    +0.041 A 
ATOM     22  C   UNL     1     -13.923  10.132  23.001  0.00  0.00    +0.016 A 
ATOM     23  C   UNL     1     -11.906  11.323  23.419  0.00  0.00    +0.124 A 
ATOM     25  C   UNL     1     -14.065   9.952  24.372  0.00  0.00    +0.044 A 
ATOM     26  C   UNL     1     -13.090  10.484  25.201  0.00  0.00    +0.121 A 
BRANCH  26   6
ATOM      6  N   UNL     1     -13.248  10.293  26.595  0.00  0.00    -0.321 N 
ATOM     27  C   UNL     1     -14.555  10.418  27.202  0.00  0.00    +0.130 C 
ATOM     28  C   UNL     1     -12.104   9.979  27.422  0.00  0.00    +0.130 C 
ENDBRANCH  26   6
ENDBRANCH  16  17
ENDBRANCH   7  12
BRANCH   2  11
ATOM     11  C   UNL     1      -9.971   9.254  17.495  0.00  0.00    +0.085 C 
BRANCH  11  13
ATOM     13  C   UNL     1     -10.729   7.928  17.480  0.00  0.00    +0.020 C 
BRANCH  13  14
ATOM     14  C   UNL     1     -12.227   8.145  17.706  0.00  0.00    +0.036 C 
BRANCH  14  15
ATOM     15  C   UNL     1     -12.667   7.640  19.056  0.00  0.00    -0.047 A 
ATOM     18  C   UNL     1     -11.727   7.117  19.945  0.00  0.00    +0.003 A 
ATOM     19  C   UNL     1     -14.013   7.695  19.417  0.00  0.00    +0.003 A 
ATOM     20  C   UNL     1     -12.135   6.649  21.195  0.00  0.00    +0.000 A 
ATOM     21  C   UNL     1     -14.420   7.226  20.667  0.00  0.00    +0.000 A 
ATOM     24  C   UNL     1     -13.481   6.703  21.555  0.00  0.00    +0.000 A 
ENDBRANCH  14  15
ENDBRANCH  13  14
ENDBRANCH  11  13
ENDBRANCH   2  11
TORSDOF 7
ENDMDL
MODEL 10
REMARK VINA RESULT:      -6.0     18.853     21.612
REMARK  Name = 45783807
REMARK  9 active torsions:
REMARK  status: ('A' for Active; 'I' for Inactive)
REMARK    1  A    between atoms: N_2  and  C_11
REMARK    2  A    between atoms: N_6  and  C_26
REMARK    3  A    between atoms: N_6  and  C_27
REMARK    4  A    between atoms: N_6  and  C_28
REMARK    5  A    between atoms: C_7  and  C_12
REMARK    6  A    between atoms: C_11  and  C_13
REMARK    7  A    between atoms: C_13  and  C_14
REMARK    8  A    between atoms: C_14  and  C_15
REMARK    9  A    between atoms: C_16  and  C_17
REMARK                            x       y       z     vdW  Elec       q    Type
REMARK                         _______ _______ _______ _____ _____    ______ ____
ROOT
ATOM      2  N   UNL     1      -2.979 -10.279  14.125  0.00  0.00    -0.291 NA
ATOM      7  C   UNL     1      -3.410 -11.074  15.292  0.00  0.00    +0.146 C 
ATOM      8  C   UNL     1      -2.244 -10.964  16.291  0.00  0.00    +0.030 C 
ATOM      9  C   UNL     1      -1.517 -10.325  14.110  0.00  0.00    +0.085 C 
ATOM     10  C   UNL     1      -1.183 -10.141  15.577  0.00  0.00    +0.017 C 
ENDROOT
BRANCH   7  12
ATOM      1  O   UNL     1      -4.800 -10.527  17.226  0.00  0.00    -0.336 OA
ATOM      3  N   UNL     1      -5.818 -10.228  15.253  0.00  0.00    -0.190 NA
ATOM      4  N   UNL     1      -6.090 -10.064  17.519  0.00  0.00    -0.056 NA
ATOM     12  C   UNL     1      -4.724 -10.594  15.870  0.00  0.00    +0.245 A 
ATOM     16  C   UNL     1      -6.628  -9.912  16.305  0.00  0.00    +0.204 A 
BRANCH  16  17
ATOM      5  N   UNL     1      -9.875  -9.187  14.642  0.00  0.00    -0.240 NA
ATOM     17  C   UNL     1      -7.971  -9.445  16.109  0.00  0.00    +0.041 A 
ATOM     22  C   UNL     1      -8.666  -8.816  17.135  0.00  0.00    +0.016 A 
ATOM     23  C   UNL     1      -8.613  -9.605  14.892  0.00  0.00    +0.124 A 
ATOM     25  C   UNL     1      -9.966  -8.372  16.917  0.00  0.00    +0.044 A 
ATOM     26  C   UNL     1     -10.520  -8.580  15.663  0.00  0.00    +0.121 A 
BRANCH  26   6
ATOM      6  N   UNL     1     -11.844  -8.124  15.456  0.00  0.00    -0.321 N 
ATOM     27  C   UNL     1     -12.259  -6.836  15.965  0.00  0.00    +0.130 C 
ATOM     28  C   UNL     1     -12.794  -8.946  14.739  0.00  0.00    +0.130 C 
ENDBRANCH  26   6
ENDBRANCH  16  17
ENDBRANCH   7  12
BRANCH   2  11
ATOM     11  C   UNL     1      -3.555 -10.743  12.870  0.00  0.00    +0.085 C 
BRANCH  11  13
ATOM     13  C   UNL     1      -2.476 -10.831  11.792  0.00  0.00    +0.020 C 
BRANCH  13  14
ATOM     14  C   UNL     1      -2.520  -9.613  10.866  0.00  0.00    +0.036 C 
BRANCH  14  15
ATOM     15  C   UNL     1      -3.811  -9.547  10.091  0.00  0.00    -0.047 A 
ATOM     18  C   UNL     1      -4.163 -10.589   9.232  0.00  0.00    +0.003 A 
ATOM     19  C   UNL     1      -4.655  -8.446  10.233  0.00  0.00    +0.003 A 
ATOM     20  C   UNL     1      -5.359 -10.528   8.515  0.00  0.00    +0.000 A 
ATOM     21  C   UNL     1      -5.850  -8.385   9.516  0.00  0.00    +0.000 A 
ATOM     24  C   UNL     1      -6.202  -9.426   8.657  0.00  0.00    +0.000 A 
ENDBRANCH  14  15
ENDBRANCH  13  14
ENDBRANCH  11  13
ENDBRANCH   2  11
TORSDOF 7
ENDMDL
