REMARK  Name = 7127894
REMARK  11 active torsions:
REMARK  status: ('A' for Active; 'I' for Inactive)
REMARK    1  A    between atoms: S_1  and  C_24
REMARK    2  A    between atoms: S_1  and  C_27
REMARK    3  A    between atoms: O_4  and  C_15
REMARK    4  A    between atoms: O_5  and  C_16
REMARK    5  A    between atoms: N_11  and  C_17
REMARK    6  A    between atoms: N_12  and  C_22
REMARK    7  A    between atoms: N_13  and  C_28
REMARK    8  A    between atoms: C_19  and  C_21
REMARK    9  A    between atoms: C_22  and  C_23
REMARK   10  A    between atoms: C_22  and  C_26
REMARK   11  A    between atoms: C_23  and  C_24
REMARK                            x       y       z     vdW  Elec       q    Type
REMARK                         _______ _______ _______ _____ _____    ______ ____
ROOT
ATOM     15  C   UNL     1      -0.679  -1.581  -1.319  0.00  0.00    +0.167 C 
ATOM     16  C   UNL     1       0.725  -2.197  -1.310  0.00  0.00    +0.149 C 
ATOM     17  C   UNL     1      -1.032  -0.960   0.046  0.00  0.00    +0.129 C 
ATOM     18  C   UNL     1       1.801  -1.180  -0.893  0.00  0.00    +0.074 C 
ATOM     19  C   UNL     1       1.355  -0.257   0.205  0.00  0.00    +0.015 C 
ATOM     20  C   UNL     1       0.090  -0.154   0.642  0.00  0.00    +0.006 C 
ENDROOT
BRANCH  17  11
ATOM      7  O   UNL     1      -3.748  -1.803   0.392  0.00  0.00    -0.252 OA
ATOM     11  N   UNL     1      -2.210  -0.130  -0.035  0.00  0.00    -0.290 N 
ATOM     13  N   UNL     1      -4.442   0.407   0.012  0.00  0.00    -0.267 N 
ATOM     25  C   UNL     1      -3.507  -0.623   0.148  0.00  0.00    +0.304 C 
ATOM     34  H   UNL     1      -2.099   0.847  -0.288  0.00  0.00    +0.151 HD
ATOM     38  H   UNL     1      -4.076   1.334  -0.191  0.00  0.00    +0.156 HD
BRANCH  13  28
ATOM      2  F   UNL     1      -6.048   2.649  -0.314  0.00  0.00    -0.203 F 
ATOM      3  F   UNL     1      -9.938   0.069   0.451  0.00  0.00    -0.205 F 
ATOM     28  C   UNL     1      -5.849   0.323   0.123  0.00  0.00    +0.070 A 
ATOM     29  C   UNL     1      -6.616   1.465  -0.046  0.00  0.00    +0.147 A 
ATOM     30  C   UNL     1      -6.433  -0.902   0.401  0.00  0.00    +0.029 A 
ATOM     31  C   UNL     1      -8.003   1.379   0.065  0.00  0.00    +0.078 A 
ATOM     32  C   UNL     1      -7.821  -0.989   0.512  0.00  0.00    +0.040 A 
ATOM     33  C   UNL     1      -8.606   0.152   0.344  0.00  0.00    +0.126 A 
ENDBRANCH  13  28
ENDBRANCH  17  11
BRANCH  19  21
ATOM      6  O   UNL     1       2.251   0.901   2.043  0.00  0.00    -0.271 OA
ATOM     12  N   UNL     1       3.408   0.925   0.019  0.00  0.00    -0.300 N 
ATOM     21  C   UNL     1       2.367   0.576   0.862  0.00  0.00    +0.241 C 
ATOM     35  H   UNL     1       3.412   0.625  -0.949  0.00  0.00    +0.150 HD
BRANCH  12  22
ATOM     22  C   UNL     1       4.523   1.744   0.439  0.00  0.00    +0.160 C 
BRANCH  22  26
ATOM     10  O   UNL     1       4.473   2.456  -1.883  0.00  0.00    -0.274 OA
ATOM     14  N   UNL     1       5.923   3.506  -0.445  0.00  0.00    -0.328 N 
ATOM     26  C   UNL     1       4.958   2.573  -0.761  0.00  0.00    +0.231 C 
ATOM     39  H   UNL     1       6.286   3.623   0.495  0.00  0.00    +0.145 HD
ATOM     40  H   UNL     1       6.293   4.130  -1.154  0.00  0.00    +0.145 HD
ENDBRANCH  22  26
BRANCH  22  23
ATOM     23  C   UNL     1       5.689   0.901   0.961  0.00  0.00    +0.054 C 
BRANCH  23  24
ATOM     24  C   UNL     1       6.199  -0.089  -0.077  0.00  0.00    +0.168 C 
BRANCH  24   1
ATOM      1  S   UNL     1       7.525  -1.063   0.564  0.00  0.00    -0.034 S 
ATOM      8  O   UNL     1       8.641  -0.179   0.852  0.00  0.00    -0.175 OA
ATOM      9  O   UNL     1       6.989  -1.938   1.593  0.00  0.00    -0.175 OA
ATOM     27  C   UNL     1       7.990  -2.082  -0.818  0.00  0.00    +0.194 C 
ENDBRANCH  24   1
ENDBRANCH  23  24
ENDBRANCH  22  23
ENDBRANCH  12  22
ENDBRANCH  19  21
BRANCH  15   4
ATOM      4  O   UNL     1      -0.733  -0.573  -2.332  0.00  0.00    -0.387 OA
ATOM     36  H   UNL     1      -0.184   0.179  -2.056  0.00  0.00    +0.210 HD
ENDBRANCH  15   4
BRANCH  16   5
ATOM      5  O   UNL     1       0.759  -3.329  -0.443  0.00  0.00    -0.389 OA
ATOM     37  H   UNL     1       0.081  -3.954  -0.751  0.00  0.00    +0.210 HD
ENDBRANCH  16   5
TORSDOF 10
