REMARK  Name = 75536960
REMARK  5 active torsions:
REMARK  status: ('A' for Active; 'I' for Inactive)
REMARK    1  A    between atoms: O_2  and  C_7
REMARK    2  A    between atoms: O_3  and  C_16
REMARK    3  A    between atoms: O_3  and  C_17
REMARK    4  A    between atoms: N_4  and  C_9
REMARK    5  A    between atoms: C_9  and  C_12
REMARK                            x       y       z     vdW  Elec       q    Type
REMARK                         _______ _______ _______ _____ _____    ______ ____
ROOT
ATOM      1  O   UNL     1       3.405   1.954  -0.025  0.00  0.00    -0.376 OA
ATOM      4  N   UNL     1       1.405  -0.421   0.271  0.00  0.00    -0.293 NA
ATOM      6  C   UNL     1       2.648  -1.186   0.126  0.00  0.00    +0.118 C 
ATOM      7  C   UNL     1       3.964  -0.401   0.004  0.00  0.00    +0.154 C 
ATOM      8  C   UNL     1       1.532   0.787   1.088  0.00  0.00    +0.113 C 
ATOM     10  C   UNL     1       3.862   0.870  -0.827  0.00  0.00    +0.192 C 
ATOM     11  C   UNL     1       2.006   1.955   0.222  0.00  0.00    +0.175 C 
ENDROOT
BRANCH   7   2
ATOM      2  O   UNL     1       4.934  -1.252  -0.609  0.00  0.00    -0.388 OA
ATOM     18  H   UNL     1       5.020  -2.045  -0.053  0.00  0.00    +0.210 HD
ENDBRANCH   7   2
BRANCH   4   9
ATOM      9  C   UNL     1       0.334  -1.289   0.761  0.00  0.00    +0.121 C 
BRANCH   9  12
ATOM      5  N   UNL     1      -3.246  -0.065   0.887  0.00  0.00    -0.221 NA
ATOM     12  C   UNL     1      -1.022  -0.817   0.309  0.00  0.00    -0.015 A 
ATOM     13  C   UNL     1      -1.323  -0.689  -1.043  0.00  0.00    +0.011 A 
ATOM     14  C   UNL     1      -2.009  -0.495   1.226  0.00  0.00    +0.119 A 
ATOM     15  C   UNL     1      -2.584  -0.250  -1.430  0.00  0.00    +0.067 A 
ATOM     16  C   UNL     1      -3.501   0.046  -0.435  0.00  0.00    +0.214 A 
BRANCH  16   3
ATOM      3  O   UNL     1      -4.751   0.481  -0.792  0.00  0.00    -0.480 OA
ATOM     17  C   UNL     1      -5.654   0.771   0.268  0.00  0.00    +0.279 C 
ENDBRANCH  16   3
ENDBRANCH   9  12
ENDBRANCH   4   9
TORSDOF 4
