MODEL 1
REMARK VINA RESULT:      -8.1      0.000      0.000
REMARK  Name = 45361661
REMARK  10 active torsions:
REMARK  status: ('A' for Active; 'I' for Inactive)
REMARK    1  A    between atoms: O_2  and  C_12
REMARK    2  A    between atoms: N_6  and  C_16
REMARK    3  A    between atoms: N_7  and  C_25
REMARK    4  A    between atoms: N_8  and  C_26
REMARK    5  A    between atoms: C_9  and  C_19
REMARK    6  A    between atoms: C_11  and  C_21
REMARK    7  A    between atoms: C_15  and  C_20
REMARK    8  A    between atoms: C_20  and  C_22
REMARK    9  A    between atoms: C_20  and  C_23
REMARK   10  A    between atoms: C_25  and  C_27
REMARK                            x       y       z     vdW  Elec       q    Type
REMARK                         _______ _______ _______ _____ _____    ______ ____
ROOT
ATOM      9  C   UNL     1      15.690  10.164  21.403  0.00  0.00    -0.027 C 
ATOM     10  C   UNL     1      15.379   8.649  21.645  0.00  0.00    +0.028 C 
ATOM     11  C   UNL     1      16.450   7.740  20.943  0.00  0.00    +0.012 C 
ATOM     12  C   UNL     1      13.897   8.318  21.308  0.00  0.00    +0.122 C 
ATOM     13  C   UNL     1      14.685  11.030  22.197  0.00  0.00    +0.007 C 
ATOM     14  C   UNL     1      17.107  10.479  21.934  0.00  0.00    +0.009 C 
ATOM     15  C   UNL     1      12.899   9.256  22.026  0.00  0.00    +0.029 C 
ATOM     16  C   UNL     1      17.878   8.116  21.430  0.00  0.00    +0.078 C 
ATOM     17  C   UNL     1      13.234  10.736  21.842  0.00  0.00    +0.007 C 
ATOM     18  C   UNL     1      18.187   9.608  21.309  0.00  0.00    +0.023 C 
ATOM     19  C   UNL     1      15.608  10.555  19.905  0.00  0.00    +0.011 C 
ATOM     21  C   UNL     1      16.220   6.235  21.165  0.00  0.00    +0.010 C 
ENDROOT
BRANCH  16   6
ATOM      4  O   UNL     1      19.862   6.398  22.578  0.00  0.00    -0.253 OA
ATOM      6  N   UNL     1      18.899   7.377  20.718  0.00  0.00    -0.296 N 
ATOM      8  N   UNL     1      20.688   5.975  20.421  0.00  0.00    -0.269 N 
ATOM     24  C   UNL     1      19.831   6.557  21.360  0.00  0.00    +0.304 C 
ATOM     36  H   UNL     1      18.990   7.522  19.717  0.00  0.00    +0.151 HD
ATOM     39  H   UNL     1      20.526   6.213  19.446  0.00  0.00    +0.156 HD
BRANCH   8  26
ATOM      1  F   UNL     1      25.398   5.050  20.534  0.00  0.00    -0.205 F 
ATOM     26  C   UNL     1      21.762   5.087  20.661  0.00  0.00    +0.037 A 
ATOM     28  C   UNL     1      23.077   5.515  20.477  0.00  0.00    +0.061 A 
ATOM     29  C   UNL     1      21.506   3.781  21.081  0.00  0.00    +0.023 A 
ATOM     31  C   UNL     1      24.135   4.638  20.713  0.00  0.00    +0.125 A 
ATOM     32  C   UNL     1      22.565   2.905  21.318  0.00  0.00    +0.005 A 
ATOM     35  C   UNL     1      23.880   3.332  21.133  0.00  0.00    +0.038 A 
ENDBRANCH   8  26
ENDBRANCH  16   6
BRANCH  12   2
ATOM      2  O   UNL     1      13.594   6.991  21.743  0.00  0.00    -0.391 OA
ATOM     37  H   UNL     1      12.671   6.975  22.043  0.00  0.00    +0.210 HD
ENDBRANCH  12   2
BRANCH  15  20
ATOM     20  C   UNL     1      11.454   8.998  21.582  0.00  0.00    +0.077 C 
ATOM     22  C   UNL     1      10.690   8.267  22.680  0.00  0.00    +0.017 C 
BRANCH  20  23
ATOM      3  O   UNL     1      11.286   6.992  20.237  0.00  0.00    -0.276 OA
ATOM      7  N   UNL     1      11.631   9.020  19.166  0.00  0.00    -0.308 N 
ATOM     23  C   UNL     1      11.443   8.210  20.276  0.00  0.00    +0.217 C 
ATOM     38  H   UNL     1      11.783  10.016  19.293  0.00  0.00    +0.149 HD
BRANCH   7  25
ATOM     25  C   UNL     1      11.662   8.502  17.818  0.00  0.00    +0.178 C 
BRANCH  25  27
ATOM      5  O   UNL     1      13.314   8.284  16.048  0.00  0.00    -0.466 OA
ATOM     27  C   UNL     1      12.794   9.081  17.019  0.00  0.00    +0.122 A 
ATOM     30  C   UNL     1      13.445  10.292  17.051  0.00  0.00    +0.046 A 
ATOM     33  C   UNL     1      14.431  10.235  16.037  0.00  0.00    +0.041 A 
ATOM     34  C   UNL     1      14.311   8.994  15.456  0.00  0.00    +0.195 A 
ENDBRANCH  25  27
ENDBRANCH   7  25
ENDBRANCH  20  23
ENDBRANCH  15  20
TORSDOF 7
ENDMDL
MODEL 2
REMARK VINA RESULT:      -8.0     27.824     31.303
REMARK  Name = 45361661
REMARK  10 active torsions:
REMARK  status: ('A' for Active; 'I' for Inactive)
REMARK    1  A    between atoms: O_2  and  C_12
REMARK    2  A    between atoms: N_6  and  C_16
REMARK    3  A    between atoms: N_7  and  C_25
REMARK    4  A    between atoms: N_8  and  C_26
REMARK    5  A    between atoms: C_9  and  C_19
REMARK    6  A    between atoms: C_11  and  C_21
REMARK    7  A    between atoms: C_15  and  C_20
REMARK    8  A    between atoms: C_20  and  C_22
REMARK    9  A    between atoms: C_20  and  C_23
REMARK   10  A    between atoms: C_25  and  C_27
REMARK                            x       y       z     vdW  Elec       q    Type
REMARK                         _______ _______ _______ _____ _____    ______ ____
ROOT
ATOM      9  C   UNL     1      -3.358 -11.188  11.650  0.00  0.00    -0.027 C 
ATOM     10  C   UNL     1      -4.665 -10.550  12.230  0.00  0.00    +0.028 C 
ATOM     11  C   UNL     1      -5.230  -9.452  11.259  0.00  0.00    +0.012 C 
ATOM     12  C   UNL     1      -4.467 -10.100  13.705  0.00  0.00    +0.122 C 
ATOM     13  C   UNL     1      -2.893 -12.339  12.572  0.00  0.00    +0.007 C 
ATOM     14  C   UNL     1      -3.665 -11.792  10.261  0.00  0.00    +0.009 C 
ATOM     15  C   UNL     1      -3.902 -11.227  14.601  0.00  0.00    +0.029 C 
ATOM     16  C   UNL     1      -5.465 -10.053   9.844  0.00  0.00    +0.078 C 
ATOM     17  C   UNL     1      -2.659 -11.892  14.009  0.00  0.00    +0.007 C 
ATOM     18  C   UNL     1      -4.241 -10.779   9.282  0.00  0.00    +0.023 C 
ATOM     19  C   UNL     1      -2.206 -10.160  11.517  0.00  0.00    +0.011 C 
ATOM     21  C   UNL     1      -6.534  -8.803  11.755  0.00  0.00    +0.010 C 
ENDROOT
BRANCH  16   6
ATOM      4  O   UNL     1      -7.287 -10.395   7.661  0.00  0.00    -0.253 OA
ATOM      6  N   UNL     1      -5.875  -9.041   8.893  0.00  0.00    -0.296 N 
ATOM      8  N   UNL     1      -6.979  -8.136   7.101  0.00  0.00    -0.269 N 
ATOM     24  C   UNL     1      -6.773  -9.295   7.853  0.00  0.00    +0.304 C 
ATOM     36  H   UNL     1      -5.429  -8.130   8.937  0.00  0.00    +0.151 HD
ATOM     39  H   UNL     1      -6.474  -7.304   7.396  0.00  0.00    +0.156 HD
BRANCH   8  26
ATOM      1  F   UNL     1      -7.768  -8.624   2.390  0.00  0.00    -0.205 F 
ATOM     26  C   UNL     1      -7.811  -7.972   5.969  0.00  0.00    +0.037 A 
ATOM     28  C   UNL     1      -7.371  -8.388   4.713  0.00  0.00    +0.061 A 
ATOM     29  C   UNL     1      -9.073  -7.395   6.110  0.00  0.00    +0.023 A 
ATOM     31  C   UNL     1      -8.192  -8.226   3.597  0.00  0.00    +0.125 A 
ATOM     32  C   UNL     1      -9.895  -7.233   4.994  0.00  0.00    +0.005 A 
ATOM     35  C   UNL     1      -9.454  -7.648   3.737  0.00  0.00    +0.038 A 
ENDBRANCH   8  26
ENDBRANCH  16   6
BRANCH  12   2
ATOM      2  O   UNL     1      -5.727  -9.727  14.264  0.00  0.00    -0.391 OA
ATOM     37  H   UNL     1      -6.156 -10.530  14.603  0.00  0.00    +0.210 HD
ENDBRANCH  12   2
BRANCH  15  20
ATOM     20  C   UNL     1      -3.590 -10.727  16.017  0.00  0.00    +0.077 C 
ATOM     22  C   UNL     1      -2.098 -10.855  16.301  0.00  0.00    +0.017 C 
BRANCH  20  23
ATOM      3  O   UNL     1      -4.674 -12.698  16.914  0.00  0.00    -0.276 OA
ATOM      7  N   UNL     1      -4.842 -10.707  18.091  0.00  0.00    -0.308 N 
ATOM     23  C   UNL     1      -4.420 -11.502  17.036  0.00  0.00    +0.217 C 
ATOM     38  H   UNL     1      -4.609  -9.718  18.097  0.00  0.00    +0.149 HD
BRANCH   7  25
ATOM     25  C   UNL     1      -5.643 -11.216  19.181  0.00  0.00    +0.178 C 
BRANCH  25  27
ATOM      5  O   UNL     1      -7.941 -11.392  19.950  0.00  0.00    -0.466 OA
ATOM     27  C   UNL     1      -7.106 -10.951  18.973  0.00  0.00    +0.122 A 
ATOM     30  C   UNL     1      -7.818 -10.331  17.973  0.00  0.00    +0.046 A 
ATOM     33  C   UNL     1      -9.178 -10.398  18.359  0.00  0.00    +0.041 A 
ATOM     34  C   UNL     1      -9.201 -11.052  19.568  0.00  0.00    +0.195 A 
ENDBRANCH  25  27
ENDBRANCH   7  25
ENDBRANCH  20  23
ENDBRANCH  15  20
TORSDOF 7
ENDMDL
MODEL 3
REMARK VINA RESULT:      -7.8     28.392     31.337
REMARK  Name = 45361661
REMARK  10 active torsions:
REMARK  status: ('A' for Active; 'I' for Inactive)
REMARK    1  A    between atoms: O_2  and  C_12
REMARK    2  A    between atoms: N_6  and  C_16
REMARK    3  A    between atoms: N_7  and  C_25
REMARK    4  A    between atoms: N_8  and  C_26
REMARK    5  A    between atoms: C_9  and  C_19
REMARK    6  A    between atoms: C_11  and  C_21
REMARK    7  A    between atoms: C_15  and  C_20
REMARK    8  A    between atoms: C_20  and  C_22
REMARK    9  A    between atoms: C_20  and  C_23
REMARK   10  A    between atoms: C_25  and  C_27
REMARK                            x       y       z     vdW  Elec       q    Type
REMARK                         _______ _______ _______ _____ _____    ______ ____
ROOT
ATOM      9  C   UNL     1      -3.543 -11.354  11.917  0.00  0.00    -0.027 C 
ATOM     10  C   UNL     1      -4.882 -10.620  12.260  0.00  0.00    +0.028 C 
ATOM     11  C   UNL     1      -5.273  -9.610  11.123  0.00  0.00    +0.012 C 
ATOM     12  C   UNL     1      -4.847 -10.026  13.698  0.00  0.00    +0.122 C 
ATOM     13  C   UNL     1      -3.247 -12.418  12.999  0.00  0.00    +0.007 C 
ATOM     14  C   UNL     1      -3.703 -12.087  10.566  0.00  0.00    +0.009 C 
ATOM     15  C   UNL     1      -4.448 -11.073  14.764  0.00  0.00    +0.029 C 
ATOM     16  C   UNL     1      -5.358 -10.345   9.755  0.00  0.00    +0.078 C 
ATOM     17  C   UNL     1      -3.173 -11.834  14.403  0.00  0.00    +0.007 C 
ATOM     18  C   UNL     1      -4.108 -11.163   9.427  0.00  0.00    +0.023 C 
ATOM     19  C   UNL     1      -2.338 -10.383  11.831  0.00  0.00    +0.011 C 
ATOM     21  C   UNL     1      -6.598  -8.872  11.383  0.00  0.00    +0.010 C 
ENDROOT
BRANCH  16   6
ATOM      4  O   UNL     1      -7.596 -10.363   7.968  0.00  0.00    -0.253 OA
ATOM      6  N   UNL     1      -5.602  -9.423   8.665  0.00  0.00    -0.296 N 
ATOM      8  N   UNL     1      -6.693  -8.488   6.880  0.00  0.00    -0.269 N 
ATOM     24  C   UNL     1      -6.725  -9.505   7.839  0.00  0.00    +0.304 C 
ATOM     36  H   UNL     1      -4.886  -8.738   8.444  0.00  0.00    +0.151 HD
ATOM     39  H   UNL     1      -5.897  -7.857   6.911  0.00  0.00    +0.156 HD
BRANCH   8  26
ATOM      1  F   UNL     1     -10.898  -6.658   5.458  0.00  0.00    -0.205 F 
ATOM     26  C   UNL     1      -7.639  -8.225   5.863  0.00  0.00    +0.037 A 
ATOM     28  C   UNL     1      -8.825  -7.557   6.168  0.00  0.00    +0.061 A 
ATOM     29  C   UNL     1      -7.387  -8.635   4.553  0.00  0.00    +0.023 A 
ATOM     31  C   UNL     1      -9.758  -7.298   5.164  0.00  0.00    +0.125 A 
ATOM     32  C   UNL     1      -8.320  -8.376   3.549  0.00  0.00    +0.005 A 
ATOM     35  C   UNL     1      -9.506  -7.708   3.854  0.00  0.00    +0.038 A 
ENDBRANCH   8  26
ENDBRANCH  16   6
BRANCH  12   2
ATOM      2  O   UNL     1      -6.149  -9.558  14.052  0.00  0.00    -0.391 OA
ATOM     37  H   UNL     1      -6.120  -9.255  14.975  0.00  0.00    +0.210 HD
ENDBRANCH  12   2
BRANCH  15  20
ATOM     20  C   UNL     1      -4.292 -10.441  16.153  0.00  0.00    +0.077 C 
ATOM     22  C   UNL     1      -3.036 -10.973  16.832  0.00  0.00    +0.017 C 
BRANCH  20  23
ATOM      3  O   UNL     1      -5.705 -11.761  17.610  0.00  0.00    -0.276 OA
ATOM      7  N   UNL     1      -6.434  -9.656  16.967  0.00  0.00    -0.308 N 
ATOM     23  C   UNL     1      -5.537 -10.712  16.991  0.00  0.00    +0.217 C 
ATOM     38  H   UNL     1      -6.227  -8.836  16.403  0.00  0.00    +0.149 HD
BRANCH   7  25
ATOM     25  C   UNL     1      -7.688  -9.679  17.684  0.00  0.00    +0.178 C 
BRANCH  25  27
ATOM      5  O   UNL     1      -8.834  -9.149  15.607  0.00  0.00    -0.466 OA
ATOM     27  C   UNL     1      -8.770  -8.941  16.948  0.00  0.00    +0.122 A 
ATOM     30  C   UNL     1      -9.752  -8.066  17.350  0.00  0.00    +0.046 A 
ATOM     33  C   UNL     1     -10.465  -7.713  16.180  0.00  0.00    +0.041 A 
ATOM     34  C   UNL     1      -9.869  -8.397  15.147  0.00  0.00    +0.195 A 
ENDBRANCH  25  27
ENDBRANCH   7  25
ENDBRANCH  20  23
ENDBRANCH  15  20
TORSDOF 7
ENDMDL
MODEL 4
REMARK VINA RESULT:      -7.6     27.797     32.148
REMARK  Name = 45361661
REMARK  10 active torsions:
REMARK  status: ('A' for Active; 'I' for Inactive)
REMARK    1  A    between atoms: O_2  and  C_12
REMARK    2  A    between atoms: N_6  and  C_16
REMARK    3  A    between atoms: N_7  and  C_25
REMARK    4  A    between atoms: N_8  and  C_26
REMARK    5  A    between atoms: C_9  and  C_19
REMARK    6  A    between atoms: C_11  and  C_21
REMARK    7  A    between atoms: C_15  and  C_20
REMARK    8  A    between atoms: C_20  and  C_22
REMARK    9  A    between atoms: C_20  and  C_23
REMARK   10  A    between atoms: C_25  and  C_27
REMARK                            x       y       z     vdW  Elec       q    Type
REMARK                         _______ _______ _______ _____ _____    ______ ____
ROOT
ATOM      9  C   UNL     1     -16.652   6.175  22.082  0.00  0.00    -0.027 C 
ATOM     10  C   UNL     1     -15.194   5.884  22.570  0.00  0.00    +0.028 C 
ATOM     11  C   UNL     1     -14.163   6.089  21.402  0.00  0.00    +0.012 C 
ATOM     12  C   UNL     1     -15.108   4.516  23.305  0.00  0.00    +0.122 C 
ATOM     13  C   UNL     1     -17.626   6.075  23.279  0.00  0.00    +0.007 C 
ATOM     14  C   UNL     1     -16.723   7.620  21.537  0.00  0.00    +0.009 C 
ATOM     15  C   UNL     1     -16.155   4.381  24.435  0.00  0.00    +0.029 C 
ATOM     16  C   UNL     1     -14.294   7.522  20.813  0.00  0.00    +0.078 C 
ATOM     17  C   UNL     1     -17.573   4.722  23.978  0.00  0.00    +0.007 C 
ATOM     18  C   UNL     1     -15.726   7.887  20.419  0.00  0.00    +0.023 C 
ATOM     19  C   UNL     1     -17.117   5.191  20.979  0.00  0.00    +0.011 C 
ATOM     21  C   UNL     1     -12.703   5.846  21.821  0.00  0.00    +0.010 C 
ENDROOT
BRANCH  16   6
ATOM      4  O   UNL     1     -13.169   9.990  19.894  0.00  0.00    -0.253 OA
ATOM      6  N   UNL     1     -13.440   7.706  19.658  0.00  0.00    -0.296 N 
ATOM      8  N   UNL     1     -12.143   8.823  18.134  0.00  0.00    -0.269 N 
ATOM     24  C   UNL     1     -12.932   8.952  19.281  0.00  0.00    +0.304 C 
ATOM     36  H   UNL     1     -13.268   6.909  19.053  0.00  0.00    +0.151 HD
ATOM     39  H   UNL     1     -12.048   7.888  17.748  0.00  0.00    +0.156 HD
BRANCH   8  26
ATOM      1  F   UNL     1     -11.452  11.443  14.170  0.00  0.00    -0.205 F 
ATOM     26  C   UNL     1     -11.453   9.842  17.437  0.00  0.00    +0.037 A 
ATOM     28  C   UNL     1     -11.800  10.147  16.121  0.00  0.00    +0.061 A 
ATOM     29  C   UNL     1     -10.423  10.542  18.066  0.00  0.00    +0.023 A 
ATOM     31  C   UNL     1     -11.119  11.152  15.435  0.00  0.00    +0.125 A 
ATOM     32  C   UNL     1      -9.741  11.546  17.380  0.00  0.00    +0.005 A 
ATOM     35  C   UNL     1     -10.088  11.851  16.064  0.00  0.00    +0.038 A 
ENDBRANCH   8  26
ENDBRANCH  16   6
BRANCH  12   2
ATOM      2  O   UNL     1     -13.825   4.385  23.920  0.00  0.00    -0.391 OA
ATOM     37  H   UNL     1     -13.297   3.768  23.386  0.00  0.00    +0.210 HD
ENDBRANCH  12   2
BRANCH  15  20
ATOM     20  C   UNL     1     -16.141   2.981  25.060  0.00  0.00    +0.077 C 
ATOM     22  C   UNL     1     -17.192   2.100  24.394  0.00  0.00    +0.017 C 
BRANCH  20  23
ATOM      3  O   UNL     1     -16.395   4.153  27.163  0.00  0.00    -0.276 OA
ATOM      7  N   UNL     1     -16.540   1.839  27.160  0.00  0.00    -0.308 N 
ATOM     23  C   UNL     1     -16.370   3.080  26.565  0.00  0.00    +0.217 C 
ATOM     38  H   UNL     1     -16.475   0.999  26.592  0.00  0.00    +0.149 HD
BRANCH   7  25
ATOM     25  C   UNL     1     -16.769   1.676  28.576  0.00  0.00    +0.178 C 
BRANCH  25  27
ATOM      5  O   UNL     1     -15.167  -0.076  29.098  0.00  0.00    -0.466 OA
ATOM     27  C   UNL     1     -15.534   1.218  29.297  0.00  0.00    +0.122 A 
ATOM     30  C   UNL     1     -14.653   1.845  30.147  0.00  0.00    +0.046 A 
ATOM     33  C   UNL     1     -13.684   0.874  30.494  0.00  0.00    +0.041 A 
ATOM     34  C   UNL     1     -14.040  -0.277  29.831  0.00  0.00    +0.195 A 
ENDBRANCH  25  27
ENDBRANCH   7  25
ENDBRANCH  20  23
ENDBRANCH  15  20
TORSDOF 7
ENDMDL
MODEL 5
REMARK VINA RESULT:      -7.6     27.767     31.370
REMARK  Name = 45361661
REMARK  10 active torsions:
REMARK  status: ('A' for Active; 'I' for Inactive)
REMARK    1  A    between atoms: O_2  and  C_12
REMARK    2  A    between atoms: N_6  and  C_16
REMARK    3  A    between atoms: N_7  and  C_25
REMARK    4  A    between atoms: N_8  and  C_26
REMARK    5  A    between atoms: C_9  and  C_19
REMARK    6  A    between atoms: C_11  and  C_21
REMARK    7  A    between atoms: C_15  and  C_20
REMARK    8  A    between atoms: C_20  and  C_22
REMARK    9  A    between atoms: C_20  and  C_23
REMARK   10  A    between atoms: C_25  and  C_27
REMARK                            x       y       z     vdW  Elec       q    Type
REMARK                         _______ _______ _______ _____ _____    ______ ____
ROOT
ATOM      9  C   UNL     1     -14.638   8.099  20.009  0.00  0.00    -0.027 C 
ATOM     10  C   UNL     1     -13.603   6.983  20.373  0.00  0.00    +0.028 C 
ATOM     11  C   UNL     1     -13.796   6.505  21.857  0.00  0.00    +0.012 C 
ATOM     12  C   UNL     1     -12.157   7.408  19.990  0.00  0.00    +0.122 C 
ATOM     13  C   UNL     1     -14.496   8.465  18.514  0.00  0.00    +0.007 C 
ATOM     14  C   UNL     1     -16.067   7.552  20.226  0.00  0.00    +0.009 C 
ATOM     15  C   UNL     1     -12.043   7.873  18.520  0.00  0.00    +0.029 C 
ATOM     16  C   UNL     1     -15.258   6.026  22.084  0.00  0.00    +0.078 C 
ATOM     17  C   UNL     1     -13.090   8.920  18.143  0.00  0.00    +0.007 C 
ATOM     18  C   UNL     1     -16.306   7.048  21.642  0.00  0.00    +0.023 C 
ATOM     19  C   UNL     1     -14.449   9.383  20.856  0.00  0.00    +0.011 C 
ATOM     21  C   UNL     1     -12.827   5.385  22.274  0.00  0.00    +0.010 C 
ENDROOT
BRANCH  16   6
ATOM      4  O   UNL     1     -15.808   3.421  23.138  0.00  0.00    -0.253 OA
ATOM      6  N   UNL     1     -15.502   5.688  23.470  0.00  0.00    -0.296 N 
ATOM      8  N   UNL     1     -15.959   4.363  25.283  0.00  0.00    -0.269 N 
ATOM     24  C   UNL     1     -15.764   4.385  23.900  0.00  0.00    +0.304 C 
ATOM     36  H   UNL     1     -15.564   6.443  24.147  0.00  0.00    +0.151 HD
ATOM     39  H   UNL     1     -15.887   5.254  25.768  0.00  0.00    +0.156 HD
BRANCH   8  26
ATOM      1  F   UNL     1     -15.821   2.165  29.550  0.00  0.00    -0.205 F 
ATOM     26  C   UNL     1     -16.245   3.246  26.102  0.00  0.00    +0.037 A 
ATOM     28  C   UNL     1     -15.885   3.257  27.449  0.00  0.00    +0.061 A 
ATOM     29  C   UNL     1     -16.886   2.131  25.560  0.00  0.00    +0.023 A 
ATOM     31  C   UNL     1     -16.168   2.154  28.256  0.00  0.00    +0.125 A 
ATOM     32  C   UNL     1     -17.168   1.029  26.367  0.00  0.00    +0.005 A 
ATOM     35  C   UNL     1     -16.809   1.040  27.714  0.00  0.00    +0.038 A 
ENDBRANCH   8  26
ENDBRANCH  16   6
BRANCH  12   2
ATOM      2  O   UNL     1     -11.277   6.291  20.135  0.00  0.00    -0.391 OA
ATOM     37  H   UNL     1     -10.410   6.625  20.418  0.00  0.00    +0.210 HD
ENDBRANCH  12   2
BRANCH  15  20
ATOM     20  C   UNL     1     -10.642   8.410  18.199  0.00  0.00    +0.077 C 
ATOM     22  C   UNL     1     -10.307   9.580  19.118  0.00  0.00    +0.017 C 
BRANCH  20  23
ATOM      3  O   UNL     1     -10.375   9.975  16.371  0.00  0.00    -0.276 OA
ATOM      7  N   UNL     1     -10.731   7.738  15.873  0.00  0.00    -0.308 N 
ATOM     23  C   UNL     1     -10.564   8.815  16.731  0.00  0.00    +0.217 C 
ATOM     38  H   UNL     1     -10.913   6.816  16.258  0.00  0.00    +0.149 HD
BRANCH   7  25
ATOM     25  C   UNL     1     -10.699   7.872  14.435  0.00  0.00    +0.178 C 
BRANCH  25  27
ATOM      5  O   UNL     1     -12.722   7.030  13.384  0.00  0.00    -0.466 OA
ATOM     27  C   UNL     1     -12.065   8.119  13.863  0.00  0.00    +0.122 A 
ATOM     30  C   UNL     1     -12.832   9.251  13.713  0.00  0.00    +0.046 A 
ATOM     33  C   UNL     1     -14.037   8.831  13.101  0.00  0.00    +0.041 A 
ATOM     34  C   UNL     1     -13.922   7.472  12.922  0.00  0.00    +0.195 A 
ENDBRANCH  25  27
ENDBRANCH   7  25
ENDBRANCH  20  23
ENDBRANCH  15  20
TORSDOF 7
ENDMDL
MODEL 6
REMARK VINA RESULT:      -7.6      2.160      4.080
REMARK  Name = 45361661
REMARK  10 active torsions:
REMARK  status: ('A' for Active; 'I' for Inactive)
REMARK    1  A    between atoms: O_2  and  C_12
REMARK    2  A    between atoms: N_6  and  C_16
REMARK    3  A    between atoms: N_7  and  C_25
REMARK    4  A    between atoms: N_8  and  C_26
REMARK    5  A    between atoms: C_9  and  C_19
REMARK    6  A    between atoms: C_11  and  C_21
REMARK    7  A    between atoms: C_15  and  C_20
REMARK    8  A    between atoms: C_20  and  C_22
REMARK    9  A    between atoms: C_20  and  C_23
REMARK   10  A    between atoms: C_25  and  C_27
REMARK                            x       y       z     vdW  Elec       q    Type
REMARK                         _______ _______ _______ _____ _____    ______ ____
ROOT
ATOM      9  C   UNL     1      17.264   8.962  21.237  0.00  0.00    -0.027 C 
ATOM     10  C   UNL     1      16.793   7.598  20.630  0.00  0.00    +0.028 C 
ATOM     11  C   UNL     1      17.991   6.846  19.948  0.00  0.00    +0.012 C 
ATOM     12  C   UNL     1      15.529   7.783  19.743  0.00  0.00    +0.122 C 
ATOM     13  C   UNL     1      16.089   9.622  21.995  0.00  0.00    +0.007 C 
ATOM     14  C   UNL     1      18.394   8.696  22.258  0.00  0.00    +0.009 C 
ATOM     15  C   UNL     1      14.393   8.537  20.474  0.00  0.00    +0.029 C 
ATOM     16  C   UNL     1      19.152   6.650  20.965  0.00  0.00    +0.078 C 
ATOM     17  C   UNL     1      14.863   9.841  21.119  0.00  0.00    +0.007 C 
ATOM     18  C   UNL     1      19.574   7.944  21.661  0.00  0.00    +0.023 C 
ATOM     19  C   UNL     1      17.775   9.948  20.156  0.00  0.00    +0.011 C 
ATOM     21  C   UNL     1      17.604   5.481  19.355  0.00  0.00    +0.010 C 
ENDROOT
BRANCH  16   6
ATOM      4  O   UNL     1      21.130   5.010  22.230  0.00  0.00    -0.253 OA
ATOM      6  N   UNL     1      20.319   6.063  20.339  0.00  0.00    -0.296 N 
ATOM      8  N   UNL     1      22.254   4.847  20.176  0.00  0.00    -0.269 N 
ATOM     24  C   UNL     1      21.237   5.272  21.035  0.00  0.00    +0.304 C 
ATOM     36  H   UNL     1      20.520   6.303  19.373  0.00  0.00    +0.151 HD
ATOM     39  H   UNL     1      22.193   5.155  19.209  0.00  0.00    +0.156 HD
BRANCH   8  26
ATOM      1  F   UNL     1      24.128   0.556  21.237  0.00  0.00    -0.205 F 
ATOM     26  C   UNL     1      23.369   4.034  20.487  0.00  0.00    +0.037 A 
ATOM     28  C   UNL     1      23.196   2.668  20.712  0.00  0.00    +0.061 A 
ATOM     29  C   UNL     1      24.642   4.599  20.571  0.00  0.00    +0.023 A 
ATOM     31  C   UNL     1      24.295   1.867  21.020  0.00  0.00    +0.125 A 
ATOM     32  C   UNL     1      25.741   3.797  20.878  0.00  0.00    +0.005 A 
ATOM     35  C   UNL     1      25.568   2.432  21.104  0.00  0.00    +0.038 A 
ENDBRANCH   8  26
ENDBRANCH  16   6
BRANCH  12   2
ATOM      2  O   UNL     1      15.005   6.502  19.386  0.00  0.00    -0.391 OA
ATOM     37  H   UNL     1      15.393   6.245  18.533  0.00  0.00    +0.210 HD
ENDBRANCH  12   2
BRANCH  15  20
ATOM     20  C   UNL     1      13.208   8.824  19.543  0.00  0.00    +0.077 C 
ATOM     22  C   UNL     1      13.399  10.168  18.851  0.00  0.00    +0.017 C 
BRANCH  20  23
ATOM      3  O   UNL     1      10.920   8.153  19.959  0.00  0.00    -0.276 OA
ATOM      7  N   UNL     1      11.967   9.534  21.499  0.00  0.00    -0.308 N 
ATOM     23  C   UNL     1      11.904   8.785  20.334  0.00  0.00    +0.217 C 
ATOM     38  H   UNL     1      12.815  10.050  21.717  0.00  0.00    +0.149 HD
BRANCH   7  25
ATOM     25  C   UNL     1      10.855   9.652  22.413  0.00  0.00    +0.178 C 
BRANCH  25  27
ATOM      5  O   UNL     1      10.985  10.695  24.604  0.00  0.00    -0.466 OA
ATOM     27  C   UNL     1      10.952  10.888  23.259  0.00  0.00    +0.122 A 
ATOM     30  C   UNL     1      11.020  12.229  22.962  0.00  0.00    +0.046 A 
ATOM     33  C   UNL     1      11.098  12.903  24.204  0.00  0.00    +0.041 A 
ATOM     34  C   UNL     1      11.073  11.927  25.172  0.00  0.00    +0.195 A 
ENDBRANCH  25  27
ENDBRANCH   7  25
ENDBRANCH  20  23
ENDBRANCH  15  20
TORSDOF 7
ENDMDL
MODEL 7
REMARK VINA RESULT:      -7.6      2.578      4.443
REMARK  Name = 45361661
REMARK  10 active torsions:
REMARK  status: ('A' for Active; 'I' for Inactive)
REMARK    1  A    between atoms: O_2  and  C_12
REMARK    2  A    between atoms: N_6  and  C_16
REMARK    3  A    between atoms: N_7  and  C_25
REMARK    4  A    between atoms: N_8  and  C_26
REMARK    5  A    between atoms: C_9  and  C_19
REMARK    6  A    between atoms: C_11  and  C_21
REMARK    7  A    between atoms: C_15  and  C_20
REMARK    8  A    between atoms: C_20  and  C_22
REMARK    9  A    between atoms: C_20  and  C_23
REMARK   10  A    between atoms: C_25  and  C_27
REMARK                            x       y       z     vdW  Elec       q    Type
REMARK                         _______ _______ _______ _____ _____    ______ ____
ROOT
ATOM      9  C   UNL     1      16.633  10.214  21.544  0.00  0.00    -0.027 C 
ATOM     10  C   UNL     1      16.118   8.764  21.833  0.00  0.00    +0.028 C 
ATOM     11  C   UNL     1      17.005   7.699  21.096  0.00  0.00    +0.012 C 
ATOM     12  C   UNL     1      14.587   8.649  21.582  0.00  0.00    +0.122 C 
ATOM     13  C   UNL     1      15.810  11.228  22.372  0.00  0.00    +0.007 C 
ATOM     14  C   UNL     1      18.107  10.324  21.995  0.00  0.00    +0.009 C 
ATOM     15  C   UNL     1      13.777   9.732  22.331  0.00  0.00    +0.029 C 
ATOM     16  C   UNL     1      18.498   7.868  21.500  0.00  0.00    +0.078 C 
ATOM     17  C   UNL     1      14.314  11.144  22.098  0.00  0.00    +0.007 C 
ATOM     18  C   UNL     1      19.013   9.297  21.332  0.00  0.00    +0.023 C 
ATOM     19  C   UNL     1      16.527  10.594  20.045  0.00  0.00    +0.011 C 
ATOM     21  C   UNL     1      16.572   6.246  21.361  0.00  0.00    +0.010 C 
ENDROOT
BRANCH  16   6
ATOM      4  O   UNL     1      20.643   6.283  22.544  0.00  0.00    -0.253 OA
ATOM      6  N   UNL     1      19.360   6.978  20.751  0.00  0.00    -0.296 N 
ATOM      8  N   UNL     1      21.047   5.473  20.378  0.00  0.00    -0.269 N 
ATOM     24  C   UNL     1      20.387   6.239  21.343  0.00  0.00    +0.304 C 
ATOM     36  H   UNL     1      19.264   6.951  19.741  0.00  0.00    +0.151 HD
ATOM     39  H   UNL     1      20.708   5.551  19.423  0.00  0.00    +0.156 HD
BRANCH   8  26
ATOM      1  F   UNL     1      25.724   4.467  19.961  0.00  0.00    -0.205 F 
ATOM     26  C   UNL     1      22.138   4.593  20.567  0.00  0.00    +0.037 A 
ATOM     28  C   UNL     1      23.419   4.971  20.164  0.00  0.00    +0.061 A 
ATOM     29  C   UNL     1      21.933   3.344  21.156  0.00  0.00    +0.023 A 
ATOM     31  C   UNL     1      24.494   4.103  20.350  0.00  0.00    +0.125 A 
ATOM     32  C   UNL     1      23.009   2.476  21.342  0.00  0.00    +0.005 A 
ATOM     35  C   UNL     1      24.289   2.854  20.938  0.00  0.00    +0.038 A 
ENDBRANCH   8  26
ENDBRANCH  16   6
BRANCH  12   2
ATOM      2  O   UNL     1      14.119   7.386  22.058  0.00  0.00    -0.391 OA
ATOM     37  H   UNL     1      13.924   7.475  23.006  0.00  0.00    +0.210 HD
ENDBRANCH  12   2
BRANCH  15  20
ATOM     20  C   UNL     1      12.288   9.683  21.968  0.00  0.00    +0.077 C 
ATOM     22  C   UNL     1      12.110   9.843  20.462  0.00  0.00    +0.017 C 
BRANCH  20  23
ATOM      3  O   UNL     1      10.922  11.671  22.177  0.00  0.00    -0.276 OA
ATOM      7  N   UNL     1      11.611  10.591  24.109  0.00  0.00    -0.308 N 
ATOM     23  C   UNL     1      11.530  10.761  22.736  0.00  0.00    +0.217 C 
ATOM     38  H   UNL     1      12.161   9.824  24.487  0.00  0.00    +0.149 HD
BRANCH   7  25
ATOM     25  C   UNL     1      10.975  11.487  25.047  0.00  0.00    +0.178 C 
BRANCH  25  27
ATOM      5  O   UNL     1      12.910  12.422  26.181  0.00  0.00    -0.466 OA
ATOM     27  C   UNL     1      11.844  12.667  25.374  0.00  0.00    +0.122 A 
ATOM     30  C   UNL     1      11.800  13.995  25.022  0.00  0.00    +0.046 A 
ATOM     33  C   UNL     1      12.909  14.607  25.654  0.00  0.00    +0.041 A 
ATOM     34  C   UNL     1      13.553  13.609  26.347  0.00  0.00    +0.195 A 
ENDBRANCH  25  27
ENDBRANCH   7  25
ENDBRANCH  20  23
ENDBRANCH  15  20
TORSDOF 7
ENDMDL
MODEL 8
REMARK VINA RESULT:      -7.3     16.995     22.077
REMARK  Name = 45361661
REMARK  10 active torsions:
REMARK  status: ('A' for Active; 'I' for Inactive)
REMARK    1  A    between atoms: O_2  and  C_12
REMARK    2  A    between atoms: N_6  and  C_16
REMARK    3  A    between atoms: N_7  and  C_25
REMARK    4  A    between atoms: N_8  and  C_26
REMARK    5  A    between atoms: C_9  and  C_19
REMARK    6  A    between atoms: C_11  and  C_21
REMARK    7  A    between atoms: C_15  and  C_20
REMARK    8  A    between atoms: C_20  and  C_22
REMARK    9  A    between atoms: C_20  and  C_23
REMARK   10  A    between atoms: C_25  and  C_27
REMARK                            x       y       z     vdW  Elec       q    Type
REMARK                         _______ _______ _______ _____ _____    ______ ____
ROOT
ATOM      9  C   UNL     1      13.561   4.711  -1.449  0.00  0.00    -0.027 C 
ATOM     10  C   UNL     1      14.557   4.027  -0.454  0.00  0.00    +0.028 C 
ATOM     11  C   UNL     1      13.997   4.069   1.013  0.00  0.00    +0.012 C 
ATOM     12  C   UNL     1      16.000   4.577  -0.634  0.00  0.00    +0.122 C 
ATOM     13  C   UNL     1      14.086   4.554  -2.894  0.00  0.00    +0.007 C 
ATOM     14  C   UNL     1      12.193   3.996  -1.365  0.00  0.00    +0.009 C 
ATOM     15  C   UNL     1      16.482   4.513  -2.102  0.00  0.00    +0.029 C 
ATOM     16  C   UNL     1      12.589   3.412   1.072  0.00  0.00    +0.078 C 
ATOM     17  C   UNL     1      15.485   5.127  -3.084  0.00  0.00    +0.007 C 
ATOM     18  C   UNL     1      11.612   3.980   0.042  0.00  0.00    +0.023 C 
ATOM     19  C   UNL     1      13.366   6.220  -1.152  0.00  0.00    +0.011 C 
ATOM     21  C   UNL     1      14.916   3.386   2.042  0.00  0.00    +0.010 C 
ENDROOT
BRANCH  16   6
ATOM      4  O   UNL     1      11.555   5.804   2.262  0.00  0.00    -0.253 OA
ATOM      6  N   UNL     1      11.994   3.537   2.386  0.00  0.00    -0.296 N 
ATOM      8  N   UNL     1      10.997   4.563   4.176  0.00  0.00    -0.269 N 
ATOM     24  C   UNL     1      11.513   4.748   2.890  0.00  0.00    +0.304 C 
ATOM     36  H   UNL     1      11.999   2.726   2.996  0.00  0.00    +0.151 HD
ATOM     39  H   UNL     1      11.037   3.620   4.553  0.00  0.00    +0.156 HD
BRANCH   8  26
ATOM      1  F   UNL     1      11.447   8.124   7.364  0.00  0.00    -0.205 F 
ATOM     26  C   UNL     1      10.418   5.534   5.026  0.00  0.00    +0.037 A 
ATOM     28  C   UNL     1      11.234   6.368   5.791  0.00  0.00    +0.061 A 
ATOM     29  C   UNL     1       9.030   5.657   5.101  0.00  0.00    +0.023 A 
ATOM     31  C   UNL     1      10.663   7.325   6.630  0.00  0.00    +0.125 A 
ATOM     32  C   UNL     1       8.459   6.614   5.939  0.00  0.00    +0.005 A 
ATOM     35  C   UNL     1       9.275   7.448   6.704  0.00  0.00    +0.038 A 
ENDBRANCH   8  26
ENDBRANCH  16   6
BRANCH  12   2
ATOM      2  O   UNL     1      16.912   3.785   0.129  0.00  0.00    -0.391 OA
ATOM     37  H   UNL     1      16.925   2.891  -0.250  0.00  0.00    +0.210 HD
ENDBRANCH  12   2
BRANCH  15  20
ATOM     20  C   UNL     1      17.853   5.178  -2.282  0.00  0.00    +0.077 C 
ATOM     22  C   UNL     1      17.738   6.369  -3.227  0.00  0.00    +0.017 C 
BRANCH  20  23
ATOM      3  O   UNL     1      19.087   3.985  -3.989  0.00  0.00    -0.276 OA
ATOM      7  N   UNL     1      19.482   3.461  -1.765  0.00  0.00    -0.308 N 
ATOM     23  C   UNL     1      18.864   4.157  -2.793  0.00  0.00    +0.217 C 
ATOM     38  H   UNL     1      19.215   3.648  -0.803  0.00  0.00    +0.149 HD
BRANCH   7  25
ATOM     25  C   UNL     1      20.477   2.440  -2.001  0.00  0.00    +0.178 C 
BRANCH  25  27
ATOM      5  O   UNL     1      21.830   3.190  -0.126  0.00  0.00    -0.466 OA
ATOM     27  C   UNL     1      21.815   2.818  -1.434  0.00  0.00    +0.122 A 
ATOM     30  C   UNL     1      23.082   2.870  -1.966  0.00  0.00    +0.046 A 
ATOM     33  C   UNL     1      23.930   3.304  -0.920  0.00  0.00    +0.041 A 
ATOM     34  C   UNL     1      23.122   3.485   0.178  0.00  0.00    +0.195 A 
ENDBRANCH  25  27
ENDBRANCH   7  25
ENDBRANCH  20  23
ENDBRANCH  15  20
TORSDOF 7
ENDMDL
MODEL 9
REMARK VINA RESULT:      -7.3     28.944     32.220
REMARK  Name = 45361661
REMARK  10 active torsions:
REMARK  status: ('A' for Active; 'I' for Inactive)
REMARK    1  A    between atoms: O_2  and  C_12
REMARK    2  A    between atoms: N_6  and  C_16
REMARK    3  A    between atoms: N_7  and  C_25
REMARK    4  A    between atoms: N_8  and  C_26
REMARK    5  A    between atoms: C_9  and  C_19
REMARK    6  A    between atoms: C_11  and  C_21
REMARK    7  A    between atoms: C_15  and  C_20
REMARK    8  A    between atoms: C_20  and  C_22
REMARK    9  A    between atoms: C_20  and  C_23
REMARK   10  A    between atoms: C_25  and  C_27
REMARK                            x       y       z     vdW  Elec       q    Type
REMARK                         _______ _______ _______ _____ _____    ______ ____
ROOT
ATOM      9  C   UNL     1      -4.427 -10.453   9.829  0.00  0.00    -0.027 C 
ATOM     10  C   UNL     1      -5.817  -9.918  10.313  0.00  0.00    +0.028 C 
ATOM     11  C   UNL     1      -6.391  -8.861   9.303  0.00  0.00    +0.012 C 
ATOM     12  C   UNL     1      -5.758  -9.460  11.798  0.00  0.00    +0.122 C 
ATOM     13  C   UNL     1      -3.944 -11.569  10.784  0.00  0.00    +0.007 C 
ATOM     14  C   UNL     1      -4.587 -11.072   8.422  0.00  0.00    +0.009 C 
ATOM     15  C   UNL     1      -5.176 -10.545  12.733  0.00  0.00    +0.029 C 
ATOM     16  C   UNL     1      -6.478  -9.473   7.875  0.00  0.00    +0.078 C 
ATOM     17  C   UNL     1      -3.847 -11.112  12.233  0.00  0.00    +0.007 C 
ATOM     18  C   UNL     1      -5.167 -10.101   7.404  0.00  0.00    +0.023 C 
ATOM     19  C   UNL     1      -3.348  -9.341   9.777  0.00  0.00    +0.011 C 
ATOM     21  C   UNL     1      -7.773  -8.315   9.703  0.00  0.00    +0.010 C 
ENDROOT
BRANCH  16   6
ATOM      4  O   UNL     1      -8.018  -9.960   5.510  0.00  0.00    -0.253 OA
ATOM      6  N   UNL     1      -6.894  -8.490   6.896  0.00  0.00    -0.296 N 
ATOM      8  N   UNL     1      -7.899  -7.670   5.007  0.00  0.00    -0.269 N 
ATOM     24  C   UNL     1      -7.648  -8.816   5.766  0.00  0.00    +0.304 C 
ATOM     36  H   UNL     1      -6.557  -7.538   6.995  0.00  0.00    +0.151 HD
ATOM     39  H   UNL     1      -7.519  -6.796   5.361  0.00  0.00    +0.156 HD
BRANCH   8  26
ATOM      1  F   UNL     1     -11.760  -6.212   2.554  0.00  0.00    -0.205 F 
ATOM     26  C   UNL     1      -8.623  -7.573   3.796  0.00  0.00    +0.037 A 
ATOM     28  C   UNL     1      -9.859  -6.927   3.771  0.00  0.00    +0.061 A 
ATOM     29  C   UNL     1      -8.101  -8.125   2.626  0.00  0.00    +0.023 A 
ATOM     31  C   UNL     1     -10.573  -6.832   2.577  0.00  0.00    +0.125 A 
ATOM     32  C   UNL     1      -8.815  -8.030   1.431  0.00  0.00    +0.005 A 
ATOM     35  C   UNL     1     -10.051  -7.384   1.407  0.00  0.00    +0.038 A 
ENDBRANCH   8  26
ENDBRANCH  16   6
BRANCH  12   2
ATOM      2  O   UNL     1      -7.080  -9.185  12.265  0.00  0.00    -0.391 OA
ATOM     37  H   UNL     1      -7.020  -8.901  13.192  0.00  0.00    +0.210 HD
ENDBRANCH  12   2
BRANCH  15  20
ATOM     20  C   UNL     1      -5.005 -10.029  14.168  0.00  0.00    +0.077 C 
ATOM     22  C   UNL     1      -3.783 -10.672  14.814  0.00  0.00    +0.017 C 
BRANCH  20  23
ATOM      3  O   UNL     1      -7.086 -11.166  14.656  0.00  0.00    -0.276 OA
ATOM      7  N   UNL     1      -6.384  -9.478  16.082  0.00  0.00    -0.308 N 
ATOM     23  C   UNL     1      -6.271 -10.304  14.974  0.00  0.00    +0.217 C 
ATOM     38  H   UNL     1      -5.675  -8.770  16.253  0.00  0.00    +0.149 HD
BRANCH   7  25
ATOM     25  C   UNL     1      -7.499  -9.548  16.998  0.00  0.00    +0.178 C 
BRANCH  25  27
ATOM      5  O   UNL     1      -6.186 -10.292  18.903  0.00  0.00    -0.466 OA
ATOM     27  C   UNL     1      -7.257 -10.536  18.103  0.00  0.00    +0.122 A 
ATOM     30  C   UNL     1      -7.908 -11.680  18.502  0.00  0.00    +0.046 A 
ATOM     33  C   UNL     1      -7.190 -12.171  19.618  0.00  0.00    +0.041 A 
ATOM     34  C   UNL     1      -6.152 -11.292  19.823  0.00  0.00    +0.195 A 
ENDBRANCH  25  27
ENDBRANCH   7  25
ENDBRANCH  20  23
ENDBRANCH  15  20
TORSDOF 7
ENDMDL
MODEL 10
REMARK VINA RESULT:      -7.2     28.168     31.552
REMARK  Name = 45361661
REMARK  10 active torsions:
REMARK  status: ('A' for Active; 'I' for Inactive)
REMARK    1  A    between atoms: O_2  and  C_12
REMARK    2  A    between atoms: N_6  and  C_16
REMARK    3  A    between atoms: N_7  and  C_25
REMARK    4  A    between atoms: N_8  and  C_26
REMARK    5  A    between atoms: C_9  and  C_19
REMARK    6  A    between atoms: C_11  and  C_21
REMARK    7  A    between atoms: C_15  and  C_20
REMARK    8  A    between atoms: C_20  and  C_22
REMARK    9  A    between atoms: C_20  and  C_23
REMARK   10  A    between atoms: C_25  and  C_27
REMARK                            x       y       z     vdW  Elec       q    Type
REMARK                         _______ _______ _______ _____ _____    ______ ____
ROOT
ATOM      9  C   UNL     1      -4.644 -11.166  17.025  0.00  0.00    -0.027 C 
ATOM     10  C   UNL     1      -5.585 -10.794  15.831  0.00  0.00    +0.028 C 
ATOM     11  C   UNL     1      -7.073 -11.185  16.149  0.00  0.00    +0.012 C 
ATOM     12  C   UNL     1      -5.026 -11.333  14.484  0.00  0.00    +0.122 C 
ATOM     13  C   UNL     1      -3.211 -10.667  16.727  0.00  0.00    +0.007 C 
ATOM     14  C   UNL     1      -5.139 -10.445  18.300  0.00  0.00    +0.009 C 
ATOM     15  C   UNL     1      -3.557 -10.917  14.240  0.00  0.00    +0.029 C 
ATOM     16  C   UNL     1      -7.535 -10.513  17.473  0.00  0.00    +0.078 C 
ATOM     17  C   UNL     1      -2.645 -11.225  15.428  0.00  0.00    +0.007 C 
ATOM     18  C   UNL     1      -6.586 -10.764  18.645  0.00  0.00    +0.023 C 
ATOM     19  C   UNL     1      -4.595 -12.692  17.289  0.00  0.00    +0.011 C 
ATOM     21  C   UNL     1      -8.059 -10.820  15.026  0.00  0.00    +0.010 C 
ENDROOT
BRANCH  16   6
ATOM      4  O   UNL     1      -9.784  -8.831  18.038  0.00  0.00    -0.253 OA
ATOM      6  N   UNL     1      -8.863 -10.944  17.857  0.00  0.00    -0.296 N 
ATOM      8  N   UNL     1     -11.065 -10.752  18.462  0.00  0.00    -0.269 N 
ATOM     24  C   UNL     1      -9.907 -10.051  18.115  0.00  0.00    +0.304 C 
ATOM     36  H   UNL     1      -9.020 -11.933  18.023  0.00  0.00    +0.151 HD
ATOM     39  H   UNL     1     -10.997 -11.766  18.479  0.00  0.00    +0.156 HD
BRANCH   8  26
ATOM      1  F   UNL     1     -15.321  -8.961  17.146  0.00  0.00    -0.205 F 
ATOM     26  C   UNL     1     -12.333 -10.221  18.796  0.00  0.00    +0.037 A 
ATOM     28  C   UNL     1     -13.220  -9.846  17.787  0.00  0.00    +0.061 A 
ATOM     29  C   UNL     1     -12.696 -10.071  20.134  0.00  0.00    +0.023 A 
ATOM     31  C   UNL     1     -14.470  -9.322  18.116  0.00  0.00    +0.125 A 
ATOM     32  C   UNL     1     -13.946  -9.547  20.463  0.00  0.00    +0.005 A 
ATOM     35  C   UNL     1     -14.833  -9.171  19.454  0.00  0.00    +0.038 A 
ENDBRANCH   8  26
ENDBRANCH  16   6
BRANCH  12   2
ATOM      2  O   UNL     1      -5.787 -10.795  13.401  0.00  0.00    -0.391 OA
ATOM     37  H   UNL     1      -6.023  -9.879  13.625  0.00  0.00    +0.210 HD
ENDBRANCH  12   2
BRANCH  15  20
ATOM     20  C   UNL     1      -2.983 -11.565  12.974  0.00  0.00    +0.077 C 
ATOM     22  C   UNL     1      -1.779 -12.431  13.327  0.00  0.00    +0.017 C 
BRANCH  20  23
ATOM      3  O   UNL     1      -1.500  -9.975  11.909  0.00  0.00    -0.276 OA
ATOM      7  N   UNL     1      -3.672 -10.167  11.120  0.00  0.00    -0.308 N 
ATOM     23  C   UNL     1      -2.616 -10.488  11.958  0.00  0.00    +0.217 C 
ATOM     38  H   UNL     1      -4.571 -10.621  11.250  0.00  0.00    +0.149 HD
BRANCH   7  25
ATOM     25  C   UNL     1      -3.567  -9.172  10.077  0.00  0.00    +0.178 C 
BRANCH  25  27
ATOM      5  O   UNL     1      -4.832  -9.765   8.088  0.00  0.00    -0.466 OA
ATOM     27  C   UNL     1      -4.824  -9.078   9.261  0.00  0.00    +0.122 A 
ATOM     30  C   UNL     1      -6.021  -8.426   9.448  0.00  0.00    +0.046 A 
ATOM     33  C   UNL     1      -6.814  -8.730   8.316  0.00  0.00    +0.041 A 
ATOM     34  C   UNL     1      -6.047  -9.547   7.519  0.00  0.00    +0.195 A 
ENDBRANCH  25  27
ENDBRANCH   7  25
ENDBRANCH  20  23
ENDBRANCH  15  20
TORSDOF 7
ENDMDL
