REMARK  Name = 28963221
REMARK  3 active torsions:
REMARK  status: ('A' for Active; 'I' for Inactive)
REMARK    1  A    between atoms: N_8  and  C_11
REMARK    2  A    between atoms: C_19  and  C_24
REMARK    3  A    between atoms: C_22  and  C_25
REMARK                            x       y       z     vdW  Elec       q    Type
REMARK                         _______ _______ _______ _____ _____    ______ ____
ROOT
ATOM      4  O   UNL     1       1.836   2.807   0.825  0.00  0.00    -0.273 OA
ATOM      5  O   UNL     1      -1.093   0.002  -2.453  0.00  0.00    -0.270 OA
ATOM      7  N   UNL     1       0.627   0.336  -0.930  0.00  0.00    -0.286 N 
ATOM      9  N   UNL     1      -0.431   2.528   0.752  0.00  0.00    -0.283 N 
ATOM     10  C   UNL     1       1.018   0.567   0.455  0.00  0.00    +0.164 C 
ATOM     11  C   UNL     1       3.463   0.216  -0.246  0.00  0.00    +0.077 C 
ATOM     12  C   UNL     1       2.398   0.014   0.831  0.00  0.00    +0.054 C 
ATOM     13  C   UNL     1       2.945  -0.321  -1.576  0.00  0.00    +0.041 C 
ATOM     14  C   UNL     1       1.659   0.388  -1.969  0.00  0.00    +0.111 C 
ATOM     15  C   UNL     1       0.868   2.062   0.669  0.00  0.00    +0.238 C 
ATOM     16  C   UNL     1      -0.713   0.295  -1.319  0.00  0.00    +0.249 C 
ATOM     17  C   UNL     1      -1.753   0.698  -0.335  0.00  0.00    +0.059 A 
ATOM     18  C   UNL     1      -1.625   1.805   0.524  0.00  0.00    +0.046 A 
ATOM     20  C   UNL     1      -2.991   0.041  -0.441  0.00  0.00    +0.023 A 
ATOM     21  C   UNL     1      -2.761   2.269   1.207  0.00  0.00    +0.024 A 
ATOM     22  C   UNL     1      -4.096   0.485   0.285  0.00  0.00    -0.014 A 
ATOM     23  C   UNL     1      -3.984   1.607   1.098  0.00  0.00    +0.010 A 
ATOM     35  H   UNL     1      -0.541   3.472   1.116  0.00  0.00    +0.155 HD
ENDROOT
BRANCH  22  25
ATOM      2  F   UNL     1      -4.402  -2.212   1.009  0.00  0.00    -0.205 F 
ATOM      3  F   UNL     1      -8.985  -2.159  -0.159  0.00  0.00    -0.205 F 
ATOM     25  C   UNL     1      -5.362  -0.204   0.171  0.00  0.00    +0.018 A 
ATOM     27  C   UNL     1      -5.468  -1.544   0.543  0.00  0.00    +0.134 A 
ATOM     28  C   UNL     1      -6.481   0.476  -0.312  0.00  0.00    +0.014 A 
ATOM     31  C   UNL     1      -6.692  -2.205   0.431  0.00  0.00    +0.077 A 
ATOM     32  C   UNL     1      -7.704  -0.184  -0.423  0.00  0.00    +0.039 A 
ATOM     33  C   UNL     1      -7.810  -1.525  -0.052  0.00  0.00    +0.126 A 
ENDBRANCH  22  25
BRANCH  11   8
ATOM      6  O   UNL     1       6.120   1.039  -0.958  0.00  0.00    -0.270 OA
ATOM      8  N   UNL     1       4.696  -0.437   0.125  0.00  0.00    -0.308 N 
ATOM     19  C   UNL     1       5.938   0.039  -0.269  0.00  0.00    +0.251 C 
ATOM     34  H   UNL     1       4.625  -1.303   0.647  0.00  0.00    +0.149 HD
BRANCH  19  24
ATOM      1  S   UNL     1       8.682  -0.248  -0.268  0.00  0.00    -0.092 S 
ATOM     24  C   UNL     1       7.109  -0.761   0.173  0.00  0.00    +0.074 A 
ATOM     26  C   UNL     1       7.133  -1.915   0.924  0.00  0.00    +0.021 A 
ATOM     29  C   UNL     1       8.460  -2.385   1.141  0.00  0.00    +0.008 A 
ATOM     30  C   UNL     1       9.400  -1.572   0.547  0.00  0.00    +0.046 A 
ENDBRANCH  19  24
ENDBRANCH  11   8
TORSDOF 3
