MODEL 1
REMARK VINA RESULT:      -6.9      0.000      0.000
REMARK  Name = 11941400
REMARK  7 active torsions:
REMARK  status: ('A' for Active; 'I' for Inactive)
REMARK    1  A    between atoms: S_1  and  C_21
REMARK    2  A    between atoms: S_1  and  C_28
REMARK    3  A    between atoms: O_5  and  C_29
REMARK    4  A    between atoms: O_5  and  C_30
REMARK    5  A    between atoms: N_7  and  C_9
REMARK    6  A    between atoms: C_17  and  C_21
REMARK    7  A    between atoms: C_20  and  C_23
REMARK                            x       y       z     vdW  Elec       q    Type
REMARK                         _______ _______ _______ _____ _____    ______ ____
ROOT
ATOM      2  O   UNL     1      12.022   9.389  18.466  0.00  0.00    -0.273 OA
ATOM      3  O   UNL     1      16.739  11.016  20.158  0.00  0.00    -0.270 OA
ATOM      6  N   UNL     1      14.460  10.716  20.241  0.00  0.00    -0.284 N 
ATOM      8  N   UNL     1      13.951   8.218  18.772  0.00  0.00    -0.283 N 
ATOM      9  C   UNL     1      12.183  10.873  20.857  0.00  0.00    +0.104 C 
ATOM     10  C   UNL     1      13.289   9.887  20.457  0.00  0.00    +0.183 C 
ATOM     11  C   UNL     1      12.616  12.183  20.197  0.00  0.00    +0.043 C 
ATOM     12  C   UNL     1      14.134  12.134  20.281  0.00  0.00    +0.111 C 
ATOM     13  C   UNL     1      13.037   9.186  19.135  0.00  0.00    +0.240 C 
ATOM     14  C   UNL     1      15.763  10.266  20.177  0.00  0.00    +0.249 C 
ATOM     15  C   UNL     1      15.994   8.801  20.102  0.00  0.00    +0.059 A 
ATOM     16  C   UNL     1      15.189   7.908  19.375  0.00  0.00    +0.046 A 
ATOM     18  C   UNL     1      17.198   8.342  20.670  0.00  0.00    +0.023 A 
ATOM     19  C   UNL     1      15.643   6.592  19.178  0.00  0.00    +0.024 A 
ATOM     20  C   UNL     1      17.609   7.021  20.504  0.00  0.00    -0.017 A 
ATOM     22  C   UNL     1      16.837   6.148  19.747  0.00  0.00    +0.010 A 
ATOM     32  H   UNL     1      13.654   7.597  18.023  0.00  0.00    +0.155 HD
ENDROOT
BRANCH  20  23
ATOM     23  C   UNL     1      18.847   6.565  21.098  0.00  0.00    -0.018 A 
ATOM     24  C   UNL     1      19.604   5.580  20.464  0.00  0.00    +0.012 A 
ATOM     25  C   UNL     1      19.282   7.111  22.306  0.00  0.00    +0.012 A 
ATOM     26  C   UNL     1      20.796   5.141  21.038  0.00  0.00    +0.046 A 
ATOM     27  C   UNL     1      20.475   6.671  22.879  0.00  0.00    +0.046 A 
ATOM     29  C   UNL     1      21.232   5.686  22.245  0.00  0.00    +0.120 A 
BRANCH  29   5
ATOM      5  O   UNL     1      22.396   5.257  22.806  0.00  0.00    -0.495 OA
ATOM     30  C   UNL     1      22.679   3.861  22.724  0.00  0.00    +0.277 C 
ENDBRANCH  29   5
ENDBRANCH  20  23
BRANCH   9   7
ATOM      4  O   UNL     1      10.310   9.582  22.649  0.00  0.00    -0.275 OA
ATOM      7  N   UNL     1      12.110  11.011  22.293  0.00  0.00    -0.309 N 
ATOM     17  C   UNL     1      11.173  10.349  23.072  0.00  0.00    +0.223 C 
ATOM     31  H   UNL     1      12.739  11.673  22.737  0.00  0.00    +0.149 HD
BRANCH  17  21
ATOM     21  C   UNL     1      11.294  10.676  24.542  0.00  0.00    +0.164 C 
BRANCH  21   1
ATOM      1  S   UNL     1      12.032  12.319  24.719  0.00  0.00    -0.155 S 
ATOM     28  C   UNL     1      10.544  13.233  25.185  0.00  0.00    +0.085 C 
ENDBRANCH  21   1
ENDBRANCH  17  21
ENDBRANCH   9   7
TORSDOF 5
ENDMDL
MODEL 2
REMARK VINA RESULT:      -6.7     28.496     31.077
REMARK  Name = 11941400
REMARK  7 active torsions:
REMARK  status: ('A' for Active; 'I' for Inactive)
REMARK    1  A    between atoms: S_1  and  C_21
REMARK    2  A    between atoms: S_1  and  C_28
REMARK    3  A    between atoms: O_5  and  C_29
REMARK    4  A    between atoms: O_5  and  C_30
REMARK    5  A    between atoms: N_7  and  C_9
REMARK    6  A    between atoms: C_17  and  C_21
REMARK    7  A    between atoms: C_20  and  C_23
REMARK                            x       y       z     vdW  Elec       q    Type
REMARK                         _______ _______ _______ _____ _____    ______ ____
ROOT
ATOM      2  O   UNL     1      -0.729 -11.105  15.257  0.00  0.00    -0.273 OA
ATOM      3  O   UNL     1      -5.797  -9.748  14.779  0.00  0.00    -0.270 OA
ATOM      6  N   UNL     1      -3.859 -10.869  14.254  0.00  0.00    -0.284 N 
ATOM      8  N   UNL     1      -2.405 -11.139  16.798  0.00  0.00    -0.283 N 
ATOM      9  C   UNL     1      -2.241 -12.182  13.136  0.00  0.00    +0.104 C 
ATOM     10  C   UNL     1      -2.876 -11.906  14.506  0.00  0.00    +0.183 C 
ATOM     11  C   UNL     1      -2.420 -10.860  12.387  0.00  0.00    +0.043 C 
ATOM     12  C   UNL     1      -3.755 -10.343  12.901  0.00  0.00    +0.111 C 
ATOM     13  C   UNL     1      -1.913 -11.318  15.521  0.00  0.00    +0.240 C 
ATOM     14  C   UNL     1      -4.890 -10.516  15.099  0.00  0.00    +0.249 C 
ATOM     15  C   UNL     1      -4.891 -11.076  16.475  0.00  0.00    +0.059 A 
ATOM     16  C   UNL     1      -3.736 -11.264  17.254  0.00  0.00    +0.046 A 
ATOM     18  C   UNL     1      -6.157 -11.258  17.061  0.00  0.00    +0.023 A 
ATOM     19  C   UNL     1      -3.880 -11.567  18.619  0.00  0.00    +0.024 A 
ATOM     20  C   UNL     1      -6.280 -11.605  18.405  0.00  0.00    -0.017 A 
ATOM     22  C   UNL     1      -5.141 -11.747  19.188  0.00  0.00    +0.010 A 
ATOM     32  H   UNL     1      -1.704 -10.976  17.517  0.00  0.00    +0.155 HD
ENDROOT
BRANCH  20  23
ATOM     23  C   UNL     1      -7.590 -11.794  18.990  0.00  0.00    -0.018 A 
ATOM     24  C   UNL     1      -8.523 -10.757  18.959  0.00  0.00    +0.012 A 
ATOM     25  C   UNL     1      -7.918 -13.011  19.586  0.00  0.00    +0.012 A 
ATOM     26  C   UNL     1      -9.785 -10.938  19.524  0.00  0.00    +0.046 A 
ATOM     27  C   UNL     1      -9.181 -13.192  20.150  0.00  0.00    +0.046 A 
ATOM     29  C   UNL     1     -10.114 -12.156  20.119  0.00  0.00    +0.120 A 
BRANCH  29   5
ATOM      5  O   UNL     1     -11.346 -12.333  20.671  0.00  0.00    -0.495 OA
ATOM     30  C   UNL     1     -11.568 -13.550  21.382  0.00  0.00    +0.277 C 
ENDBRANCH  29   5
ENDBRANCH  20  23
BRANCH   9   7
ATOM      4  O   UNL     1      -1.433 -14.959  13.014  0.00  0.00    -0.275 OA
ATOM      7  N   UNL     1      -2.922 -13.262  12.460  0.00  0.00    -0.309 N 
ATOM     17  C   UNL     1      -2.456 -14.567  12.456  0.00  0.00    +0.223 C 
ATOM     31  H   UNL     1      -3.746 -13.031  11.914  0.00  0.00    +0.149 HD
BRANCH  17  21
ATOM     21  C   UNL     1      -3.337 -15.504  11.664  0.00  0.00    +0.164 C 
BRANCH  21   1
ATOM      1  S   UNL     1      -3.719 -16.952  12.680  0.00  0.00    -0.155 S 
ATOM     28  C   UNL     1      -4.694 -16.131  13.962  0.00  0.00    +0.085 C 
ENDBRANCH  21   1
ENDBRANCH  17  21
ENDBRANCH   9   7
TORSDOF 5
ENDMDL
MODEL 3
REMARK VINA RESULT:      -6.5     27.925     30.262
REMARK  Name = 11941400
REMARK  7 active torsions:
REMARK  status: ('A' for Active; 'I' for Inactive)
REMARK    1  A    between atoms: S_1  and  C_21
REMARK    2  A    between atoms: S_1  and  C_28
REMARK    3  A    between atoms: O_5  and  C_29
REMARK    4  A    between atoms: O_5  and  C_30
REMARK    5  A    between atoms: N_7  and  C_9
REMARK    6  A    between atoms: C_17  and  C_21
REMARK    7  A    between atoms: C_20  and  C_23
REMARK                            x       y       z     vdW  Elec       q    Type
REMARK                         _______ _______ _______ _____ _____    ______ ____
ROOT
ATOM      2  O   UNL     1      -1.927 -10.746  16.702  0.00  0.00    -0.273 OA
ATOM      3  O   UNL     1      -4.620 -13.751  13.314  0.00  0.00    -0.270 OA
ATOM      6  N   UNL     1      -4.324 -12.371  15.130  0.00  0.00    -0.284 N 
ATOM      8  N   UNL     1      -2.047 -10.644  14.430  0.00  0.00    -0.283 N 
ATOM      9  C   UNL     1      -4.680 -11.169  17.135  0.00  0.00    +0.104 C 
ATOM     10  C   UNL     1      -4.105 -11.062  15.716  0.00  0.00    +0.183 C 
ATOM     11  C   UNL     1      -4.558 -12.660  17.457  0.00  0.00    +0.043 C 
ATOM     12  C   UNL     1      -4.801 -13.331  16.114  0.00  0.00    +0.111 C 
ATOM     13  C   UNL     1      -2.604 -10.844  15.677  0.00  0.00    +0.240 C 
ATOM     14  C   UNL     1      -4.268 -12.669  13.785  0.00  0.00    +0.249 C 
ATOM     15  C   UNL     1      -3.730 -11.637  12.860  0.00  0.00    +0.059 A 
ATOM     16  C   UNL     1      -2.654 -10.787  13.163  0.00  0.00    +0.046 A 
ATOM     18  C   UNL     1      -4.250 -11.658  11.552  0.00  0.00    +0.023 A 
ATOM     19  C   UNL     1      -2.079 -10.027  12.129  0.00  0.00    +0.024 A 
ATOM     20  C   UNL     1      -3.697 -10.861  10.551  0.00  0.00    -0.017 A 
ATOM     22  C   UNL     1      -2.602 -10.054  10.837  0.00  0.00    +0.010 A 
ATOM     32  H   UNL     1      -1.102 -10.267  14.429  0.00  0.00    +0.155 HD
ENDROOT
BRANCH  20  23
ATOM     23  C   UNL     1      -4.246 -10.892   9.213  0.00  0.00    -0.018 A 
ATOM     24  C   UNL     1      -4.817  -9.743   8.666  0.00  0.00    +0.012 A 
ATOM     25  C   UNL     1      -4.205 -12.072   8.471  0.00  0.00    +0.012 A 
ATOM     26  C   UNL     1      -5.347  -9.773   7.377  0.00  0.00    +0.046 A 
ATOM     27  C   UNL     1      -4.735 -12.103   7.181  0.00  0.00    +0.046 A 
ATOM     29  C   UNL     1      -5.306 -10.953   6.634  0.00  0.00    +0.120 A 
BRANCH  29   5
ATOM      5  O   UNL     1      -5.824 -10.984   5.376  0.00  0.00    -0.495 OA
ATOM     30  C   UNL     1      -5.267 -11.934   4.468  0.00  0.00    +0.277 C 
ENDBRANCH  29   5
ENDBRANCH  20  23
BRANCH   9   7
ATOM      4  O   UNL     1      -6.231 -10.430  19.465  0.00  0.00    -0.275 OA
ATOM      7  N   UNL     1      -6.058 -10.738  17.167  0.00  0.00    -0.309 N 
ATOM     17  C   UNL     1      -6.721 -10.403  18.338  0.00  0.00    +0.223 C 
ATOM     31  H   UNL     1      -6.575 -10.743  16.293  0.00  0.00    +0.149 HD
BRANCH  17  21
ATOM     21  C   UNL     1      -8.159 -10.003  18.106  0.00  0.00    +0.164 C 
BRANCH  21   1
ATOM      1  S   UNL     1      -8.297  -9.230  16.475  0.00  0.00    -0.155 S 
ATOM     28  C   UNL     1      -9.653  -8.090  16.833  0.00  0.00    +0.085 C 
ENDBRANCH  21   1
ENDBRANCH  17  21
ENDBRANCH   9   7
TORSDOF 5
ENDMDL
MODEL 4
REMARK VINA RESULT:      -6.5     27.973     30.558
REMARK  Name = 11941400
REMARK  7 active torsions:
REMARK  status: ('A' for Active; 'I' for Inactive)
REMARK    1  A    between atoms: S_1  and  C_21
REMARK    2  A    between atoms: S_1  and  C_28
REMARK    3  A    between atoms: O_5  and  C_29
REMARK    4  A    between atoms: O_5  and  C_30
REMARK    5  A    between atoms: N_7  and  C_9
REMARK    6  A    between atoms: C_17  and  C_21
REMARK    7  A    between atoms: C_20  and  C_23
REMARK                            x       y       z     vdW  Elec       q    Type
REMARK                         _______ _______ _______ _____ _____    ______ ____
ROOT
ATOM      2  O   UNL     1      -1.552 -10.836  14.926  0.00  0.00    -0.273 OA
ATOM      3  O   UNL     1      -5.344 -13.012  11.986  0.00  0.00    -0.270 OA
ATOM      6  N   UNL     1      -4.443 -11.980  13.833  0.00  0.00    -0.284 N 
ATOM      8  N   UNL     1      -2.219 -10.350  12.803  0.00  0.00    -0.283 N 
ATOM      9  C   UNL     1      -4.142 -11.100  16.007  0.00  0.00    +0.104 C 
ATOM     10  C   UNL     1      -3.928 -10.807  14.516  0.00  0.00    +0.183 C 
ATOM     11  C   UNL     1      -4.125 -12.629  16.076  0.00  0.00    +0.043 C 
ATOM     12  C   UNL     1      -4.773 -13.047  14.765  0.00  0.00    +0.111 C 
ATOM     13  C   UNL     1      -2.469 -10.708  14.113  0.00  0.00    +0.240 C 
ATOM     14  C   UNL     1      -4.758 -12.055  12.492  0.00  0.00    +0.249 C 
ATOM     15  C   UNL     1      -4.346 -10.932  11.611  0.00  0.00    +0.059 A 
ATOM     16  C   UNL     1      -3.134 -10.233  11.734  0.00  0.00    +0.046 A 
ATOM     18  C   UNL     1      -5.172 -10.694  10.497  0.00  0.00    +0.023 A 
ATOM     19  C   UNL     1      -2.746  -9.361  10.701  0.00  0.00    +0.024 A 
ATOM     20  C   UNL     1      -4.793  -9.790   9.506  0.00  0.00    -0.017 A 
ATOM     22  C   UNL     1      -3.573  -9.132   9.602  0.00  0.00    +0.010 A 
ATOM     32  H   UNL     1      -1.266 -10.056  12.606  0.00  0.00    +0.155 HD
ENDROOT
BRANCH  20  23
ATOM     23  C   UNL     1      -5.657  -9.555   8.369  0.00  0.00    -0.018 A 
ATOM     24  C   UNL     1      -6.772  -8.727   8.499  0.00  0.00    +0.012 A 
ATOM     25  C   UNL     1      -5.374 -10.159   7.144  0.00  0.00    +0.012 A 
ATOM     26  C   UNL     1      -7.604  -8.502   7.404  0.00  0.00    +0.046 A 
ATOM     27  C   UNL     1      -6.207  -9.933   6.048  0.00  0.00    +0.046 A 
ATOM     29  C   UNL     1      -7.322  -9.105   6.177  0.00  0.00    +0.120 A 
BRANCH  29   5
ATOM      5  O   UNL     1      -8.135  -8.886   5.108  0.00  0.00    -0.495 OA
ATOM     30  C   UNL     1      -8.729  -7.593   4.998  0.00  0.00    +0.277 C 
ENDBRANCH  29   5
ENDBRANCH  20  23
BRANCH   9   7
ATOM      4  O   UNL     1      -5.027 -10.785  18.745  0.00  0.00    -0.275 OA
ATOM      7  N   UNL     1      -5.407 -10.571  16.461  0.00  0.00    -0.309 N 
ATOM     17  C   UNL     1      -5.744 -10.458  17.801  0.00  0.00    +0.223 C 
ATOM     31  H   UNL     1      -6.098 -10.331  15.757  0.00  0.00    +0.149 HD
BRANCH  17  21
ATOM     21  C   UNL     1      -7.129  -9.892  18.013  0.00  0.00    +0.164 C 
BRANCH  21   1
ATOM      1  S   UNL     1      -7.902  -9.613  16.401  0.00  0.00    -0.155 S 
ATOM     28  C   UNL     1      -9.239  -8.518  16.930  0.00  0.00    +0.085 C 
ENDBRANCH  21   1
ENDBRANCH  17  21
ENDBRANCH   9   7
TORSDOF 5
ENDMDL
MODEL 5
REMARK VINA RESULT:      -6.5      3.335      5.068
REMARK  Name = 11941400
REMARK  7 active torsions:
REMARK  status: ('A' for Active; 'I' for Inactive)
REMARK    1  A    between atoms: S_1  and  C_21
REMARK    2  A    between atoms: S_1  and  C_28
REMARK    3  A    between atoms: O_5  and  C_29
REMARK    4  A    between atoms: O_5  and  C_30
REMARK    5  A    between atoms: N_7  and  C_9
REMARK    6  A    between atoms: C_17  and  C_21
REMARK    7  A    between atoms: C_20  and  C_23
REMARK                            x       y       z     vdW  Elec       q    Type
REMARK                         _______ _______ _______ _____ _____    ______ ____
ROOT
ATOM      2  O   UNL     1      13.672  10.640  20.922  0.00  0.00    -0.273 OA
ATOM      3  O   UNL     1      15.464   5.829  19.742  0.00  0.00    -0.270 OA
ATOM      6  N   UNL     1      14.582   7.910  19.318  0.00  0.00    -0.284 N 
ATOM      8  N   UNL     1      15.662   9.654  21.427  0.00  0.00    -0.283 N 
ATOM      9  C   UNL     1      13.563   9.755  18.248  0.00  0.00    +0.104 C 
ATOM     10  C   UNL     1      14.716   9.347  19.175  0.00  0.00    +0.183 C 
ATOM     11  C   UNL     1      12.511   8.669  18.488  0.00  0.00    +0.043 C 
ATOM     12  C   UNL     1      13.345   7.420  18.728  0.00  0.00    +0.111 C 
ATOM     13  C   UNL     1      14.603   9.910  20.579  0.00  0.00    +0.240 C 
ATOM     14  C   UNL     1      15.556   7.055  19.789  0.00  0.00    +0.249 C 
ATOM     15  C   UNL     1      16.769   7.649  20.410  0.00  0.00    +0.059 A 
ATOM     16  C   UNL     1      16.762   8.793  21.226  0.00  0.00    +0.046 A 
ATOM     18  C   UNL     1      17.951   6.895  20.285  0.00  0.00    +0.023 A 
ATOM     19  C   UNL     1      17.922   9.116  21.950  0.00  0.00    +0.024 A 
ATOM     20  C   UNL     1      19.106   7.259  20.974  0.00  0.00    -0.017 A 
ATOM     22  C   UNL     1      19.088   8.363  21.818  0.00  0.00    +0.010 A 
ATOM     32  H   UNL     1      15.692  10.223  22.270  0.00  0.00    +0.155 HD
ENDROOT
BRANCH  20  23
ATOM     23  C   UNL     1      20.314   6.475  20.831  0.00  0.00    -0.018 A 
ATOM     24  C   UNL     1      20.255   5.083  20.905  0.00  0.00    +0.012 A 
ATOM     25  C   UNL     1      21.537   7.112  20.622  0.00  0.00    +0.012 A 
ATOM     26  C   UNL     1      21.419   4.328  20.768  0.00  0.00    +0.046 A 
ATOM     27  C   UNL     1      22.702   6.356  20.485  0.00  0.00    +0.046 A 
ATOM     29  C   UNL     1      22.643   4.964  20.558  0.00  0.00    +0.120 A 
BRANCH  29   5
ATOM      5  O   UNL     1      23.780   4.228  20.425  0.00  0.00    -0.495 OA
ATOM     30  C   UNL     1      23.721   2.864  20.838  0.00  0.00    +0.277 C 
ENDBRANCH  29   5
ENDBRANCH  20  23
BRANCH   9   7
ATOM      4  O   UNL     1      15.062  11.836  16.905  0.00  0.00    -0.275 OA
ATOM      7  N   UNL     1      13.990   9.774  16.869  0.00  0.00    -0.309 N 
ATOM     17  C   UNL     1      14.708  10.820  16.311  0.00  0.00    +0.223 C 
ATOM     31  H   UNL     1      13.692   9.007  16.272  0.00  0.00    +0.149 HD
BRANCH  17  21
ATOM     21  C   UNL     1      15.017  10.607  14.848  0.00  0.00    +0.164 C 
BRANCH  21   1
ATOM      1  S   UNL     1      16.340  11.739  14.357  0.00  0.00    -0.155 S 
ATOM     28  C   UNL     1      15.357  12.887  13.364  0.00  0.00    +0.085 C 
ENDBRANCH  21   1
ENDBRANCH  17  21
ENDBRANCH   9   7
TORSDOF 5
ENDMDL
MODEL 6
REMARK VINA RESULT:      -6.4     27.162     30.977
REMARK  Name = 11941400
REMARK  7 active torsions:
REMARK  status: ('A' for Active; 'I' for Inactive)
REMARK    1  A    between atoms: S_1  and  C_21
REMARK    2  A    between atoms: S_1  and  C_28
REMARK    3  A    between atoms: O_5  and  C_29
REMARK    4  A    between atoms: O_5  and  C_30
REMARK    5  A    between atoms: N_7  and  C_9
REMARK    6  A    between atoms: C_17  and  C_21
REMARK    7  A    between atoms: C_20  and  C_23
REMARK                            x       y       z     vdW  Elec       q    Type
REMARK                         _______ _______ _______ _____ _____    ______ ____
ROOT
ATOM      2  O   UNL     1     -16.208   2.855  23.764  0.00  0.00    -0.273 OA
ATOM      3  O   UNL     1     -16.684   6.437  19.931  0.00  0.00    -0.270 OA
ATOM      6  N   UNL     1     -17.070   5.497  21.994  0.00  0.00    -0.284 N 
ATOM      8  N   UNL     1     -14.605   4.029  22.651  0.00  0.00    -0.283 N 
ATOM      9  C   UNL     1     -17.978   5.020  24.124  0.00  0.00    +0.104 C 
ATOM     10  C   UNL     1     -16.662   5.187  23.351  0.00  0.00    +0.183 C 
ATOM     11  C   UNL     1     -18.972   4.587  23.045  0.00  0.00    +0.043 C 
ATOM     12  C   UNL     1     -18.505   5.345  21.812  0.00  0.00    +0.111 C 
ATOM     13  C   UNL     1     -15.843   3.914  23.251  0.00  0.00    +0.240 C 
ATOM     14  C   UNL     1     -16.262   6.038  21.015  0.00  0.00    +0.249 C 
ATOM     15  C   UNL     1     -14.801   6.118  21.279  0.00  0.00    +0.059 A 
ATOM     16  C   UNL     1     -14.064   5.133  21.957  0.00  0.00    +0.046 A 
ATOM     18  C   UNL     1     -14.124   7.179  20.649  0.00  0.00    +0.023 A 
ATOM     19  C   UNL     1     -12.660   5.199  21.931  0.00  0.00    +0.024 A 
ATOM     20  C   UNL     1     -12.732   7.253  20.675  0.00  0.00    -0.017 A 
ATOM     22  C   UNL     1     -11.999   6.256  21.305  0.00  0.00    +0.010 A 
ATOM     32  H   UNL     1     -13.975   3.245  22.798  0.00  0.00    +0.155 HD
ENDROOT
BRANCH  20  23
ATOM     23  C   UNL     1     -12.052   8.353  20.026  0.00  0.00    -0.018 A 
ATOM     24  C   UNL     1     -11.216   8.111  18.935  0.00  0.00    +0.012 A 
ATOM     25  C   UNL     1     -12.231   9.655  20.492  0.00  0.00    +0.012 A 
ATOM     26  C   UNL     1     -10.560   9.171  18.311  0.00  0.00    +0.046 A 
ATOM     27  C   UNL     1     -11.575  10.716  19.867  0.00  0.00    +0.046 A 
ATOM     29  C   UNL     1     -10.740  10.474  18.776  0.00  0.00    +0.120 A 
BRANCH  29   5
ATOM      5  O   UNL     1     -10.099  11.509  18.168  0.00  0.00    -0.495 OA
ATOM     30  C   UNL     1      -9.799  11.361  16.781  0.00  0.00    +0.277 C 
ENDBRANCH  29   5
ENDBRANCH  20  23
BRANCH   9   7
ATOM      4  O   UNL     1     -17.507   5.864  26.853  0.00  0.00    -0.275 OA
ATOM      7  N   UNL     1     -18.380   6.265  24.736  0.00  0.00    -0.309 N 
ATOM     17  C   UNL     1     -18.109   6.583  26.057  0.00  0.00    +0.223 C 
ATOM     31  H   UNL     1     -18.940   6.904  24.180  0.00  0.00    +0.149 HD
BRANCH  17  21
ATOM     21  C   UNL     1     -18.650   7.934  26.460  0.00  0.00    +0.164 C 
BRANCH  21   1
ATOM      1  S   UNL     1     -18.443   9.085  25.079  0.00  0.00    -0.155 S 
ATOM     28  C   UNL     1     -16.820   9.746  25.521  0.00  0.00    +0.085 C 
ENDBRANCH  21   1
ENDBRANCH  17  21
ENDBRANCH   9   7
TORSDOF 5
ENDMDL
MODEL 7
REMARK VINA RESULT:      -6.4     27.448     30.449
REMARK  Name = 11941400
REMARK  7 active torsions:
REMARK  status: ('A' for Active; 'I' for Inactive)
REMARK    1  A    between atoms: S_1  and  C_21
REMARK    2  A    between atoms: S_1  and  C_28
REMARK    3  A    between atoms: O_5  and  C_29
REMARK    4  A    between atoms: O_5  and  C_30
REMARK    5  A    between atoms: N_7  and  C_9
REMARK    6  A    between atoms: C_17  and  C_21
REMARK    7  A    between atoms: C_20  and  C_23
REMARK                            x       y       z     vdW  Elec       q    Type
REMARK                         _______ _______ _______ _____ _____    ______ ____
ROOT
ATOM      2  O   UNL     1     -10.150   9.326  17.267  0.00  0.00    -0.273 OA
ATOM      3  O   UNL     1     -14.954   9.571  19.416  0.00  0.00    -0.270 OA
ATOM      6  N   UNL     1     -13.412   9.293  17.733  0.00  0.00    -0.284 N 
ATOM      8  N   UNL     1     -11.016   8.200  19.047  0.00  0.00    -0.283 N 
ATOM      9  C   UNL     1     -12.410   9.054  15.604  0.00  0.00    +0.104 C 
ATOM     10  C   UNL     1     -12.408   8.509  17.039  0.00  0.00    +0.183 C 
ATOM     11  C   UNL     1     -12.898  10.495  15.771  0.00  0.00    +0.043 C 
ATOM     12  C   UNL     1     -13.894  10.398  16.917  0.00  0.00    +0.111 C 
ATOM     13  C   UNL     1     -11.110   8.754  17.786  0.00  0.00    +0.240 C 
ATOM     14  C   UNL     1     -13.992   8.968  18.941  0.00  0.00    +0.249 C 
ATOM     15  C   UNL     1     -13.405   7.847  19.720  0.00  0.00    +0.059 A 
ATOM     16  C   UNL     1     -12.029   7.581  19.813  0.00  0.00    +0.046 A 
ATOM     18  C   UNL     1     -14.304   7.133  20.534  0.00  0.00    +0.023 A 
ATOM     19  C   UNL     1     -11.580   6.653  20.768  0.00  0.00    +0.024 A 
ATOM     20  C   UNL     1     -13.844   6.181  21.443  0.00  0.00    -0.017 A 
ATOM     22  C   UNL     1     -12.479   5.949  21.569  0.00  0.00    +0.010 A 
ATOM     32  H   UNL     1     -10.078   8.162  19.438  0.00  0.00    +0.155 HD
ENDROOT
BRANCH  20  23
ATOM     23  C   UNL     1     -14.782   5.453  22.269  0.00  0.00    -0.018 A 
ATOM     24  C   UNL     1     -14.360   4.889  23.473  0.00  0.00    +0.012 A 
ATOM     25  C   UNL     1     -16.108   5.312  21.859  0.00  0.00    +0.012 A 
ATOM     26  C   UNL     1     -15.265   4.187  24.269  0.00  0.00    +0.046 A 
ATOM     27  C   UNL     1     -17.013   4.609  22.655  0.00  0.00    +0.046 A 
ATOM     29  C   UNL     1     -16.591   4.047  23.860  0.00  0.00    +0.120 A 
BRANCH  29   5
ATOM      5  O   UNL     1     -17.474   3.360  24.635  0.00  0.00    -0.495 OA
ATOM     30  C   UNL     1     -17.138   2.012  24.963  0.00  0.00    +0.277 C 
ENDBRANCH  29   5
ENDBRANCH  20  23
BRANCH   9   7
ATOM      4  O   UNL     1     -11.703   7.407  13.331  0.00  0.00    -0.275 OA
ATOM      7  N   UNL     1     -13.305   8.294  14.764  0.00  0.00    -0.309 N 
ATOM     17  C   UNL     1     -12.873   7.530  13.691  0.00  0.00    +0.223 C 
ATOM     31  H   UNL     1     -14.302   8.378  14.938  0.00  0.00    +0.149 HD
BRANCH  17  21
ATOM     21  C   UNL     1     -14.005   6.846  12.961  0.00  0.00    +0.164 C 
BRANCH  21   1
ATOM      1  S   UNL     1     -15.577   7.499  13.575  0.00  0.00    -0.155 S 
ATOM     28  C   UNL     1     -16.266   5.963  14.235  0.00  0.00    +0.085 C 
ENDBRANCH  21   1
ENDBRANCH  17  21
ENDBRANCH   9   7
TORSDOF 5
ENDMDL
MODEL 8
REMARK VINA RESULT:      -6.4     29.098     31.217
REMARK  Name = 11941400
REMARK  7 active torsions:
REMARK  status: ('A' for Active; 'I' for Inactive)
REMARK    1  A    between atoms: S_1  and  C_21
REMARK    2  A    between atoms: S_1  and  C_28
REMARK    3  A    between atoms: O_5  and  C_29
REMARK    4  A    between atoms: O_5  and  C_30
REMARK    5  A    between atoms: N_7  and  C_9
REMARK    6  A    between atoms: C_17  and  C_21
REMARK    7  A    between atoms: C_20  and  C_23
REMARK                            x       y       z     vdW  Elec       q    Type
REMARK                         _______ _______ _______ _____ _____    ______ ____
ROOT
ATOM      2  O   UNL     1     -13.631  -7.307  16.364  0.00  0.00    -0.273 OA
ATOM      3  O   UNL     1     -10.553 -10.168  13.187  0.00  0.00    -0.270 OA
ATOM      6  N   UNL     1     -11.820  -8.356  13.819  0.00  0.00    -0.284 N 
ATOM      8  N   UNL     1     -11.583  -8.227  16.749  0.00  0.00    -0.283 N 
ATOM      9  C   UNL     1     -13.049  -6.336  13.782  0.00  0.00    +0.104 C 
ATOM     10  C   UNL     1     -12.014  -7.138  14.583  0.00  0.00    +0.183 C 
ATOM     11  C   UNL     1     -13.833  -7.416  13.032  0.00  0.00    +0.043 C 
ATOM     12  C   UNL     1     -12.779  -8.469  12.730  0.00  0.00    +0.111 C 
ATOM     13  C   UNL     1     -12.505  -7.586  15.947  0.00  0.00    +0.240 C 
ATOM     14  C   UNL     1     -10.768  -9.236  13.962  0.00  0.00    +0.249 C 
ATOM     15  C   UNL     1      -9.863  -9.063  15.128  0.00  0.00    +0.059 A 
ATOM     16  C   UNL     1     -10.290  -8.682  16.411  0.00  0.00    +0.046 A 
ATOM     18  C   UNL     1      -8.532  -9.475  14.935  0.00  0.00    +0.023 A 
ATOM     19  C   UNL     1      -9.388  -8.788  17.485  0.00  0.00    +0.024 A 
ATOM     20  C   UNL     1      -7.639  -9.529  16.004  0.00  0.00    -0.017 A 
ATOM     22  C   UNL     1      -8.071  -9.197  17.282  0.00  0.00    +0.010 A 
ATOM     32  H   UNL     1     -11.840  -8.308  17.730  0.00  0.00    +0.155 HD
ENDROOT
BRANCH  20  23
ATOM     23  C   UNL     1      -6.272  -9.951  15.787  0.00  0.00    -0.018 A 
ATOM     24  C   UNL     1      -5.824 -10.229  14.495  0.00  0.00    +0.012 A 
ATOM     25  C   UNL     1      -5.403 -10.083  16.870  0.00  0.00    +0.012 A 
ATOM     26  C   UNL     1      -4.507 -10.637  14.286  0.00  0.00    +0.046 A 
ATOM     27  C   UNL     1      -4.086 -10.492  16.661  0.00  0.00    +0.046 A 
ATOM     29  C   UNL     1      -3.638 -10.768  15.369  0.00  0.00    +0.120 A 
BRANCH  29   5
ATOM      5  O   UNL     1      -2.353 -11.168  15.167  0.00  0.00    -0.495 OA
ATOM     30  C   UNL     1      -1.324 -10.356  15.732  0.00  0.00    +0.277 C 
ENDBRANCH  29   5
ENDBRANCH  20  23
BRANCH   9   7
ATOM      4  O   UNL     1     -13.735  -3.569  13.280  0.00  0.00    -0.275 OA
ATOM      7  N   UNL     1     -12.402  -5.428  12.865  0.00  0.00    -0.309 N 
ATOM     17  C   UNL     1     -12.803  -4.113  12.691  0.00  0.00    +0.223 C 
ATOM     31  H   UNL     1     -11.658  -5.798  12.280  0.00  0.00    +0.149 HD
BRANCH  17  21
ATOM     21  C   UNL     1     -11.977  -3.377  11.662  0.00  0.00    +0.164 C 
BRANCH  21   1
ATOM      1  S   UNL     1     -12.484  -3.915  10.010  0.00  0.00    -0.155 S 
ATOM     28  C   UNL     1     -10.860  -3.901   9.214  0.00  0.00    +0.085 C 
ENDBRANCH  21   1
ENDBRANCH  17  21
ENDBRANCH   9   7
TORSDOF 5
ENDMDL
MODEL 9
REMARK VINA RESULT:      -6.1     15.133     16.638
REMARK  Name = 11941400
REMARK  7 active torsions:
REMARK  status: ('A' for Active; 'I' for Inactive)
REMARK    1  A    between atoms: S_1  and  C_21
REMARK    2  A    between atoms: S_1  and  C_28
REMARK    3  A    between atoms: O_5  and  C_29
REMARK    4  A    between atoms: O_5  and  C_30
REMARK    5  A    between atoms: N_7  and  C_9
REMARK    6  A    between atoms: C_17  and  C_21
REMARK    7  A    between atoms: C_20  and  C_23
REMARK                            x       y       z     vdW  Elec       q    Type
REMARK                         _______ _______ _______ _____ _____    ______ ____
ROOT
ATOM      2  O   UNL     1      10.208   9.955   6.928  0.00  0.00    -0.273 OA
ATOM      3  O   UNL     1      13.836   6.193   7.589  0.00  0.00    -0.270 OA
ATOM      6  N   UNL     1      11.970   7.182   6.680  0.00  0.00    -0.284 N 
ATOM      8  N   UNL     1      12.479  10.077   6.817  0.00  0.00    -0.283 N 
ATOM      9  C   UNL     1       9.960   7.545   5.488  0.00  0.00    +0.104 C 
ATOM     10  C   UNL     1      11.337   8.147   5.801  0.00  0.00    +0.183 C 
ATOM     11  C   UNL     1       9.670   6.666   6.707  0.00  0.00    +0.043 C 
ATOM     12  C   UNL     1      11.043   6.139   7.094  0.00  0.00    +0.111 C 
ATOM     13  C   UNL     1      11.275   9.441   6.591  0.00  0.00    +0.240 C 
ATOM     14  C   UNL     1      13.316   7.123   6.972  0.00  0.00    +0.249 C 
ATOM     15  C   UNL     1      14.177   8.254   6.539  0.00  0.00    +0.059 A 
ATOM     16  C   UNL     1      13.785   9.603   6.566  0.00  0.00    +0.046 A 
ATOM     18  C   UNL     1      15.515   7.928   6.249  0.00  0.00    +0.023 A 
ATOM     19  C   UNL     1      14.760  10.596   6.367  0.00  0.00    +0.024 A 
ATOM     20  C   UNL     1      16.458   8.926   6.008  0.00  0.00    -0.017 A 
ATOM     22  C   UNL     1      16.083  10.262   6.080  0.00  0.00    +0.010 A 
ATOM     32  H   UNL     1      12.410  11.042   7.130  0.00  0.00    +0.155 HD
ENDROOT
BRANCH  20  23
ATOM     23  C   UNL     1      17.829   8.572   5.708  0.00  0.00    -0.018 A 
ATOM     24  C   UNL     1      18.817   8.725   6.680  0.00  0.00    +0.012 A 
ATOM     25  C   UNL     1      18.161   8.081   4.446  0.00  0.00    +0.012 A 
ATOM     26  C   UNL     1      20.138   8.386   6.390  0.00  0.00    +0.046 A 
ATOM     27  C   UNL     1      19.482   7.741   4.156  0.00  0.00    +0.046 A 
ATOM     29  C   UNL     1      20.471   7.893   5.128  0.00  0.00    +0.120 A 
BRANCH  29   5
ATOM      5  O   UNL     1      21.760   7.562   4.844  0.00  0.00    -0.495 OA
ATOM     30  C   UNL     1      21.968   6.444   3.983  0.00  0.00    +0.277 C 
ENDBRANCH  29   5
ENDBRANCH  20  23
BRANCH   9   7
ATOM      4  O   UNL     1       9.635   8.495   2.773  0.00  0.00    -0.275 OA
ATOM      7  N   UNL     1      10.003   6.760   4.276  0.00  0.00    -0.309 N 
ATOM     17  C   UNL     1       9.835   7.306   3.013  0.00  0.00    +0.223 C 
ATOM     31  H   UNL     1      10.099   5.753   4.369  0.00  0.00    +0.149 HD
BRANCH  17  21
ATOM     21  C   UNL     1       9.904   6.273   1.913  0.00  0.00    +0.164 C 
BRANCH  21   1
ATOM      1  S   UNL     1      11.602   5.658   1.791  0.00  0.00    -0.155 S 
ATOM     28  C   UNL     1      11.322   3.975   2.388  0.00  0.00    +0.085 C 
ENDBRANCH  21   1
ENDBRANCH  17  21
ENDBRANCH   9   7
TORSDOF 5
ENDMDL
MODEL 10
REMARK VINA RESULT:      -6.0     23.729     25.076
REMARK  Name = 11941400
REMARK  7 active torsions:
REMARK  status: ('A' for Active; 'I' for Inactive)
REMARK    1  A    between atoms: S_1  and  C_21
REMARK    2  A    between atoms: S_1  and  C_28
REMARK    3  A    between atoms: O_5  and  C_29
REMARK    4  A    between atoms: O_5  and  C_30
REMARK    5  A    between atoms: N_7  and  C_9
REMARK    6  A    between atoms: C_17  and  C_21
REMARK    7  A    between atoms: C_20  and  C_23
REMARK                            x       y       z     vdW  Elec       q    Type
REMARK                         _______ _______ _______ _____ _____    ______ ____
ROOT
ATOM      2  O   UNL     1       7.758  -6.159  34.267  0.00  0.00    -0.273 OA
ATOM      3  O   UNL     1       8.385 -11.387  34.430  0.00  0.00    -0.270 OA
ATOM      6  N   UNL     1       7.510  -9.351  35.045  0.00  0.00    -0.284 N 
ATOM      8  N   UNL     1       7.582  -7.707  32.606  0.00  0.00    -0.283 N 
ATOM      9  C   UNL     1       6.368  -7.645  36.218  0.00  0.00    +0.104 C 
ATOM     10  C   UNL     1       6.632  -8.219  34.819  0.00  0.00    +0.183 C 
ATOM     11  C   UNL     1       7.610  -8.056  37.012  0.00  0.00    +0.043 C 
ATOM     12  C   UNL     1       7.969  -9.413  36.425  0.00  0.00    +0.111 C 
ATOM     13  C   UNL     1       7.401  -7.282  33.906  0.00  0.00    +0.240 C 
ATOM     14  C   UNL     1       7.766 -10.363  34.143  0.00  0.00    +0.249 C 
ATOM     15  C   UNL     1       7.289 -10.193  32.746  0.00  0.00    +0.059 A 
ATOM     16  C   UNL     1       7.303  -8.974  32.048  0.00  0.00    +0.046 A 
ATOM     18  C   UNL     1       6.969 -11.379  32.061  0.00  0.00    +0.023 A 
ATOM     19  C   UNL     1       7.060  -8.983  30.663  0.00  0.00    +0.024 A 
ATOM     20  C   UNL     1       6.684 -11.362  30.696  0.00  0.00    -0.017 A 
ATOM     22  C   UNL     1       6.742 -10.164  29.994  0.00  0.00    +0.010 A 
ATOM     32  H   UNL     1       7.879  -6.989  31.950  0.00  0.00    +0.155 HD
ENDROOT
BRANCH  20  23
ATOM     23  C   UNL     1       6.352 -12.591  30.008  0.00  0.00    -0.018 A 
ATOM     24  C   UNL     1       5.154 -13.247  30.291  0.00  0.00    +0.012 A 
ATOM     25  C   UNL     1       7.232 -13.120  29.064  0.00  0.00    +0.012 A 
ATOM     26  C   UNL     1       4.836 -14.432  29.628  0.00  0.00    +0.046 A 
ATOM     27  C   UNL     1       6.913 -14.305  28.402  0.00  0.00    +0.046 A 
ATOM     29  C   UNL     1       5.715 -14.961  28.683  0.00  0.00    +0.120 A 
BRANCH  29   5
ATOM      5  O   UNL     1       5.405 -16.118  28.037  0.00  0.00    -0.495 OA
ATOM     30  C   UNL     1       4.238 -16.814  28.476  0.00  0.00    +0.277 C 
ENDBRANCH  29   5
ENDBRANCH  20  23
BRANCH   9   7
ATOM      4  O   UNL     1       4.686  -6.482  38.266  0.00  0.00    -0.275 OA
ATOM      7  N   UNL     1       5.170  -8.212  36.791  0.00  0.00    -0.309 N 
ATOM     17  C   UNL     1       4.426  -7.578  37.774  0.00  0.00    +0.223 C 
ATOM     31  H   UNL     1       4.903  -9.148  36.498  0.00  0.00    +0.149 HD
BRANCH  17  21
ATOM     21  C   UNL     1       3.230  -8.386  38.219  0.00  0.00    +0.164 C 
BRANCH  21   1
ATOM      1  S   UNL     1       3.213  -9.955  37.317  0.00  0.00    -0.155 S 
ATOM     28  C   UNL     1       1.654  -9.735  36.427  0.00  0.00    +0.085 C 
ENDBRANCH  21   1
ENDBRANCH  17  21
ENDBRANCH   9   7
TORSDOF 5
ENDMDL
