MODEL 1
REMARK VINA RESULT:      -6.5      0.000      0.000
REMARK  Name = 45783352
REMARK  11 active torsions:
REMARK  status: ('A' for Active; 'I' for Inactive)
REMARK    1  A    between atoms: O_2  and  C_19
REMARK    2  A    between atoms: O_2  and  C_27
REMARK    3  A    between atoms: O_3  and  C_25
REMARK    4  A    between atoms: O_3  and  C_28
REMARK    5  A    between atoms: O_4  and  C_29
REMARK    6  A    between atoms: O_4  and  C_30
REMARK    7  A    between atoms: N_5  and  C_13
REMARK    8  A    between atoms: C_9  and  C_14
REMARK    9  A    between atoms: C_13  and  C_15
REMARK   10  A    between atoms: C_18  and  C_21
REMARK   11  A    between atoms: C_28  and  C_29
REMARK                            x       y       z     vdW  Elec       q    Type
REMARK                         _______ _______ _______ _____ _____    ______ ____
ROOT
ATOM      1  O   UNL     1      -3.992 -11.244  17.969  0.00  0.00    -0.336 OA
ATOM      6  N   UNL     1      -5.381 -10.603  16.334  0.00  0.00    -0.190 NA
ATOM      7  N   UNL     1      -5.213 -10.949  18.589  0.00  0.00    -0.056 NA
ATOM     14  C   UNL     1      -4.178 -11.014  16.644  0.00  0.00    +0.245 A 
ATOM     18  C   UNL     1      -5.981 -10.579  17.559  0.00  0.00    +0.202 A 
ENDROOT
BRANCH  18  21
ATOM      8  N   UNL     1     -10.013  -9.396  18.036  0.00  0.00    -0.221 NA
ATOM     21  C   UNL     1      -7.348 -10.177  17.721  0.00  0.00    +0.029 A 
ATOM     23  C   UNL     1      -7.843  -9.085  17.018  0.00  0.00    +0.079 A 
ATOM     24  C   UNL     1      -8.185 -10.880  18.582  0.00  0.00    +0.031 A 
ATOM     25  C   UNL     1      -9.171  -8.738  17.208  0.00  0.00    +0.215 A 
ATOM     26  C   UNL     1      -9.497 -10.453  18.702  0.00  0.00    +0.115 A 
BRANCH  25   3
ATOM      3  O   UNL     1      -9.683  -7.664  16.528  0.00  0.00    -0.474 OA
BRANCH   3  28
ATOM     28  C   UNL     1     -11.051  -7.354  16.758  0.00  0.00    +0.258 C 
BRANCH  28  29
ATOM     29  C   UNL     1     -11.371  -6.020  16.111  0.00  0.00    +0.200 C 
BRANCH  29   4
ATOM      4  O   UNL     1     -12.729  -6.023  15.686  0.00  0.00    -0.380 OA
ATOM     30  C   UNL     1     -12.965  -7.025  14.706  0.00  0.00    +0.194 C 
ENDBRANCH  29   4
ENDBRANCH  28  29
ENDBRANCH   3  28
ENDBRANCH  25   3
ENDBRANCH  18  21
BRANCH  14   9
ATOM      5  N   UNL     1      -3.098 -10.562  14.448  0.00  0.00    -0.287 NA
ATOM      9  C   UNL     1      -2.987 -11.264  15.742  0.00  0.00    +0.146 C 
ATOM     10  C   UNL     1      -1.665 -10.760  16.350  0.00  0.00    +0.030 C 
ATOM     11  C   UNL     1      -1.076  -9.827  15.300  0.00  0.00    +0.017 C 
ATOM     12  C   UNL     1      -1.730 -10.283  14.012  0.00  0.00    +0.085 C 
BRANCH   5  13
ATOM     13  C   UNL     1      -3.849 -11.312  13.450  0.00  0.00    +0.120 C 
BRANCH  13  15
ATOM     15  C   UNL     1      -4.591 -10.403  12.508  0.00  0.00    -0.030 A 
ATOM     16  C   UNL     1      -4.099 -10.178  11.221  0.00  0.00    +0.050 A 
ATOM     17  C   UNL     1      -5.772  -9.783  12.920  0.00  0.00    +0.005 A 
ATOM     19  C   UNL     1      -4.786  -9.336  10.348  0.00  0.00    +0.120 A 
ATOM     20  C   UNL     1      -6.459  -8.940  12.047  0.00  0.00    +0.004 A 
ATOM     22  C   UNL     1      -5.966  -8.716  10.761  0.00  0.00    +0.045 A 
BRANCH  19   2
ATOM      2  O   UNL     1      -4.304  -9.117   9.094  0.00  0.00    -0.495 OA
ATOM     27  C   UNL     1      -4.968  -9.780   8.019  0.00  0.00    +0.277 C 
ENDBRANCH  19   2
ENDBRANCH  13  15
ENDBRANCH   5  13
ENDBRANCH  14   9
TORSDOF 9
ENDMDL
MODEL 2
REMARK VINA RESULT:      -6.4     26.227     29.954
REMARK  Name = 45783352
REMARK  11 active torsions:
REMARK  status: ('A' for Active; 'I' for Inactive)
REMARK    1  A    between atoms: O_2  and  C_19
REMARK    2  A    between atoms: O_2  and  C_27
REMARK    3  A    between atoms: O_3  and  C_25
REMARK    4  A    between atoms: O_3  and  C_28
REMARK    5  A    between atoms: O_4  and  C_29
REMARK    6  A    between atoms: O_4  and  C_30
REMARK    7  A    between atoms: N_5  and  C_13
REMARK    8  A    between atoms: C_9  and  C_14
REMARK    9  A    between atoms: C_13  and  C_15
REMARK   10  A    between atoms: C_18  and  C_21
REMARK   11  A    between atoms: C_28  and  C_29
REMARK                            x       y       z     vdW  Elec       q    Type
REMARK                         _______ _______ _______ _____ _____    ______ ____
ROOT
ATOM      1  O   UNL     1      14.457   6.696  19.831  0.00  0.00    -0.336 OA
ATOM      6  N   UNL     1      15.666   7.902  21.279  0.00  0.00    -0.190 NA
ATOM      7  N   UNL     1      15.784   6.276  19.674  0.00  0.00    -0.056 NA
ATOM     14  C   UNL     1      14.477   7.653  20.795  0.00  0.00    +0.245 A 
ATOM     18  C   UNL     1      16.435   7.033  20.562  0.00  0.00    +0.202 A 
ENDROOT
BRANCH  18  21
ATOM      8  N   UNL     1      20.619   6.783  21.131  0.00  0.00    -0.221 NA
ATOM     21  C   UNL     1      17.854   6.948  20.755  0.00  0.00    +0.029 A 
ATOM     23  C   UNL     1      18.546   5.809  20.359  0.00  0.00    +0.079 A 
ATOM     24  C   UNL     1      18.544   8.006  21.339  0.00  0.00    +0.031 A 
ATOM     25  C   UNL     1      19.915   5.776  20.567  0.00  0.00    +0.215 A 
ATOM     26  C   UNL     1      19.913   7.875  21.503  0.00  0.00    +0.115 A 
BRANCH  25   3
ATOM      3  O   UNL     1      20.620   4.665  20.186  0.00  0.00    -0.474 OA
BRANCH   3  28
ATOM     28  C   UNL     1      21.991   4.615  20.563  0.00  0.00    +0.258 C 
BRANCH  28  29
ATOM     29  C   UNL     1      22.253   3.320  21.308  0.00  0.00    +0.200 C 
BRANCH  29   4
ATOM      4  O   UNL     1      23.651   3.189  21.534  0.00  0.00    -0.380 OA
ATOM     30  C   UNL     1      24.255   2.331  20.576  0.00  0.00    +0.194 C 
ENDBRANCH  29   4
ENDBRANCH  28  29
ENDBRANCH   3  28
ENDBRANCH  25   3
ENDBRANCH  18  21
BRANCH  14   9
ATOM      5  N   UNL     1      12.374   8.698  19.968  0.00  0.00    -0.287 NA
ATOM      9  C   UNL     1      13.144   8.276  21.155  0.00  0.00    +0.146 C 
ATOM     10  C   UNL     1      12.213   7.299  21.898  0.00  0.00    +0.030 C 
ATOM     11  C   UNL     1      10.925   7.283  21.088  0.00  0.00    +0.017 C 
ATOM     12  C   UNL     1      10.962   8.597  20.334  0.00  0.00    +0.085 C 
BRANCH   5  13
ATOM     13  C   UNL     1      12.726  10.032  19.499  0.00  0.00    +0.120 C 
BRANCH  13  15
ATOM     15  C   UNL     1      13.376   9.995  18.142  0.00  0.00    -0.030 A 
ATOM     16  C   UNL     1      14.239  11.022  17.755  0.00  0.00    +0.050 A 
ATOM     17  C   UNL     1      13.117   8.936  17.271  0.00  0.00    +0.005 A 
ATOM     19  C   UNL     1      14.842  10.988  16.498  0.00  0.00    +0.120 A 
ATOM     20  C   UNL     1      13.719   8.904  16.014  0.00  0.00    +0.004 A 
ATOM     22  C   UNL     1      14.581   9.929  15.627  0.00  0.00    +0.045 A 
BRANCH  19   2
ATOM      2  O   UNL     1      15.682  11.990  16.119  0.00  0.00    -0.495 OA
ATOM     27  C   UNL     1      15.886  12.173  14.719  0.00  0.00    +0.277 C 
ENDBRANCH  19   2
ENDBRANCH  13  15
ENDBRANCH   5  13
ENDBRANCH  14   9
TORSDOF 9
ENDMDL
MODEL 3
REMARK VINA RESULT:      -6.2     26.622     30.153
REMARK  Name = 45783352
REMARK  11 active torsions:
REMARK  status: ('A' for Active; 'I' for Inactive)
REMARK    1  A    between atoms: O_2  and  C_19
REMARK    2  A    between atoms: O_2  and  C_27
REMARK    3  A    between atoms: O_3  and  C_25
REMARK    4  A    between atoms: O_3  and  C_28
REMARK    5  A    between atoms: O_4  and  C_29
REMARK    6  A    between atoms: O_4  and  C_30
REMARK    7  A    between atoms: N_5  and  C_13
REMARK    8  A    between atoms: C_9  and  C_14
REMARK    9  A    between atoms: C_13  and  C_15
REMARK   10  A    between atoms: C_18  and  C_21
REMARK   11  A    between atoms: C_28  and  C_29
REMARK                            x       y       z     vdW  Elec       q    Type
REMARK                         _______ _______ _______ _____ _____    ______ ____
ROOT
ATOM      1  O   UNL     1      15.534   8.830  19.905  0.00  0.00    -0.336 OA
ATOM      6  N   UNL     1      16.503   6.841  19.559  0.00  0.00    -0.190 NA
ATOM      7  N   UNL     1      16.719   8.840  20.651  0.00  0.00    -0.056 NA
ATOM     14  C   UNL     1      15.484   7.618  19.293  0.00  0.00    +0.245 A 
ATOM     18  C   UNL     1      17.234   7.633  20.395  0.00  0.00    +0.202 A 
ENDROOT
BRANCH  18  21
ATOM      8  N   UNL     1      20.893   6.322  22.063  0.00  0.00    -0.221 NA
ATOM     21  C   UNL     1      18.475   7.188  20.960  0.00  0.00    +0.029 A 
ATOM     23  C   UNL     1      19.153   6.112  20.399  0.00  0.00    +0.079 A 
ATOM     24  C   UNL     1      19.006   7.833  22.074  0.00  0.00    +0.031 A 
ATOM     25  C   UNL     1      20.347   5.721  20.982  0.00  0.00    +0.215 A 
ATOM     26  C   UNL     1      20.207   7.365  22.582  0.00  0.00    +0.115 A 
BRANCH  25   3
ATOM      3  O   UNL     1      21.034   4.663  20.448  0.00  0.00    -0.474 OA
BRANCH   3  28
ATOM     28  C   UNL     1      22.391   4.513  20.847  0.00  0.00    +0.258 C 
BRANCH  28  29
ATOM     29  C   UNL     1      22.638   3.065  21.226  0.00  0.00    +0.200 C 
BRANCH  29   4
ATOM      4  O   UNL     1      23.882   2.647  20.677  0.00  0.00    -0.380 OA
ATOM     30  C   UNL     1      24.493   3.685  19.923  0.00  0.00    +0.194 C 
ENDBRANCH  29   4
ENDBRANCH  28  29
ENDBRANCH   3  28
ENDBRANCH  25   3
ENDBRANCH  18  21
BRANCH  14   9
ATOM      5  N   UNL     1      13.108   8.167  18.796  0.00  0.00    -0.287 NA
ATOM      9  C   UNL     1      14.280   7.355  18.413  0.00  0.00    +0.146 C 
ATOM     10  C   UNL     1      14.535   7.708  16.936  0.00  0.00    +0.030 C 
ATOM     11  C   UNL     1      13.422   8.677  16.561  0.00  0.00    +0.017 C 
ATOM     12  C   UNL     1      12.335   8.379  17.573  0.00  0.00    +0.085 C 
BRANCH   5  13
ATOM     13  C   UNL     1      12.309   7.560  19.852  0.00  0.00    +0.120 C 
BRANCH  13  15
ATOM     15  C   UNL     1      11.859   8.576  20.868  0.00  0.00    -0.030 A 
ATOM     16  C   UNL     1      12.080   9.935  20.641  0.00  0.00    +0.050 A 
ATOM     17  C   UNL     1      11.222   8.160  22.038  0.00  0.00    +0.005 A 
ATOM     19  C   UNL     1      11.664  10.877  21.581  0.00  0.00    +0.120 A 
ATOM     20  C   UNL     1      10.807   9.101  22.979  0.00  0.00    +0.004 A 
ATOM     22  C   UNL     1      11.027  10.459  22.751  0.00  0.00    +0.045 A 
BRANCH  19   2
ATOM      2  O   UNL     1      11.880  12.202  21.359  0.00  0.00    -0.495 OA
ATOM     27  C   UNL     1      12.643  12.551  20.205  0.00  0.00    +0.277 C 
ENDBRANCH  19   2
ENDBRANCH  13  15
ENDBRANCH   5  13
ENDBRANCH  14   9
TORSDOF 9
ENDMDL
MODEL 4
REMARK VINA RESULT:      -6.2     26.741     29.799
REMARK  Name = 45783352
REMARK  11 active torsions:
REMARK  status: ('A' for Active; 'I' for Inactive)
REMARK    1  A    between atoms: O_2  and  C_19
REMARK    2  A    between atoms: O_2  and  C_27
REMARK    3  A    between atoms: O_3  and  C_25
REMARK    4  A    between atoms: O_3  and  C_28
REMARK    5  A    between atoms: O_4  and  C_29
REMARK    6  A    between atoms: O_4  and  C_30
REMARK    7  A    between atoms: N_5  and  C_13
REMARK    8  A    between atoms: C_9  and  C_14
REMARK    9  A    between atoms: C_13  and  C_15
REMARK   10  A    between atoms: C_18  and  C_21
REMARK   11  A    between atoms: C_28  and  C_29
REMARK                            x       y       z     vdW  Elec       q    Type
REMARK                         _______ _______ _______ _____ _____    ______ ____
ROOT
ATOM      1  O   UNL     1      15.203  11.359  23.337  0.00  0.00    -0.336 OA
ATOM      6  N   UNL     1      15.119  10.324  21.353  0.00  0.00    -0.190 NA
ATOM      7  N   UNL     1      13.929  10.783  23.252  0.00  0.00    -0.056 NA
ATOM     14  C   UNL     1      15.837  11.041  22.179  0.00  0.00    +0.245 A 
ATOM     18  C   UNL     1      13.956  10.190  22.055  0.00  0.00    +0.202 A 
ENDROOT
BRANCH  18  21
ATOM      8  N   UNL     1      10.663   8.035  20.507  0.00  0.00    -0.221 NA
ATOM     21  C   UNL     1      12.840   9.459  21.529  0.00  0.00    +0.029 A 
ATOM     23  C   UNL     1      12.900   8.914  20.252  0.00  0.00    +0.079 A 
ATOM     24  C   UNL     1      11.691   9.293  22.297  0.00  0.00    +0.031 A 
ATOM     25  C   UNL     1      11.795   8.217  19.790  0.00  0.00    +0.215 A 
ATOM     26  C   UNL     1      10.640   8.579  21.744  0.00  0.00    +0.115 A 
BRANCH  25   3
ATOM      3  O   UNL     1      11.829   7.671  18.534  0.00  0.00    -0.474 OA
BRANCH   3  28
ATOM     28  C   UNL     1      12.773   8.219  17.623  0.00  0.00    +0.258 C 
BRANCH  28  29
ATOM     29  C   UNL     1      12.031   8.983  16.542  0.00  0.00    +0.200 C 
BRANCH  29   4
ATOM      4  O   UNL     1      12.828   9.013  15.364  0.00  0.00    -0.380 OA
ATOM     30  C   UNL     1      14.154   9.441  15.644  0.00  0.00    +0.194 C 
ENDBRANCH  29   4
ENDBRANCH  28  29
ENDBRANCH   3  28
ENDBRANCH  25   3
ENDBRANCH  18  21
BRANCH  14   9
ATOM      5  N   UNL     1      18.105  10.641  21.236  0.00  0.00    -0.287 NA
ATOM      9  C   UNL     1      17.253  11.555  22.022  0.00  0.00    +0.146 C 
ATOM     10  C   UNL     1      17.319  12.897  21.271  0.00  0.00    +0.030 C 
ATOM     11  C   UNL     1      18.278  12.657  20.112  0.00  0.00    +0.017 C 
ATOM     12  C   UNL     1      19.108  11.477  20.576  0.00  0.00    +0.085 C 
BRANCH   5  13
ATOM     13  C   UNL     1      18.712   9.587  22.038  0.00  0.00    +0.120 C 
BRANCH  13  15
ATOM     15  C   UNL     1      18.647   8.251  21.348  0.00  0.00    -0.030 A 
ATOM     16  C   UNL     1      19.743   7.388  21.393  0.00  0.00    +0.050 A 
ATOM     17  C   UNL     1      17.491   7.873  20.664  0.00  0.00    +0.005 A 
ATOM     19  C   UNL     1      19.683   6.150  20.755  0.00  0.00    +0.120 A 
ATOM     20  C   UNL     1      17.431   6.635  20.024  0.00  0.00    +0.004 A 
ATOM     22  C   UNL     1      18.527   5.773  20.070  0.00  0.00    +0.045 A 
BRANCH  19   2
ATOM      2  O   UNL     1      20.754   5.310  20.798  0.00  0.00    -0.495 OA
ATOM     27  C   UNL     1      22.020   5.852  20.425  0.00  0.00    +0.277 C 
ENDBRANCH  19   2
ENDBRANCH  13  15
ENDBRANCH   5  13
ENDBRANCH  14   9
TORSDOF 9
ENDMDL
MODEL 5
REMARK VINA RESULT:      -6.2      1.873      2.429
REMARK  Name = 45783352
REMARK  11 active torsions:
REMARK  status: ('A' for Active; 'I' for Inactive)
REMARK    1  A    between atoms: O_2  and  C_19
REMARK    2  A    between atoms: O_2  and  C_27
REMARK    3  A    between atoms: O_3  and  C_25
REMARK    4  A    between atoms: O_3  and  C_28
REMARK    5  A    between atoms: O_4  and  C_29
REMARK    6  A    between atoms: O_4  and  C_30
REMARK    7  A    between atoms: N_5  and  C_13
REMARK    8  A    between atoms: C_9  and  C_14
REMARK    9  A    between atoms: C_13  and  C_15
REMARK   10  A    between atoms: C_18  and  C_21
REMARK   11  A    between atoms: C_28  and  C_29
REMARK                            x       y       z     vdW  Elec       q    Type
REMARK                         _______ _______ _______ _____ _____    ______ ____
ROOT
ATOM      1  O   UNL     1      -5.196  -9.878  15.672  0.00  0.00    -0.336 OA
ATOM      6  N   UNL     1      -5.097 -11.633  17.058  0.00  0.00    -0.190 NA
ATOM      7  N   UNL     1      -6.372  -9.840  16.432  0.00  0.00    -0.056 NA
ATOM     14  C   UNL     1      -4.504 -10.963  16.104  0.00  0.00    +0.245 A 
ATOM     18  C   UNL     1      -6.240 -10.907  17.227  0.00  0.00    +0.202 A 
ENDROOT
BRANCH  18  21
ATOM      8  N   UNL     1      -9.161 -11.996  20.084  0.00  0.00    -0.221 NA
ATOM     21  C   UNL     1      -7.231 -11.275  18.196  0.00  0.00    +0.029 A 
ATOM     23  C   UNL     1      -8.341 -10.465  18.404  0.00  0.00    +0.079 A 
ATOM     24  C   UNL     1      -7.085 -12.448  18.932  0.00  0.00    +0.031 A 
ATOM     25  C   UNL     1      -9.269 -10.865  19.351  0.00  0.00    +0.215 A 
ATOM     26  C   UNL     1      -8.070 -12.760  19.855  0.00  0.00    +0.115 A 
BRANCH  25   3
ATOM      3  O   UNL     1     -10.371 -10.083  19.575  0.00  0.00    -0.474 OA
BRANCH   3  28
ATOM     28  C   UNL     1     -11.532 -10.377  18.808  0.00  0.00    +0.258 C 
BRANCH  28  29
ATOM     29  C   UNL     1     -11.818  -9.214  17.877  0.00  0.00    +0.200 C 
BRANCH  29   4
ATOM      4  O   UNL     1     -11.793  -9.678  16.533  0.00  0.00    -0.380 OA
ATOM     30  C   UNL     1     -10.720  -9.099  15.802  0.00  0.00    +0.194 C 
ENDBRANCH  29   4
ENDBRANCH  28  29
ENDBRANCH   3  28
ENDBRANCH  25   3
ENDBRANCH  18  21
BRANCH  14   9
ATOM      5  N   UNL     1      -3.045 -10.529  14.135  0.00  0.00    -0.287 NA
ATOM      9  C   UNL     1      -3.174 -11.227  15.430  0.00  0.00    +0.146 C 
ATOM     10  C   UNL     1      -1.976 -10.733  16.262  0.00  0.00    +0.030 C 
ATOM     11  C   UNL     1      -1.200  -9.809  15.333  0.00  0.00    +0.017 C 
ATOM     12  C   UNL     1      -1.619 -10.264  13.949  0.00  0.00    +0.085 C 
BRANCH   5  13
ATOM     13  C   UNL     1      -3.614 -11.275  13.021  0.00  0.00    +0.120 C 
BRANCH  13  15
ATOM     15  C   UNL     1      -4.035 -10.368  11.896  0.00  0.00    -0.030 A 
ATOM     16  C   UNL     1      -5.356  -9.926  11.813  0.00  0.00    +0.050 A 
ATOM     17  C   UNL     1      -3.105  -9.968  10.936  0.00  0.00    +0.005 A 
ATOM     19  C   UNL     1      -5.746  -9.085  10.771  0.00  0.00    +0.120 A 
ATOM     20  C   UNL     1      -3.495  -9.128   9.893  0.00  0.00    +0.004 A 
ATOM     22  C   UNL     1      -4.815  -8.686   9.811  0.00  0.00    +0.045 A 
BRANCH  19   2
ATOM      2  O   UNL     1      -7.036  -8.656  10.690  0.00  0.00    -0.495 OA
ATOM     27  C   UNL     1      -7.618  -8.591   9.389  0.00  0.00    +0.277 C 
ENDBRANCH  19   2
ENDBRANCH  13  15
ENDBRANCH   5  13
ENDBRANCH  14   9
TORSDOF 9
ENDMDL
MODEL 6
REMARK VINA RESULT:      -6.1     26.529     30.081
REMARK  Name = 45783352
REMARK  11 active torsions:
REMARK  status: ('A' for Active; 'I' for Inactive)
REMARK    1  A    between atoms: O_2  and  C_19
REMARK    2  A    between atoms: O_2  and  C_27
REMARK    3  A    between atoms: O_3  and  C_25
REMARK    4  A    between atoms: O_3  and  C_28
REMARK    5  A    between atoms: O_4  and  C_29
REMARK    6  A    between atoms: O_4  and  C_30
REMARK    7  A    between atoms: N_5  and  C_13
REMARK    8  A    between atoms: C_9  and  C_14
REMARK    9  A    between atoms: C_13  and  C_15
REMARK   10  A    between atoms: C_18  and  C_21
REMARK   11  A    between atoms: C_28  and  C_29
REMARK                            x       y       z     vdW  Elec       q    Type
REMARK                         _______ _______ _______ _____ _____    ______ ____
ROOT
ATOM      1  O   UNL     1      16.486  11.535  22.277  0.00  0.00    -0.336 OA
ATOM      6  N   UNL     1      15.013   9.912  21.818  0.00  0.00    -0.190 NA
ATOM      7  N   UNL     1      17.204  10.536  21.607  0.00  0.00    -0.056 NA
ATOM     14  C   UNL     1      15.206  11.088  22.359  0.00  0.00    +0.245 A 
ATOM     18  C   UNL     1      16.266   9.614  21.369  0.00  0.00    +0.202 A 
ENDROOT
BRANCH  18  21
ATOM      8  N   UNL     1      17.098   5.984  19.363  0.00  0.00    -0.221 NA
ATOM     21  C   UNL     1      16.549   8.383  20.689  0.00  0.00    +0.029 A 
ATOM     23  C   UNL     1      17.755   7.726  20.905  0.00  0.00    +0.079 A 
ATOM     24  C   UNL     1      15.616   7.841  19.809  0.00  0.00    +0.031 A 
ATOM     25  C   UNL     1      17.980   6.541  20.224  0.00  0.00    +0.215 A 
ATOM     26  C   UNL     1      15.937   6.651  19.178  0.00  0.00    +0.115 A 
BRANCH  25   3
ATOM      3  O   UNL     1      19.161   5.874  20.419  0.00  0.00    -0.474 OA
BRANCH   3  28
ATOM     28  C   UNL     1      19.984   6.329  21.486  0.00  0.00    +0.258 C 
BRANCH  28  29
ATOM     29  C   UNL     1      21.181   5.407  21.616  0.00  0.00    +0.200 C 
BRANCH  29   4
ATOM      4  O   UNL     1      21.809   5.279  20.346  0.00  0.00    -0.380 OA
ATOM     30  C   UNL     1      23.146   4.815  20.470  0.00  0.00    +0.194 C 
ENDBRANCH  29   4
ENDBRANCH  28  29
ENDBRANCH   3  28
ENDBRANCH  25   3
ENDBRANCH  18  21
BRANCH  14   9
ATOM      5  N   UNL     1      12.938  11.327  23.354  0.00  0.00    -0.287 NA
ATOM      9  C   UNL     1      14.215  12.001  23.050  0.00  0.00    +0.146 C 
ATOM     10  C   UNL     1      14.724  12.508  24.413  0.00  0.00    +0.030 C 
ATOM     11  C   UNL     1      13.639  12.125  25.410  0.00  0.00    +0.017 C 
ATOM     12  C   UNL     1      12.401  11.978  24.549  0.00  0.00    +0.085 C 
BRANCH   5  13
ATOM     13  C   UNL     1      11.995  11.356  22.243  0.00  0.00    +0.120 C 
BRANCH  13  15
ATOM     15  C   UNL     1      11.559   9.972  21.842  0.00  0.00    -0.030 A 
ATOM     16  C   UNL     1      11.848   9.493  20.564  0.00  0.00    +0.050 A 
ATOM     17  C   UNL     1      10.867   9.167  22.748  0.00  0.00    +0.005 A 
ATOM     19  C   UNL     1      11.445   8.211  20.191  0.00  0.00    +0.120 A 
ATOM     20  C   UNL     1      10.463   7.885  22.375  0.00  0.00    +0.004 A 
ATOM     22  C   UNL     1      10.752   7.407  21.097  0.00  0.00    +0.045 A 
BRANCH  19   2
ATOM      2  O   UNL     1      11.726   7.745  18.944  0.00  0.00    -0.495 OA
ATOM     27  C   UNL     1      11.803   8.707  17.893  0.00  0.00    +0.277 C 
ENDBRANCH  19   2
ENDBRANCH  13  15
ENDBRANCH   5  13
ENDBRANCH  14   9
TORSDOF 9
ENDMDL
MODEL 7
REMARK VINA RESULT:      -6.1     28.097     31.532
REMARK  Name = 45783352
REMARK  11 active torsions:
REMARK  status: ('A' for Active; 'I' for Inactive)
REMARK    1  A    between atoms: O_2  and  C_19
REMARK    2  A    between atoms: O_2  and  C_27
REMARK    3  A    between atoms: O_3  and  C_25
REMARK    4  A    between atoms: O_3  and  C_28
REMARK    5  A    between atoms: O_4  and  C_29
REMARK    6  A    between atoms: O_4  and  C_30
REMARK    7  A    between atoms: N_5  and  C_13
REMARK    8  A    between atoms: C_9  and  C_14
REMARK    9  A    between atoms: C_13  and  C_15
REMARK   10  A    between atoms: C_18  and  C_21
REMARK   11  A    between atoms: C_28  and  C_29
REMARK                            x       y       z     vdW  Elec       q    Type
REMARK                         _______ _______ _______ _____ _____    ______ ____
ROOT
ATOM      1  O   UNL     1      20.456   8.205  23.207  0.00  0.00    -0.336 OA
ATOM      6  N   UNL     1      19.925   6.145  22.507  0.00  0.00    -0.190 NA
ATOM      7  N   UNL     1      19.450   8.368  22.245  0.00  0.00    -0.056 NA
ATOM     14  C   UNL     1      20.675   6.868  23.300  0.00  0.00    +0.245 A 
ATOM     18  C   UNL     1      19.190   7.109  21.881  0.00  0.00    +0.202 A 
ENDROOT
BRANCH  18  21
ATOM      8  N   UNL     1      16.284   6.138  18.965  0.00  0.00    -0.221 NA
ATOM     21  C   UNL     1      18.204   6.779  20.893  0.00  0.00    +0.029 A 
ATOM     23  C   UNL     1      16.961   7.403  20.910  0.00  0.00    +0.079 A 
ATOM     24  C   UNL     1      18.487   5.834  19.911  0.00  0.00    +0.031 A 
ATOM     25  C   UNL     1      16.044   7.050  19.934  0.00  0.00    +0.215 A 
ATOM     26  C   UNL     1      17.502   5.552  18.980  0.00  0.00    +0.115 A 
BRANCH  25   3
ATOM      3  O   UNL     1      14.812   7.650  19.929  0.00  0.00    -0.474 OA
BRANCH   3  28
ATOM     28  C   UNL     1      13.724   6.881  20.426  0.00  0.00    +0.258 C 
BRANCH  28  29
ATOM     29  C   UNL     1      12.456   7.710  20.349  0.00  0.00    +0.200 C 
BRANCH  29   4
ATOM      4  O   UNL     1      11.331   6.840  20.359  0.00  0.00    -0.380 OA
ATOM     30  C   UNL     1      11.315   6.024  21.523  0.00  0.00    +0.194 C 
ENDBRANCH  29   4
ENDBRANCH  28  29
ENDBRANCH   3  28
ENDBRANCH  25   3
ENDBRANCH  18  21
BRANCH  14   9
ATOM      5  N   UNL     1      22.828   5.670  23.647  0.00  0.00    -0.287 NA
ATOM      9  C   UNL     1      21.733   6.425  24.288  0.00  0.00    +0.146 C 
ATOM     10  C   UNL     1      22.429   7.608  24.985  0.00  0.00    +0.030 C 
ATOM     11  C   UNL     1      23.916   7.401  24.732  0.00  0.00    +0.017 C 
ATOM     12  C   UNL     1      24.025   5.916  24.451  0.00  0.00    +0.085 C 
BRANCH   5  13
ATOM     13  C   UNL     1      22.543   4.248  23.509  0.00  0.00    +0.120 C 
BRANCH  13  15
ATOM     15  C   UNL     1      23.295   3.635  22.358  0.00  0.00    -0.030 A 
ATOM     16  C   UNL     1      23.894   4.455  21.401  0.00  0.00    +0.050 A 
ATOM     17  C   UNL     1      23.393   2.248  22.247  0.00  0.00    +0.005 A 
ATOM     19  C   UNL     1      24.591   3.888  20.334  0.00  0.00    +0.120 A 
ATOM     20  C   UNL     1      24.088   1.680  21.180  0.00  0.00    +0.004 A 
ATOM     22  C   UNL     1      24.688   2.500  20.223  0.00  0.00    +0.045 A 
BRANCH  19   2
ATOM      2  O   UNL     1      25.174   4.688  19.400  0.00  0.00    -0.495 OA
ATOM     27  C   UNL     1      26.476   4.317  18.948  0.00  0.00    +0.277 C 
ENDBRANCH  19   2
ENDBRANCH  13  15
ENDBRANCH   5  13
ENDBRANCH  14   9
TORSDOF 9
ENDMDL
MODEL 8
REMARK VINA RESULT:      -6.0     27.725     31.283
REMARK  Name = 45783352
REMARK  11 active torsions:
REMARK  status: ('A' for Active; 'I' for Inactive)
REMARK    1  A    between atoms: O_2  and  C_19
REMARK    2  A    between atoms: O_2  and  C_27
REMARK    3  A    between atoms: O_3  and  C_25
REMARK    4  A    between atoms: O_3  and  C_28
REMARK    5  A    between atoms: O_4  and  C_29
REMARK    6  A    between atoms: O_4  and  C_30
REMARK    7  A    between atoms: N_5  and  C_13
REMARK    8  A    between atoms: C_9  and  C_14
REMARK    9  A    between atoms: C_13  and  C_15
REMARK   10  A    between atoms: C_18  and  C_21
REMARK   11  A    between atoms: C_28  and  C_29
REMARK                            x       y       z     vdW  Elec       q    Type
REMARK                         _______ _______ _______ _____ _____    ______ ____
ROOT
ATOM      1  O   UNL     1      21.073   5.459  21.090  0.00  0.00    -0.336 OA
ATOM      6  N   UNL     1      19.511   6.550  22.266  0.00  0.00    -0.190 NA
ATOM      7  N   UNL     1      19.918   5.459  20.297  0.00  0.00    -0.056 NA
ATOM     14  C   UNL     1      20.746   6.121  22.230  0.00  0.00    +0.245 A 
ATOM     18  C   UNL     1      19.042   6.122  21.058  0.00  0.00    +0.202 A 
ENDROOT
BRANCH  18  21
ATOM      8  N   UNL     1      15.060   6.851  19.835  0.00  0.00    -0.221 NA
ATOM     21  C   UNL     1      17.692   6.369  20.644  0.00  0.00    +0.029 A 
ATOM     23  C   UNL     1      16.749   6.815  21.563  0.00  0.00    +0.079 A 
ATOM     24  C   UNL     1      17.319   6.164  19.319  0.00  0.00    +0.031 A 
ATOM     25  C   UNL     1      15.458   7.040  21.113  0.00  0.00    +0.215 A 
ATOM     26  C   UNL     1      16.003   6.417  18.969  0.00  0.00    +0.115 A 
BRANCH  25   3
ATOM      3  O   UNL     1      14.511   7.479  22.000  0.00  0.00    -0.474 OA
BRANCH   3  28
ATOM     28  C   UNL     1      13.605   8.470  21.530  0.00  0.00    +0.258 C 
BRANCH  28  29
ATOM     29  C   UNL     1      12.194   8.079  21.927  0.00  0.00    +0.200 C 
BRANCH  29   4
ATOM      4  O   UNL     1      11.666   7.189  20.951  0.00  0.00    -0.380 OA
ATOM     30  C   UNL     1      11.199   5.985  21.543  0.00  0.00    +0.194 C 
ENDBRANCH  29   4
ENDBRANCH  28  29
ENDBRANCH   3  28
ENDBRANCH  25   3
ENDBRANCH  18  21
BRANCH  14   9
ATOM      5  N   UNL     1      22.933   5.285  23.073  0.00  0.00    -0.287 NA
ATOM      9  C   UNL     1      21.842   6.260  23.267  0.00  0.00    +0.146 C 
ATOM     10  C   UNL     1      22.532   7.636  23.222  0.00  0.00    +0.030 C 
ATOM     11  C   UNL     1      24.015   7.331  23.061  0.00  0.00    +0.017 C 
ATOM     12  C   UNL     1      24.147   5.917  23.590  0.00  0.00    +0.085 C 
BRANCH   5  13
ATOM     13  C   UNL     1      22.674   3.998  23.705  0.00  0.00    +0.120 C 
BRANCH  13  15
ATOM     15  C   UNL     1      23.363   2.871  22.984  0.00  0.00    -0.030 A 
ATOM     16  C   UNL     1      24.058   1.901  23.707  0.00  0.00    +0.050 A 
ATOM     17  C   UNL     1      23.307   2.795  21.592  0.00  0.00    +0.005 A 
ATOM     19  C   UNL     1      24.697   0.857  23.040  0.00  0.00    +0.120 A 
ATOM     20  C   UNL     1      23.946   1.751  20.923  0.00  0.00    +0.004 A 
ATOM     22  C   UNL     1      24.641   0.782  21.647  0.00  0.00    +0.045 A 
BRANCH  19   2
ATOM      2  O   UNL     1      25.376  -0.088  23.746  0.00  0.00    -0.495 OA
ATOM     27  C   UNL     1      26.724   0.213  24.104  0.00  0.00    +0.277 C 
ENDBRANCH  19   2
ENDBRANCH  13  15
ENDBRANCH   5  13
ENDBRANCH  14   9
TORSDOF 9
ENDMDL
MODEL 9
REMARK VINA RESULT:      -5.9      3.070      5.726
REMARK  Name = 45783352
REMARK  11 active torsions:
REMARK  status: ('A' for Active; 'I' for Inactive)
REMARK    1  A    between atoms: O_2  and  C_19
REMARK    2  A    between atoms: O_2  and  C_27
REMARK    3  A    between atoms: O_3  and  C_25
REMARK    4  A    between atoms: O_3  and  C_28
REMARK    5  A    between atoms: O_4  and  C_29
REMARK    6  A    between atoms: O_4  and  C_30
REMARK    7  A    between atoms: N_5  and  C_13
REMARK    8  A    between atoms: C_9  and  C_14
REMARK    9  A    between atoms: C_13  and  C_15
REMARK   10  A    between atoms: C_18  and  C_21
REMARK   11  A    between atoms: C_28  and  C_29
REMARK                            x       y       z     vdW  Elec       q    Type
REMARK                         _______ _______ _______ _____ _____    ______ ____
ROOT
ATOM      1  O   UNL     1      -7.490 -10.453  11.554  0.00  0.00    -0.336 OA
ATOM      6  N   UNL     1      -5.908  -9.158  12.467  0.00  0.00    -0.190 NA
ATOM      7  N   UNL     1      -7.354 -10.882  12.880  0.00  0.00    -0.056 NA
ATOM     14  C   UNL     1      -6.604  -9.436  11.394  0.00  0.00    +0.245 A 
ATOM     18  C   UNL     1      -6.403 -10.070  13.352  0.00  0.00    +0.202 A 
ENDROOT
BRANCH  18  21
ATOM      8  N   UNL     1      -4.989 -10.295  17.332  0.00  0.00    -0.221 NA
ATOM     21  C   UNL     1      -5.924 -10.146  14.702  0.00  0.00    +0.029 A 
ATOM     23  C   UNL     1      -6.781  -9.881  15.764  0.00  0.00    +0.079 A 
ATOM     24  C   UNL     1      -4.598 -10.486  14.954  0.00  0.00    +0.031 A 
ATOM     25  C   UNL     1      -6.270  -9.967  17.048  0.00  0.00    +0.215 A 
ATOM     26  C   UNL     1      -4.185 -10.546  16.274  0.00  0.00    +0.115 A 
BRANCH  25   3
ATOM      3  O   UNL     1      -7.094  -9.710  18.112  0.00  0.00    -0.474 OA
BRANCH   3  28
ATOM     28  C   UNL     1      -8.343 -10.390  18.134  0.00  0.00    +0.258 C 
BRANCH  28  29
ATOM     29  C   UNL     1      -8.366 -11.344  19.314  0.00  0.00    +0.200 C 
BRANCH  29   4
ATOM      4  O   UNL     1      -9.406 -10.955  20.204  0.00  0.00    -0.380 OA
ATOM     30  C   UNL     1     -10.444 -11.925  20.246  0.00  0.00    +0.194 C 
ENDBRANCH  29   4
ENDBRANCH  28  29
ENDBRANCH   3  28
ENDBRANCH  25   3
ENDBRANCH  18  21
BRANCH  14   9
ATOM      5  N   UNL     1      -5.772  -9.578   9.053  0.00  0.00    -0.287 NA
ATOM      9  C   UNL     1      -6.557  -8.791  10.025  0.00  0.00    +0.146 C 
ATOM     10  C   UNL     1      -7.950  -8.653   9.384  0.00  0.00    +0.030 C 
ATOM     11  C   UNL     1      -7.835  -9.341   8.030  0.00  0.00    +0.017 C 
ATOM     12  C   UNL     1      -6.349  -9.302   7.737  0.00  0.00    +0.085 C 
BRANCH   5  13
ATOM     13  C   UNL     1      -4.345  -9.289   9.097  0.00  0.00    +0.120 C 
BRANCH  13  15
ATOM     15  C   UNL     1      -3.634 -10.134  10.120  0.00  0.00    -0.030 A 
ATOM     16  C   UNL     1      -3.957 -11.485  10.256  0.00  0.00    +0.050 A 
ATOM     17  C   UNL     1      -2.652  -9.567  10.934  0.00  0.00    +0.005 A 
ATOM     19  C   UNL     1      -3.299 -12.268  11.203  0.00  0.00    +0.120 A 
ATOM     20  C   UNL     1      -1.995 -10.350  11.882  0.00  0.00    +0.004 A 
ATOM     22  C   UNL     1      -2.318 -11.700  12.017  0.00  0.00    +0.045 A 
BRANCH  19   2
ATOM      2  O   UNL     1      -3.616 -13.585  11.335  0.00  0.00    -0.495 OA
ATOM     27  C   UNL     1      -2.681 -14.411  12.029  0.00  0.00    +0.277 C 
ENDBRANCH  19   2
ENDBRANCH  13  15
ENDBRANCH   5  13
ENDBRANCH  14   9
TORSDOF 9
ENDMDL
MODEL 10
REMARK VINA RESULT:      -5.9      2.038      3.165
REMARK  Name = 45783352
REMARK  11 active torsions:
REMARK  status: ('A' for Active; 'I' for Inactive)
REMARK    1  A    between atoms: O_2  and  C_19
REMARK    2  A    between atoms: O_2  and  C_27
REMARK    3  A    between atoms: O_3  and  C_25
REMARK    4  A    between atoms: O_3  and  C_28
REMARK    5  A    between atoms: O_4  and  C_29
REMARK    6  A    between atoms: O_4  and  C_30
REMARK    7  A    between atoms: N_5  and  C_13
REMARK    8  A    between atoms: C_9  and  C_14
REMARK    9  A    between atoms: C_13  and  C_15
REMARK   10  A    between atoms: C_18  and  C_21
REMARK   11  A    between atoms: C_28  and  C_29
REMARK                            x       y       z     vdW  Elec       q    Type
REMARK                         _______ _______ _______ _____ _____    ______ ____
ROOT
ATOM      1  O   UNL     1      -4.079 -11.097  18.107  0.00  0.00    -0.336 OA
ATOM      6  N   UNL     1      -5.543 -10.670  16.468  0.00  0.00    -0.190 NA
ATOM      7  N   UNL     1      -5.289 -10.782  18.738  0.00  0.00    -0.056 NA
ATOM     14  C   UNL     1      -4.317 -11.008  16.773  0.00  0.00    +0.245 A 
ATOM     18  C   UNL     1      -6.103 -10.543  17.705  0.00  0.00    +0.202 A 
ENDROOT
BRANCH  18  21
ATOM      8  N   UNL     1     -10.157  -9.448  18.207  0.00  0.00    -0.221 NA
ATOM     21  C   UNL     1      -7.478 -10.172  17.876  0.00  0.00    +0.029 A 
ATOM     23  C   UNL     1      -8.268 -10.827  18.814  0.00  0.00    +0.079 A 
ATOM     24  C   UNL     1      -8.027  -9.154  17.102  0.00  0.00    +0.031 A 
ATOM     25  C   UNL     1      -9.589 -10.432  18.940  0.00  0.00    +0.215 A 
ATOM     26  C   UNL     1      -9.359  -8.833  17.305  0.00  0.00    +0.115 A 
BRANCH  25   3
ATOM      3  O   UNL     1     -10.388 -11.063  19.857  0.00  0.00    -0.474 OA
BRANCH   3  28
ATOM     28  C   UNL     1     -10.033 -12.395  20.207  0.00  0.00    +0.258 C 
BRANCH  28  29
ATOM     29  C   UNL     1     -11.231 -13.075  20.842  0.00  0.00    +0.200 C 
BRANCH  29   4
ATOM      4  O   UNL     1     -12.302 -12.143  20.930  0.00  0.00    -0.380 OA
ATOM     30  C   UNL     1     -13.564 -12.786  20.804  0.00  0.00    +0.194 C 
ENDBRANCH  29   4
ENDBRANCH  28  29
ENDBRANCH   3  28
ENDBRANCH  25   3
ENDBRANCH  18  21
BRANCH  14   9
ATOM      5  N   UNL     1      -3.263 -10.634  14.549  0.00  0.00    -0.287 NA
ATOM      9  C   UNL     1      -3.148 -11.307  15.858  0.00  0.00    +0.146 C 
ATOM     10  C   UNL     1      -1.804 -10.822  16.432  0.00  0.00    +0.030 C 
ATOM     11  C   UNL     1      -1.210  -9.928  15.351  0.00  0.00    +0.017 C 
ATOM     12  C   UNL     1      -1.897 -10.398  14.084  0.00  0.00    +0.085 C 
BRANCH   5  13
ATOM     13  C   UNL     1      -4.049 -11.388  13.582  0.00  0.00    +0.120 C 
BRANCH  13  15
ATOM     15  C   UNL     1      -4.987 -10.500  12.809  0.00  0.00    -0.030 A 
ATOM     16  C   UNL     1      -4.523  -9.794  11.698  0.00  0.00    +0.050 A 
ATOM     17  C   UNL     1      -6.321 -10.383  13.201  0.00  0.00    +0.005 A 
ATOM     19  C   UNL     1      -5.391  -8.972  10.981  0.00  0.00    +0.120 A 
ATOM     20  C   UNL     1      -7.189  -9.560  12.485  0.00  0.00    +0.004 A 
ATOM     22  C   UNL     1      -6.725  -8.854  11.375  0.00  0.00    +0.045 A 
BRANCH  19   2
ATOM      2  O   UNL     1      -4.937  -8.282   9.899  0.00  0.00    -0.495 OA
ATOM     27  C   UNL     1      -4.266  -9.031   8.886  0.00  0.00    +0.277 C 
ENDBRANCH  19   2
ENDBRANCH  13  15
ENDBRANCH   5  13
ENDBRANCH  14   9
TORSDOF 9
ENDMDL
