MODEL 1
REMARK VINA RESULT:      -6.7      0.000      0.000
REMARK  Name = 40779881
REMARK  6 active torsions:
REMARK  status: ('A' for Active; 'I' for Inactive)
REMARK    1  A    between atoms: N_6  and  C_15
REMARK    2  A    between atoms: N_7  and  C_16
REMARK    3  A    between atoms: C_9  and  C_15
REMARK    4  A    between atoms: C_10  and  C_16
REMARK    5  A    between atoms: C_22  and  C_26
REMARK    6  A    between atoms: C_31  and  C_32
REMARK                            x       y       z     vdW  Elec       q    Type
REMARK                         _______ _______ _______ _____ _____    ______ ____
ROOT
ATOM      5  N   UNL     1      -7.313  -9.817   9.750  0.00  0.00    -0.298 NA
ATOM      8  C   UNL     1      -5.122  -9.016  10.900  0.00  0.00    -0.002 C 
ATOM      9  C   UNL     1      -5.036 -10.515  10.532  0.00  0.00    +0.023 C 
ATOM     10  C   UNL     1      -7.632  -9.138  11.035  0.00  0.00    +0.074 C 
ATOM     11  C   UNL     1      -6.343  -8.785  11.810  0.00  0.00    +0.024 C 
ATOM     12  C   UNL     1      -6.409 -10.969   9.987  0.00  0.00    +0.090 C 
ATOM     13  C   UNL     1      -5.377  -8.247   9.590  0.00  0.00    +0.019 C 
ATOM     14  C   UNL     1      -6.606  -8.845   8.882  0.00  0.00    +0.085 C 
ENDROOT
BRANCH   9  15
ATOM     15  C   UNL     1      -4.571 -11.394  11.691  0.00  0.00    +0.110 C 
BRANCH  15   6
ATOM      6  N   UNL     1      -3.473 -10.759  12.374  0.00  0.00    -0.329 N 
ATOM     17  C   UNL     1      -2.149 -10.617  11.771  0.00  0.00    +0.110 C 
ATOM     18  C   UNL     1      -3.292 -10.785  13.750  0.00  0.00    +0.033 A 
ATOM     19  C   UNL     1      -1.224 -10.054  12.869  0.00  0.00    +0.056 C 
ATOM     20  C   UNL     1      -1.994 -10.396  14.103  0.00  0.00    -0.025 A 
ATOM     21  C   UNL     1      -4.203 -11.119  14.739  0.00  0.00    +0.023 A 
ATOM     23  C   UNL     1      -1.580 -10.325  15.423  0.00  0.00    +0.005 A 
ATOM     24  C   UNL     1      -3.799 -11.063  16.076  0.00  0.00    +0.002 A 
ATOM     25  C   UNL     1      -2.497 -10.668  16.416  0.00  0.00    +0.000 A 
ENDBRANCH  15   6
ENDBRANCH   9  15
BRANCH  10  16
ATOM     16  C   UNL     1      -8.609  -9.942  11.895  0.00  0.00    +0.123 C 
BRANCH  16   7
ATOM      4  O   UNL     1      -9.773 -11.436  14.054  0.00  0.00    -0.270 OA
ATOM      7  N   UNL     1      -8.075 -10.091  13.221  0.00  0.00    -0.310 N 
ATOM     22  C   UNL     1      -8.710 -10.837  14.206  0.00  0.00    +0.244 C 
ATOM     33  H   UNL     1      -7.230  -9.573  13.433  0.00  0.00    +0.149 HD
BRANCH  22  26
ATOM     26  C   UNL     1      -8.042 -10.873  15.533  0.00  0.00    +0.037 A 
ATOM     27  C   UNL     1      -7.795 -12.096  16.157  0.00  0.00    +0.013 A 
ATOM     28  C   UNL     1      -7.664  -9.683  16.154  0.00  0.00    +0.013 A 
ATOM     29  C   UNL     1      -7.169 -12.128  17.404  0.00  0.00    +0.013 A 
ATOM     30  C   UNL     1      -7.038  -9.716  17.401  0.00  0.00    +0.013 A 
ATOM     31  C   UNL     1      -6.790 -10.939  18.025  0.00  0.00    +0.055 A 
BRANCH  31  32
ATOM      1  F   UNL     1      -6.602 -11.949  20.185  0.00  0.00    -0.166 F 
ATOM      2  F   UNL     1      -6.265  -9.806  20.048  0.00  0.00    -0.166 F 
ATOM      3  F   UNL     1      -4.776 -11.197  19.289  0.00  0.00    -0.166 F 
ATOM     32  C   UNL     1      -6.121 -10.974  19.358  0.00  0.00    +0.417 C 
ENDBRANCH  31  32
ENDBRANCH  22  26
ENDBRANCH  16   7
ENDBRANCH  10  16
TORSDOF 6
ENDMDL
MODEL 2
REMARK VINA RESULT:      -6.4     25.090     27.024
REMARK  Name = 40779881
REMARK  6 active torsions:
REMARK  status: ('A' for Active; 'I' for Inactive)
REMARK    1  A    between atoms: N_6  and  C_15
REMARK    2  A    between atoms: N_7  and  C_16
REMARK    3  A    between atoms: C_9  and  C_15
REMARK    4  A    between atoms: C_10  and  C_16
REMARK    5  A    between atoms: C_22  and  C_26
REMARK    6  A    between atoms: C_31  and  C_32
REMARK                            x       y       z     vdW  Elec       q    Type
REMARK                         _______ _______ _______ _____ _____    ______ ____
ROOT
ATOM      5  N   UNL     1       9.872   8.158   7.898  0.00  0.00    -0.298 NA
ATOM      8  C   UNL     1       9.706   9.559   5.713  0.00  0.00    -0.002 C 
ATOM      9  C   UNL     1       8.434   8.705   5.919  0.00  0.00    +0.023 C 
ATOM     10  C   UNL     1      11.080   7.936   7.059  0.00  0.00    +0.074 C 
ATOM     11  C   UNL     1      10.940   8.638   5.689  0.00  0.00    +0.024 C 
ATOM     12  C   UNL     1       8.648   7.790   7.147  0.00  0.00    +0.090 C 
ATOM     13  C   UNL     1       9.839  10.468   6.949  0.00  0.00    +0.019 C 
ATOM     14  C   UNL     1       9.799   9.603   8.221  0.00  0.00    +0.085 C 
ENDROOT
BRANCH   9  15
ATOM     15  C   UNL     1       8.040   7.902   4.681  0.00  0.00    +0.110 C 
BRANCH  15   6
ATOM      6  N   UNL     1       7.817   8.795   3.572  0.00  0.00    -0.329 N 
ATOM     17  C   UNL     1       6.593   9.579   3.430  0.00  0.00    +0.110 C 
ATOM     18  C   UNL     1       8.320   8.591   2.295  0.00  0.00    +0.033 A 
ATOM     19  C   UNL     1       6.664  10.259   2.048  0.00  0.00    +0.056 C 
ATOM     20  C   UNL     1       7.679   9.408   1.356  0.00  0.00    -0.025 A 
ATOM     21  C   UNL     1       9.330   7.734   1.885  0.00  0.00    +0.023 A 
ATOM     23  C   UNL     1       8.022   9.397   0.014  0.00  0.00    +0.005 A 
ATOM     24  C   UNL     1       9.682   7.703   0.533  0.00  0.00    +0.002 A 
ATOM     25  C   UNL     1       9.034   8.529  -0.397  0.00  0.00    +0.000 A 
ENDBRANCH  15   6
ENDBRANCH   9  15
BRANCH  10  16
ATOM     16  C   UNL     1      11.419   6.452   6.904  0.00  0.00    +0.123 C 
BRANCH  16   7
ATOM      4  O   UNL     1       9.764   4.852   5.187  0.00  0.00    -0.270 OA
ATOM      7  N   UNL     1      11.656   6.153   5.518  0.00  0.00    -0.310 N 
ATOM     22  C   UNL     1      10.796   5.366   4.763  0.00  0.00    +0.244 C 
ATOM     33  H   UNL     1      12.523   6.496   5.119  0.00  0.00    +0.149 HD
BRANCH  22  26
ATOM     26  C   UNL     1      11.195   5.130   3.351  0.00  0.00    +0.037 A 
ATOM     27  C   UNL     1      12.311   5.779   2.823  0.00  0.00    +0.013 A 
ATOM     28  C   UNL     1      10.453   4.259   2.554  0.00  0.00    +0.013 A 
ATOM     29  C   UNL     1      12.684   5.558   1.497  0.00  0.00    +0.013 A 
ATOM     30  C   UNL     1      10.826   4.038   1.228  0.00  0.00    +0.013 A 
ATOM     31  C   UNL     1      11.941   4.687   0.699  0.00  0.00    +0.055 A 
BRANCH  31  32
ATOM      1  F   UNL     1      11.281   4.261  -1.559  0.00  0.00    -0.166 F 
ATOM      2  F   UNL     1      13.127   3.346  -0.865  0.00  0.00    -0.166 F 
ATOM      3  F   UNL     1      13.049   5.482  -1.266  0.00  0.00    -0.166 F 
ATOM     32  C   UNL     1      12.340   4.451  -0.718  0.00  0.00    +0.417 C 
ENDBRANCH  31  32
ENDBRANCH  22  26
ENDBRANCH  16   7
ENDBRANCH  10  16
TORSDOF 6
ENDMDL
MODEL 3
REMARK VINA RESULT:      -6.4     23.974     26.352
REMARK  Name = 40779881
REMARK  6 active torsions:
REMARK  status: ('A' for Active; 'I' for Inactive)
REMARK    1  A    between atoms: N_6  and  C_15
REMARK    2  A    between atoms: N_7  and  C_16
REMARK    3  A    between atoms: C_9  and  C_15
REMARK    4  A    between atoms: C_10  and  C_16
REMARK    5  A    between atoms: C_22  and  C_26
REMARK    6  A    between atoms: C_31  and  C_32
REMARK                            x       y       z     vdW  Elec       q    Type
REMARK                         _______ _______ _______ _____ _____    ______ ____
ROOT
ATOM      5  N   UNL     1       8.470  11.489   2.660  0.00  0.00    -0.298 NA
ATOM      8  C   UNL     1       8.784  12.352   5.094  0.00  0.00    -0.002 C 
ATOM      9  C   UNL     1       9.983  11.479   4.658  0.00  0.00    +0.023 C 
ATOM     10  C   UNL     1       7.265  11.169   3.473  0.00  0.00    +0.074 C 
ATOM     11  C   UNL     1       7.485  11.536   4.958  0.00  0.00    +0.024 C 
ATOM     12  C   UNL     1       9.677  10.879   3.267  0.00  0.00    +0.090 C 
ATOM     13  C   UNL     1       8.695  13.521   4.095  0.00  0.00    +0.019 C 
ATOM     14  C   UNL     1       8.644  12.961   2.662  0.00  0.00    +0.085 C 
ENDROOT
BRANCH   9  15
ATOM     15  C   UNL     1      10.340  10.395   5.673  0.00  0.00    +0.110 C 
BRANCH  15   6
ATOM      6  N   UNL     1      11.767  10.360   5.868  0.00  0.00    -0.329 N 
ATOM     17  C   UNL     1      12.678  11.261   5.163  0.00  0.00    +0.110 C 
ATOM     18  C   UNL     1      12.484   9.211   6.168  0.00  0.00    +0.033 A 
ATOM     19  C   UNL     1      14.108  10.796   5.504  0.00  0.00    +0.056 C 
ATOM     20  C   UNL     1      13.858   9.396   5.964  0.00  0.00    -0.025 A 
ATOM     21  C   UNL     1      12.016   7.991   6.629  0.00  0.00    +0.023 A 
ATOM     23  C   UNL     1      14.781   8.395   6.215  0.00  0.00    +0.005 A 
ATOM     24  C   UNL     1      12.934   6.966   6.878  0.00  0.00    +0.002 A 
ATOM     25  C   UNL     1      14.307   7.166   6.673  0.00  0.00    +0.000 A 
ENDBRANCH  15   6
ENDBRANCH   9  15
BRANCH  10  16
ATOM     16  C   UNL     1       6.818   9.715   3.308  0.00  0.00    +0.123 C 
BRANCH  16   7
ATOM      4  O   UNL     1       8.565   7.438   3.201  0.00  0.00    -0.270 OA
ATOM      7  N   UNL     1       7.284   8.937   4.424  0.00  0.00    -0.310 N 
ATOM     22  C   UNL     1       8.132   7.846   4.276  0.00  0.00    +0.244 C 
ATOM     33  H   UNL     1       6.916   9.183   5.336  0.00  0.00    +0.149 HD
BRANCH  22  26
ATOM     26  C   UNL     1       8.502   7.132   5.525  0.00  0.00    +0.037 A 
ATOM     27  C   UNL     1       8.320   7.749   6.763  0.00  0.00    +0.013 A 
ATOM     28  C   UNL     1       9.033   5.844   5.459  0.00  0.00    +0.013 A 
ATOM     29  C   UNL     1       8.670   7.077   7.935  0.00  0.00    +0.013 A 
ATOM     30  C   UNL     1       9.383   5.173   6.631  0.00  0.00    +0.013 A 
ATOM     31  C   UNL     1       9.201   5.790   7.869  0.00  0.00    +0.055 A 
BRANCH  31  32
ATOM      1  F   UNL     1       9.751   3.729   8.952  0.00  0.00    -0.166 F 
ATOM      2  F   UNL     1       8.631   5.196  10.099  0.00  0.00    -0.166 F 
ATOM      3  F   UNL     1      10.740   5.516   9.680  0.00  0.00    -0.166 F 
ATOM     32  C   UNL     1       9.575   5.073   9.122  0.00  0.00    +0.417 C 
ENDBRANCH  31  32
ENDBRANCH  22  26
ENDBRANCH  16   7
ENDBRANCH  10  16
TORSDOF 6
ENDMDL
MODEL 4
REMARK VINA RESULT:      -6.4     28.333     31.277
REMARK  Name = 40779881
REMARK  6 active torsions:
REMARK  status: ('A' for Active; 'I' for Inactive)
REMARK    1  A    between atoms: N_6  and  C_15
REMARK    2  A    between atoms: N_7  and  C_16
REMARK    3  A    between atoms: C_9  and  C_15
REMARK    4  A    between atoms: C_10  and  C_16
REMARK    5  A    between atoms: C_22  and  C_26
REMARK    6  A    between atoms: C_31  and  C_32
REMARK                            x       y       z     vdW  Elec       q    Type
REMARK                         _______ _______ _______ _____ _____    ______ ____
ROOT
ATOM      5  N   UNL     1      20.140   7.919  21.890  0.00  0.00    -0.298 NA
ATOM      8  C   UNL     1      21.853   6.151  22.728  0.00  0.00    -0.002 C 
ATOM      9  C   UNL     1      22.497   7.093  21.685  0.00  0.00    +0.023 C 
ATOM     10  C   UNL     1      19.566   6.552  21.759  0.00  0.00    +0.074 C 
ATOM     11  C   UNL     1      20.616   5.475  22.108  0.00  0.00    +0.024 C 
ATOM     12  C   UNL     1      21.402   8.024  21.118  0.00  0.00    +0.090 C 
ATOM     13  C   UNL     1      21.357   7.038  23.885  0.00  0.00    +0.019 C 
ATOM     14  C   UNL     1      20.452   8.148  23.321  0.00  0.00    +0.085 C 
ENDROOT
BRANCH   9  15
ATOM     15  C   UNL     1      23.233   6.347  20.573  0.00  0.00    +0.110 C 
BRANCH  15   6
ATOM      6  N   UNL     1      24.335   5.606  21.131  0.00  0.00    -0.329 N 
ATOM     17  C   UNL     1      25.703   6.121  21.141  0.00  0.00    +0.110 C 
ATOM     18  C   UNL     1      24.423   4.221  21.128  0.00  0.00    +0.033 A 
ATOM     19  C   UNL     1      26.600   4.976  21.653  0.00  0.00    +0.056 C 
ATOM     20  C   UNL     1      25.724   3.789  21.414  0.00  0.00    -0.025 A 
ATOM     21  C   UNL     1      23.423   3.288  20.902  0.00  0.00    +0.023 A 
ATOM     23  C   UNL     1      26.055   2.447  21.486  0.00  0.00    +0.005 A 
ATOM     24  C   UNL     1      23.742   1.928  20.962  0.00  0.00    +0.002 A 
ATOM     25  C   UNL     1      25.049   1.510  21.253  0.00  0.00    +0.000 A 
ENDBRANCH  15   6
ENDBRANCH   9  15
BRANCH  10  16
ATOM     16  C   UNL     1      18.940   6.311  20.383  0.00  0.00    +0.123 C 
BRANCH  16   7
ATOM      4  O   UNL     1      16.878   5.527  18.544  0.00  0.00    -0.270 OA
ATOM      7  N   UNL     1      17.570   6.745  20.394  0.00  0.00    -0.310 N 
ATOM     22  C   UNL     1      16.638   6.311  19.459  0.00  0.00    +0.244 C 
ATOM     33  H   UNL     1      17.317   7.441  21.087  0.00  0.00    +0.149 HD
BRANCH  22  26
ATOM     26  C   UNL     1      15.269   6.872  19.591  0.00  0.00    +0.037 A 
ATOM     27  C   UNL     1      14.569   6.733  20.790  0.00  0.00    +0.013 A 
ATOM     28  C   UNL     1      14.682   7.538  18.515  0.00  0.00    +0.013 A 
ATOM     29  C   UNL     1      13.283   7.259  20.913  0.00  0.00    +0.013 A 
ATOM     30  C   UNL     1      13.396   8.064  18.638  0.00  0.00    +0.013 A 
ATOM     31  C   UNL     1      12.696   7.924  19.837  0.00  0.00    +0.055 A 
BRANCH  31  32
ATOM      1  F   UNL     1      10.493   7.729  20.747  0.00  0.00    -0.166 F 
ATOM      2  F   UNL     1      10.685   8.604  18.767  0.00  0.00    -0.166 F 
ATOM      3  F   UNL     1      11.290   9.733  20.524  0.00  0.00    -0.166 F 
ATOM     32  C   UNL     1      11.321   8.486  19.968  0.00  0.00    +0.417 C 
ENDBRANCH  31  32
ENDBRANCH  22  26
ENDBRANCH  16   7
ENDBRANCH  10  16
TORSDOF 6
ENDMDL
MODEL 5
REMARK VINA RESULT:      -6.3      3.946      7.861
REMARK  Name = 40779881
REMARK  6 active torsions:
REMARK  status: ('A' for Active; 'I' for Inactive)
REMARK    1  A    between atoms: N_6  and  C_15
REMARK    2  A    between atoms: N_7  and  C_16
REMARK    3  A    between atoms: C_9  and  C_15
REMARK    4  A    between atoms: C_10  and  C_16
REMARK    5  A    between atoms: C_22  and  C_26
REMARK    6  A    between atoms: C_31  and  C_32
REMARK                            x       y       z     vdW  Elec       q    Type
REMARK                         _______ _______ _______ _____ _____    ______ ____
ROOT
ATOM      5  N   UNL     1      -6.738 -12.755  18.411  0.00  0.00    -0.298 NA
ATOM      8  C   UNL     1      -5.808 -10.326  18.393  0.00  0.00    -0.002 C 
ATOM      9  C   UNL     1      -7.056 -10.446  17.488  0.00  0.00    +0.023 C 
ATOM     10  C   UNL     1      -5.286 -12.769  18.089  0.00  0.00    +0.074 C 
ATOM     11  C   UNL     1      -4.741 -11.333  17.924  0.00  0.00    +0.024 C 
ATOM     12  C   UNL     1      -7.477 -11.932  17.423  0.00  0.00    +0.090 C 
ATOM     13  C   UNL     1      -6.240 -10.746  19.810  0.00  0.00    +0.019 C 
ATOM     14  C   UNL     1      -6.904 -12.133  19.747  0.00  0.00    +0.085 C 
ENDROOT
BRANCH   9  15
ATOM     15  C   UNL     1      -6.848  -9.858  16.094  0.00  0.00    +0.110 C 
BRANCH  15   6
ATOM      6  N   UNL     1      -8.108  -9.803  15.396  0.00  0.00    -0.329 N 
ATOM     17  C   UNL     1      -8.222 -10.047  13.960  0.00  0.00    +0.110 C 
ATOM     18  C   UNL     1      -9.158  -8.967  15.751  0.00  0.00    +0.033 A 
ATOM     19  C   UNL     1      -9.679  -9.724  13.573  0.00  0.00    +0.056 C 
ATOM     20  C   UNL     1     -10.104  -8.869  14.723  0.00  0.00    -0.025 A 
ATOM     21  C   UNL     1      -9.359  -8.280  16.938  0.00  0.00    +0.023 A 
ATOM     23  C   UNL     1     -11.252  -8.106  14.850  0.00  0.00    +0.005 A 
ATOM     24  C   UNL     1     -10.509  -7.498  17.079  0.00  0.00    +0.002 A 
ATOM     25  C   UNL     1     -11.449  -7.411  16.043  0.00  0.00    +0.000 A 
ENDBRANCH  15   6
ENDBRANCH   9  15
BRANCH  10  16
ATOM     16  C   UNL     1      -4.965 -13.641  16.873  0.00  0.00    +0.123 C 
BRANCH  16   7
ATOM      4  O   UNL     1      -3.344 -14.277  14.589  0.00  0.00    -0.270 OA
ATOM      7  N   UNL     1      -4.729 -12.805  15.728  0.00  0.00    -0.310 N 
ATOM     22  C   UNL     1      -3.926 -13.198  14.664  0.00  0.00    +0.244 C 
ATOM     33  H   UNL     1      -5.131 -11.874  15.752  0.00  0.00    +0.149 HD
BRANCH  22  26
ATOM     26  C   UNL     1      -3.762 -12.209  13.568  0.00  0.00    +0.037 A 
ATOM     27  C   UNL     1      -2.554 -12.129  12.875  0.00  0.00    +0.013 A 
ATOM     28  C   UNL     1      -4.816 -11.359  13.233  0.00  0.00    +0.013 A 
ATOM     29  C   UNL     1      -2.400 -11.198  11.846  0.00  0.00    +0.013 A 
ATOM     30  C   UNL     1      -4.662 -10.429  12.204  0.00  0.00    +0.013 A 
ATOM     31  C   UNL     1      -3.454 -10.349  11.511  0.00  0.00    +0.055 A 
BRANCH  31  32
ATOM      1  F   UNL     1      -2.019  -8.865  10.303  0.00  0.00    -0.166 F 
ATOM      2  F   UNL     1      -4.089  -8.260  10.569  0.00  0.00    -0.166 F 
ATOM      3  F   UNL     1      -3.586  -9.851   9.175  0.00  0.00    -0.166 F 
ATOM     32  C   UNL     1      -3.289  -9.354  10.412  0.00  0.00    +0.417 C 
ENDBRANCH  31  32
ENDBRANCH  22  26
ENDBRANCH  16   7
ENDBRANCH  10  16
TORSDOF 6
ENDMDL
MODEL 6
REMARK VINA RESULT:      -6.3      3.705      6.136
REMARK  Name = 40779881
REMARK  6 active torsions:
REMARK  status: ('A' for Active; 'I' for Inactive)
REMARK    1  A    between atoms: N_6  and  C_15
REMARK    2  A    between atoms: N_7  and  C_16
REMARK    3  A    between atoms: C_9  and  C_15
REMARK    4  A    between atoms: C_10  and  C_16
REMARK    5  A    between atoms: C_22  and  C_26
REMARK    6  A    between atoms: C_31  and  C_32
REMARK                            x       y       z     vdW  Elec       q    Type
REMARK                         _______ _______ _______ _____ _____    ______ ____
ROOT
ATOM      5  N   UNL     1      -5.920 -10.032  10.848  0.00  0.00    -0.298 NA
ATOM      8  C   UNL     1      -4.711  -9.169   8.713  0.00  0.00    -0.002 C 
ATOM      9  C   UNL     1      -5.462 -10.489   8.427  0.00  0.00    +0.023 C 
ATOM     10  C   UNL     1      -4.488  -9.761  11.148  0.00  0.00    +0.074 C 
ATOM     11  C   UNL     1      -3.713  -9.391   9.865  0.00  0.00    +0.024 C 
ATOM     12  C   UNL     1      -6.037 -11.028   9.756  0.00  0.00    +0.090 C 
ATOM     13  C   UNL     1      -5.760  -8.156   9.207  0.00  0.00    +0.019 C 
ATOM     14  C   UNL     1      -6.537  -8.765  10.387  0.00  0.00    +0.085 C 
ENDROOT
BRANCH   9  15
ATOM     15  C   UNL     1      -4.598 -11.534   7.722  0.00  0.00    +0.110 C 
BRANCH  15   6
ATOM      6  N   UNL     1      -4.817 -11.467   6.300  0.00  0.00    -0.329 N 
ATOM     17  C   UNL     1      -6.137 -11.235   5.718  0.00  0.00    +0.110 C 
ATOM     18  C   UNL     1      -4.081 -12.182   5.365  0.00  0.00    +0.033 A 
ATOM     19  C   UNL     1      -5.984 -11.409   4.194  0.00  0.00    +0.056 C 
ATOM     20  C   UNL     1      -4.716 -12.196   4.116  0.00  0.00    -0.025 A 
ATOM     21  C   UNL     1      -2.864 -12.824   5.524  0.00  0.00    +0.023 A 
ATOM     23  C   UNL     1      -4.163 -12.832   3.017  0.00  0.00    +0.005 A 
ATOM     24  C   UNL     1      -2.296 -13.479   4.427  0.00  0.00    +0.002 A 
ATOM     25  C   UNL     1      -2.941 -13.483   3.182  0.00  0.00    +0.000 A 
ENDBRANCH  15   6
ENDBRANCH   9  15
BRANCH  10  16
ATOM     16  C   UNL     1      -3.821 -10.914  11.903  0.00  0.00    +0.123 C 
BRANCH  16   7
ATOM      4  O   UNL     1      -2.304 -10.292  14.261  0.00  0.00    -0.270 OA
ATOM      7  N   UNL     1      -4.295 -10.940  13.260  0.00  0.00    -0.310 N 
ATOM     22  C   UNL     1      -3.485 -10.622  14.343  0.00  0.00    +0.244 C 
ATOM     33  H   UNL     1      -5.245 -11.263  13.405  0.00  0.00    +0.149 HD
BRANCH  22  26
ATOM     26  C   UNL     1      -4.117 -10.721  15.684  0.00  0.00    +0.037 A 
ATOM     27  C   UNL     1      -3.460 -11.388  16.718  0.00  0.00    +0.013 A 
ATOM     28  C   UNL     1      -5.369 -10.149  15.908  0.00  0.00    +0.013 A 
ATOM     29  C   UNL     1      -4.055 -11.482  17.977  0.00  0.00    +0.013 A 
ATOM     30  C   UNL     1      -5.964 -10.243  17.166  0.00  0.00    +0.013 A 
ATOM     31  C   UNL     1      -5.307 -10.909  18.201  0.00  0.00    +0.055 A 
BRANCH  31  32
ATOM      1  F   UNL     1      -6.273  -9.800  20.087  0.00  0.00    -0.166 F 
ATOM      2  F   UNL     1      -5.134 -11.612  20.465  0.00  0.00    -0.166 F 
ATOM      3  F   UNL     1      -7.103 -11.731  19.550  0.00  0.00    -0.166 F 
ATOM     32  C   UNL     1      -5.943 -11.010  19.546  0.00  0.00    +0.417 C 
ENDBRANCH  31  32
ENDBRANCH  22  26
ENDBRANCH  16   7
ENDBRANCH  10  16
TORSDOF 6
ENDMDL
MODEL 7
REMARK VINA RESULT:      -6.3     24.053     26.505
REMARK  Name = 40779881
REMARK  6 active torsions:
REMARK  status: ('A' for Active; 'I' for Inactive)
REMARK    1  A    between atoms: N_6  and  C_15
REMARK    2  A    between atoms: N_7  and  C_16
REMARK    3  A    between atoms: C_9  and  C_15
REMARK    4  A    between atoms: C_10  and  C_16
REMARK    5  A    between atoms: C_22  and  C_26
REMARK    6  A    between atoms: C_31  and  C_32
REMARK                            x       y       z     vdW  Elec       q    Type
REMARK                         _______ _______ _______ _____ _____    ______ ____
ROOT
ATOM      5  N   UNL     1      11.745   5.012  -1.954  0.00  0.00    -0.298 NA
ATOM      8  C   UNL     1       9.439   5.957  -1.208  0.00  0.00    -0.002 C 
ATOM      9  C   UNL     1      10.511   7.071  -1.230  0.00  0.00    +0.023 C 
ATOM     10  C   UNL     1      11.198   4.197  -0.836  0.00  0.00    +0.074 C 
ATOM     11  C   UNL     1       9.903   4.823  -0.274  0.00  0.00    +0.024 C 
ATOM     12  C   UNL     1      11.883   6.429  -1.538  0.00  0.00    +0.090 C 
ATOM     13  C   UNL     1       9.369   5.375  -2.632  0.00  0.00    +0.019 C 
ATOM     14  C   UNL     1      10.779   4.952  -3.077  0.00  0.00    +0.085 C 
ENDROOT
BRANCH   9  15
ATOM     15  C   UNL     1      10.550   7.895   0.055  0.00  0.00    +0.110 C 
BRANCH  15   6
ATOM      6  N   UNL     1       9.270   8.519   0.272  0.00  0.00    -0.329 N 
ATOM     17  C   UNL     1       8.796   9.641  -0.535  0.00  0.00    +0.110 C 
ATOM     18  C   UNL     1       8.655   8.623   1.512  0.00  0.00    +0.033 A 
ATOM     19  C   UNL     1       7.485  10.128   0.115  0.00  0.00    +0.056 C 
ATOM     20  C   UNL     1       7.611   9.556   1.490  0.00  0.00    -0.025 A 
ATOM     21  C   UNL     1       8.938   7.935   2.682  0.00  0.00    +0.023 A 
ATOM     23  C   UNL     1       6.836   9.820   2.606  0.00  0.00    +0.005 A 
ATOM     24  C   UNL     1       8.170   8.197   3.821  0.00  0.00    +0.002 A 
ATOM     25  C   UNL     1       7.126   9.132   3.784  0.00  0.00    +0.000 A 
ENDBRANCH  15   6
ENDBRANCH   9  15
BRANCH  10  16
ATOM     16  C   UNL     1      12.233   3.947   0.265  0.00  0.00    +0.123 C 
BRANCH  16   7
ATOM      4  O   UNL     1      13.158   6.012   2.033  0.00  0.00    -0.270 OA
ATOM      7  N   UNL     1      11.673   4.299   1.541  0.00  0.00    -0.310 N 
ATOM     22  C   UNL     1      12.189   5.317   2.332  0.00  0.00    +0.244 C 
ATOM     33  H   UNL     1      10.907   3.725   1.877  0.00  0.00    +0.149 HD
BRANCH  22  26
ATOM     26  C   UNL     1      11.513   5.541   3.636  0.00  0.00    +0.037 A 
ATOM     27  C   UNL     1      11.884   6.619   4.440  0.00  0.00    +0.013 A 
ATOM     28  C   UNL     1      10.507   4.671   4.057  0.00  0.00    +0.013 A 
ATOM     29  C   UNL     1      11.250   6.827   5.665  0.00  0.00    +0.013 A 
ATOM     30  C   UNL     1       9.873   4.880   5.282  0.00  0.00    +0.013 A 
ATOM     31  C   UNL     1      10.244   5.957   6.086  0.00  0.00    +0.055 A 
BRANCH  31  32
ATOM      1  F   UNL     1       8.445   6.956   7.306  0.00  0.00    -0.166 F 
ATOM      2  F   UNL     1      10.371   6.804   8.303  0.00  0.00    -0.166 F 
ATOM      3  F   UNL     1       9.153   5.027   8.001  0.00  0.00    -0.166 F 
ATOM     32  C   UNL     1       9.566   6.180   7.395  0.00  0.00    +0.417 C 
ENDBRANCH  31  32
ENDBRANCH  22  26
ENDBRANCH  16   7
ENDBRANCH  10  16
TORSDOF 6
ENDMDL
MODEL 8
REMARK VINA RESULT:      -6.3     24.023     26.797
REMARK  Name = 40779881
REMARK  6 active torsions:
REMARK  status: ('A' for Active; 'I' for Inactive)
REMARK    1  A    between atoms: N_6  and  C_15
REMARK    2  A    between atoms: N_7  and  C_16
REMARK    3  A    between atoms: C_9  and  C_15
REMARK    4  A    between atoms: C_10  and  C_16
REMARK    5  A    between atoms: C_22  and  C_26
REMARK    6  A    between atoms: C_31  and  C_32
REMARK                            x       y       z     vdW  Elec       q    Type
REMARK                         _______ _______ _______ _____ _____    ______ ____
ROOT
ATOM      5  N   UNL     1       7.623  11.526   2.596  0.00  0.00    -0.298 NA
ATOM      8  C   UNL     1       7.171   9.425   4.061  0.00  0.00    -0.002 C 
ATOM      9  C   UNL     1       8.276  10.307   4.686  0.00  0.00    +0.023 C 
ATOM     10  C   UNL     1       7.702  10.297   1.761  0.00  0.00    +0.074 C 
ATOM     11  C   UNL     1       7.587   9.027   2.632  0.00  0.00    +0.024 C 
ATOM     12  C   UNL     1       8.602  11.457   3.707  0.00  0.00    +0.090 C 
ATOM     13  C   UNL     1       5.912  10.303   3.942  0.00  0.00    +0.019 C 
ATOM     14  C   UNL     1       6.263  11.594   3.182  0.00  0.00    +0.085 C 
ENDROOT
BRANCH   9  15
ATOM     15  C   UNL     1       9.529   9.522   5.071  0.00  0.00    +0.110 C 
BRANCH  15   6
ATOM      6  N   UNL     1       9.179   8.463   5.983  0.00  0.00    -0.329 N 
ATOM     17  C   UNL     1       9.123   8.660   7.430  0.00  0.00    +0.110 C 
ATOM     18  C   UNL     1       9.465   7.123   5.766  0.00  0.00    +0.033 A 
ATOM     19  C   UNL     1       8.890   7.269   8.054  0.00  0.00    +0.056 C 
ATOM     20  C   UNL     1       9.326   6.373   6.941  0.00  0.00    -0.025 A 
ATOM     21  C   UNL     1       9.832   6.492   4.587  0.00  0.00    +0.023 A 
ATOM     23  C   UNL     1       9.540   5.005   6.971  0.00  0.00    +0.005 A 
ATOM     24  C   UNL     1      10.061   5.113   4.602  0.00  0.00    +0.002 A 
ATOM     25  C   UNL     1       9.916   4.374   5.785  0.00  0.00    +0.000 A 
ENDBRANCH  15   6
ENDBRANCH   9  15
BRANCH  10  16
ATOM     16  C   UNL     1       8.952  10.270   0.879  0.00  0.00    +0.123 C 
BRANCH  16   7
ATOM      4  O   UNL     1      11.522   9.697   2.027  0.00  0.00    -0.270 OA
ATOM      7  N   UNL     1       9.582   8.981   0.975  0.00  0.00    -0.310 N 
ATOM     22  C   UNL     1      10.833   8.797   1.550  0.00  0.00    +0.244 C 
ATOM     33  H   UNL     1       9.094   8.202   0.545  0.00  0.00    +0.149 HD
BRANCH  22  26
ATOM     26  C   UNL     1      11.357   7.407   1.550  0.00  0.00    +0.037 A 
ATOM     27  C   UNL     1      12.610   7.132   2.098  0.00  0.00    +0.013 A 
ATOM     28  C   UNL     1      10.595   6.376   1.000  0.00  0.00    +0.013 A 
ATOM     29  C   UNL     1      13.101   5.827   2.096  0.00  0.00    +0.013 A 
ATOM     30  C   UNL     1      11.086   5.071   0.998  0.00  0.00    +0.013 A 
ATOM     31  C   UNL     1      12.339   4.796   1.546  0.00  0.00    +0.055 A 
BRANCH  31  32
ATOM      1  F   UNL     1      12.148   2.545   2.331  0.00  0.00    -0.166 F 
ATOM      2  F   UNL     1      14.150   3.323   1.996  0.00  0.00    -0.166 F 
ATOM      3  F   UNL     1      12.875   2.821   0.306  0.00  0.00    -0.166 F 
ATOM     32  C   UNL     1      12.865   3.400   1.543  0.00  0.00    +0.417 C 
ENDBRANCH  31  32
ENDBRANCH  22  26
ENDBRANCH  16   7
ENDBRANCH  10  16
TORSDOF 6
ENDMDL
MODEL 9
REMARK VINA RESULT:      -6.2      2.986      6.213
REMARK  Name = 40779881
REMARK  6 active torsions:
REMARK  status: ('A' for Active; 'I' for Inactive)
REMARK    1  A    between atoms: N_6  and  C_15
REMARK    2  A    between atoms: N_7  and  C_16
REMARK    3  A    between atoms: C_9  and  C_15
REMARK    4  A    between atoms: C_10  and  C_16
REMARK    5  A    between atoms: C_22  and  C_26
REMARK    6  A    between atoms: C_31  and  C_32
REMARK                            x       y       z     vdW  Elec       q    Type
REMARK                         _______ _______ _______ _____ _____    ______ ____
ROOT
ATOM      5  N   UNL     1     -11.430  -9.734  17.116  0.00  0.00    -0.298 NA
ATOM      8  C   UNL     1     -10.092  -7.995  15.720  0.00  0.00    -0.002 C 
ATOM      9  C   UNL     1     -10.236  -9.329  14.951  0.00  0.00    +0.023 C 
ATOM     10  C   UNL     1     -10.311  -9.184  17.927  0.00  0.00    +0.074 C 
ATOM     11  C   UNL     1      -9.411  -8.261  17.076  0.00  0.00    +0.024 C 
ATOM     12  C   UNL     1     -10.909 -10.364  15.880  0.00  0.00    +0.090 C 
ATOM     13  C   UNL     1     -11.518  -7.494  16.016  0.00  0.00    +0.019 C 
ATOM     14  C   UNL     1     -12.310  -8.607  16.726  0.00  0.00    +0.085 C 
ENDROOT
BRANCH   9  15
ATOM     15  C   UNL     1      -8.912  -9.848  14.393  0.00  0.00    +0.110 C 
BRANCH  15   6
ATOM      6  N   UNL     1      -8.805  -9.507  12.997  0.00  0.00    -0.329 N 
ATOM     17  C   UNL     1      -9.871  -9.783  12.037  0.00  0.00    +0.110 C 
ATOM     18  C   UNL     1      -7.612  -9.497  12.288  0.00  0.00    +0.033 A 
ATOM     19  C   UNL     1      -9.309  -9.437  10.643  0.00  0.00    +0.056 C 
ATOM     20  C   UNL     1      -7.838  -9.469  10.906  0.00  0.00    -0.025 A 
ATOM     21  C   UNL     1      -6.313  -9.497  12.772  0.00  0.00    +0.023 A 
ATOM     23  C   UNL     1      -6.800  -9.436   9.990  0.00  0.00    +0.005 A 
ATOM     24  C   UNL     1      -5.253  -9.473  11.861  0.00  0.00    +0.002 A 
ATOM     25  C   UNL     1      -5.494  -9.442  10.480  0.00  0.00    +0.000 A 
ENDBRANCH  15   6
ENDBRANCH   9  15
BRANCH  10  16
ATOM     16  C   UNL     1      -9.503 -10.279  18.627  0.00  0.00    +0.123 C 
BRANCH  16   7
ATOM      4  O   UNL     1      -6.990 -10.689  19.955  0.00  0.00    -0.270 OA
ATOM      7  N   UNL     1      -8.212 -10.397  18.005  0.00  0.00    -0.310 N 
ATOM     22  C   UNL     1      -7.044 -10.595  18.731  0.00  0.00    +0.244 C 
ATOM     33  H   UNL     1      -8.177 -10.269  17.000  0.00  0.00    +0.149 HD
BRANCH  22  26
ATOM     26  C   UNL     1      -5.788 -10.672  17.942  0.00  0.00    +0.037 A 
ATOM     27  C   UNL     1      -4.648 -11.252  18.499  0.00  0.00    +0.013 A 
ATOM     28  C   UNL     1      -5.748 -10.161  16.645  0.00  0.00    +0.013 A 
ATOM     29  C   UNL     1      -3.468 -11.322  17.758  0.00  0.00    +0.013 A 
ATOM     30  C   UNL     1      -4.568 -10.231  15.904  0.00  0.00    +0.013 A 
ATOM     31  C   UNL     1      -3.428 -10.812  16.460  0.00  0.00    +0.055 A 
BRANCH  31  32
ATOM      1  F   UNL     1      -1.935 -12.117  15.123  0.00  0.00    -0.166 F 
ATOM      2  F   UNL     1      -1.060 -10.605  16.416  0.00  0.00    -0.166 F 
ATOM      3  F   UNL     1      -2.129 -10.017  14.615  0.00  0.00    -0.166 F 
ATOM     32  C   UNL     1      -2.166 -10.886  15.669  0.00  0.00    +0.417 C 
ENDBRANCH  31  32
ENDBRANCH  22  26
ENDBRANCH  16   7
ENDBRANCH  10  16
TORSDOF 6
ENDMDL
MODEL 10
REMARK VINA RESULT:      -6.2     24.096     26.508
REMARK  Name = 40779881
REMARK  6 active torsions:
REMARK  status: ('A' for Active; 'I' for Inactive)
REMARK    1  A    between atoms: N_6  and  C_15
REMARK    2  A    between atoms: N_7  and  C_16
REMARK    3  A    between atoms: C_9  and  C_15
REMARK    4  A    between atoms: C_10  and  C_16
REMARK    5  A    between atoms: C_22  and  C_26
REMARK    6  A    between atoms: C_31  and  C_32
REMARK                            x       y       z     vdW  Elec       q    Type
REMARK                         _______ _______ _______ _____ _____    ______ ____
ROOT
ATOM      5  N   UNL     1       9.908   9.627   0.111  0.00  0.00    -0.298 NA
ATOM      8  C   UNL     1      11.784   9.879   1.895  0.00  0.00    -0.002 C 
ATOM      9  C   UNL     1      11.949   8.563   1.102  0.00  0.00    +0.023 C 
ATOM     10  C   UNL     1       9.308   9.902   1.444  0.00  0.00    +0.074 C 
ATOM     11  C   UNL     1      10.389   9.908   2.548  0.00  0.00    +0.024 C 
ATOM     12  C   UNL     1      10.734   8.397   0.162  0.00  0.00    +0.090 C 
ATOM     13  C   UNL     1      11.831  11.028   0.871  0.00  0.00    +0.019 C 
ATOM     14  C   UNL     1      10.794  10.765  -0.235  0.00  0.00    +0.085 C 
ENDROOT
BRANCH   9  15
ATOM     15  C   UNL     1      12.140   7.340   1.997  0.00  0.00    +0.110 C 
BRANCH  15   6
ATOM      6  N   UNL     1      13.285   7.535   2.850  0.00  0.00    -0.329 N 
ATOM     17  C   UNL     1      14.640   7.171   2.442  0.00  0.00    +0.110 C 
ATOM     18  C   UNL     1      13.244   7.462   4.236  0.00  0.00    +0.033 A 
ATOM     19  C   UNL     1      15.540   7.367   3.679  0.00  0.00    +0.056 C 
ATOM     20  C   UNL     1      14.530   7.350   4.780  0.00  0.00    -0.025 A 
ATOM     21  C   UNL     1      12.143   7.501   5.076  0.00  0.00    +0.023 A 
ATOM     23  C   UNL     1      14.747   7.281   6.146  0.00  0.00    +0.005 A 
ATOM     24  C   UNL     1      12.344   7.422   6.457  0.00  0.00    +0.002 A 
ATOM     25  C   UNL     1      13.636   7.314   6.989  0.00  0.00    +0.000 A 
ENDBRANCH  15   6
ENDBRANCH   9  15
BRANCH  10  16
ATOM     16  C   UNL     1       8.161   8.945   1.777  0.00  0.00    +0.123 C 
BRANCH  16   7
ATOM      4  O   UNL     1       6.989   9.304   4.374  0.00  0.00    -0.270 OA
ATOM      7  N   UNL     1       8.477   8.210   2.971  0.00  0.00    -0.310 N 
ATOM     22  C   UNL     1       7.856   8.453   4.189  0.00  0.00    +0.244 C 
ATOM     33  H   UNL     1       9.229   7.532   2.903  0.00  0.00    +0.149 HD
BRANCH  22  26
ATOM     26  C   UNL     1       8.313   7.624   5.334  0.00  0.00    +0.037 A 
ATOM     27  C   UNL     1       8.447   8.195   6.600  0.00  0.00    +0.013 A 
ATOM     28  C   UNL     1       8.609   6.275   5.143  0.00  0.00    +0.013 A 
ATOM     29  C   UNL     1       8.878   7.416   7.674  0.00  0.00    +0.013 A 
ATOM     30  C   UNL     1       9.040   5.496   6.217  0.00  0.00    +0.013 A 
ATOM     31  C   UNL     1       9.174   6.066   7.483  0.00  0.00    +0.055 A 
BRANCH  31  32
ATOM      1  F   UNL     1      10.751   5.723   9.248  0.00  0.00    -0.166 F 
ATOM      2  F   UNL     1       9.950   3.959   8.262  0.00  0.00    -0.166 F 
ATOM      3  F   UNL     1       8.706   5.110   9.625  0.00  0.00    -0.166 F 
ATOM     32  C   UNL     1       9.635   5.234   8.631  0.00  0.00    +0.417 C 
ENDBRANCH  31  32
ENDBRANCH  22  26
ENDBRANCH  16   7
ENDBRANCH  10  16
TORSDOF 6
ENDMDL
