MODEL 1
REMARK VINA RESULT:      -7.5      0.000      0.000
REMARK  Name = 51137233
REMARK  6 active torsions:
REMARK  status: ('A' for Active; 'I' for Inactive)
REMARK    1  A    between atoms: O_3  and  C_24
REMARK    2  A    between atoms: N_5  and  C_12
REMARK    3  A    between atoms: C_8  and  C_13
REMARK    4  A    between atoms: C_12  and  C_14
REMARK    5  A    between atoms: C_17  and  C_20
REMARK    6  A    between atoms: C_21  and  C_24
REMARK                            x       y       z     vdW  Elec       q    Type
REMARK                         _______ _______ _______ _____ _____    ______ ____
ROOT
ATOM      5  N   UNL     1      16.583   7.573  20.015  0.00  0.00    -0.297 NA
ATOM      8  C   UNL     1      18.807   6.924  20.378  0.00  0.00    +0.092 C 
ATOM      9  C   UNL     1      18.102   5.877  19.498  0.00  0.00    +0.029 C 
ATOM     10  C   UNL     1      17.667   7.754  20.983  0.00  0.00    +0.097 C 
ATOM     11  C   UNL     1      16.614   6.151  19.676  0.00  0.00    +0.085 C 
ENDROOT
BRANCH   8  13
ATOM      2  O   UNL     1      20.509   5.295  21.046  0.00  0.00    -0.420 OA
ATOM      6  N   UNL     1      19.928   6.724  22.666  0.00  0.00    -0.112 NA
ATOM      7  N   UNL     1      20.886   5.869  23.175  0.00  0.00    -0.107 NA
ATOM     13  C   UNL     1      19.739   6.353  21.422  0.00  0.00    +0.222 A 
ATOM     17  C   UNL     1      21.196   5.051  22.196  0.00  0.00    +0.248 A 
BRANCH  17  20
ATOM      1 CL   UNL     1      25.064   0.541  22.007  0.00  0.00    -0.084 Cl
ATOM     20  C   UNL     1      22.129   3.963  22.150  0.00  0.00    +0.039 A 
ATOM     22  C   UNL     1      22.517   3.327  23.329  0.00  0.00    +0.014 A 
ATOM     23  C   UNL     1      22.649   3.541  20.927  0.00  0.00    +0.014 A 
ATOM     25  C   UNL     1      23.425   2.269  23.286  0.00  0.00    +0.021 A 
ATOM     26  C   UNL     1      23.556   2.482  20.882  0.00  0.00    +0.021 A 
ATOM     27  C   UNL     1      23.944   1.846  22.062  0.00  0.00    +0.041 A 
ENDBRANCH  17  20
ENDBRANCH   8  13
BRANCH   5  12
ATOM     12  C   UNL     1      15.292   7.989  20.543  0.00  0.00    +0.119 C 
BRANCH  12  14
ATOM     14  C   UNL     1      14.273   8.174  19.450  0.00  0.00    -0.033 A 
ATOM     15  C   UNL     1      14.573   8.968  18.344  0.00  0.00    +0.006 A 
ATOM     16  C   UNL     1      13.028   7.550  19.544  0.00  0.00    +0.006 A 
ATOM     18  C   UNL     1      13.630   9.140  17.332  0.00  0.00    +0.015 A 
ATOM     19  C   UNL     1      12.085   7.722  18.531  0.00  0.00    +0.015 A 
ATOM     21  C   UNL     1      12.385   8.517  17.425  0.00  0.00    +0.059 A 
BRANCH  21  24
ATOM      4  O   UNL     1      11.577   9.332  15.326  0.00  0.00    -0.245 OA
ATOM     24  C   UNL     1      11.401   8.695  16.369  0.00  0.00    +0.337 C 
BRANCH  24   3
ATOM      3  O   UNL     1      10.222   8.071  16.646  0.00  0.00    -0.477 OA
ATOM     28  H   UNL     1       9.832   8.386  17.489  0.00  0.00    +0.295 HD
ENDBRANCH  24   3
ENDBRANCH  21  24
ENDBRANCH  12  14
ENDBRANCH   5  12
TORSDOF 6
ENDMDL
MODEL 2
REMARK VINA RESULT:      -7.3     30.676     34.264
REMARK  Name = 51137233
REMARK  6 active torsions:
REMARK  status: ('A' for Active; 'I' for Inactive)
REMARK    1  A    between atoms: O_3  and  C_24
REMARK    2  A    between atoms: N_5  and  C_12
REMARK    3  A    between atoms: C_8  and  C_13
REMARK    4  A    between atoms: C_12  and  C_14
REMARK    5  A    between atoms: C_17  and  C_20
REMARK    6  A    between atoms: C_21  and  C_24
REMARK                            x       y       z     vdW  Elec       q    Type
REMARK                         _______ _______ _______ _____ _____    ______ ____
ROOT
ATOM      5  N   UNL     1     -16.919   3.125  26.565  0.00  0.00    -0.297 NA
ATOM      8  C   UNL     1     -16.311   4.704  24.942  0.00  0.00    +0.092 C 
ATOM      9  C   UNL     1     -17.835   4.489  24.907  0.00  0.00    +0.029 C 
ATOM     10  C   UNL     1     -15.770   3.513  25.745  0.00  0.00    +0.097 C 
ATOM     11  C   UNL     1     -18.066   3.186  25.660  0.00  0.00    +0.085 C 
ENDROOT
BRANCH   8  13
ATOM      2  O   UNL     1     -14.866   5.936  23.395  0.00  0.00    -0.420 OA
ATOM      6  N   UNL     1     -15.738   4.065  22.535  0.00  0.00    -0.112 NA
ATOM      7  N   UNL     1     -14.951   4.655  21.564  0.00  0.00    -0.107 NA
ATOM     13  C   UNL     1     -15.659   4.846  23.586  0.00  0.00    +0.222 A 
ATOM     17  C   UNL     1     -14.463   5.744  22.110  0.00  0.00    +0.248 A 
BRANCH  17  20
ATOM      1 CL   UNL     1     -10.831   9.890  19.882  0.00  0.00    -0.084 Cl
ATOM     20  C   UNL     1     -13.586   6.744  21.572  0.00  0.00    +0.039 A 
ATOM     22  C   UNL     1     -13.959   8.088  21.604  0.00  0.00    +0.014 A 
ATOM     23  C   UNL     1     -12.362   6.374  21.017  0.00  0.00    +0.014 A 
ATOM     25  C   UNL     1     -13.108   9.061  21.082  0.00  0.00    +0.021 A 
ATOM     26  C   UNL     1     -11.509   7.346  20.495  0.00  0.00    +0.021 A 
ATOM     27  C   UNL     1     -11.883   8.690  20.527  0.00  0.00    +0.041 A 
ENDBRANCH  17  20
ENDBRANCH   8  13
BRANCH   5  12
ATOM     12  C   UNL     1     -16.754   1.808  27.163  0.00  0.00    +0.119 C 
BRANCH  12  14
ATOM     14  C   UNL     1     -16.065   1.881  28.500  0.00  0.00    -0.033 A 
ATOM     15  C   UNL     1     -15.751   0.709  29.187  0.00  0.00    +0.006 A 
ATOM     16  C   UNL     1     -15.740   3.121  29.050  0.00  0.00    +0.006 A 
ATOM     18  C   UNL     1     -15.114   0.777  30.426  0.00  0.00    +0.015 A 
ATOM     19  C   UNL     1     -15.103   3.189  30.288  0.00  0.00    +0.015 A 
ATOM     21  C   UNL     1     -14.789   2.017  30.977  0.00  0.00    +0.059 A 
BRANCH  21  24
ATOM      4  O   UNL     1     -14.652   1.855  33.360  0.00  0.00    -0.245 OA
ATOM     24  C   UNL     1     -14.123   2.088  32.268  0.00  0.00    +0.337 C 
BRANCH  24   3
ATOM      3  O   UNL     1     -12.815   2.449  32.160  0.00  0.00    -0.477 OA
ATOM     28  H   UNL     1     -12.259   2.009  32.838  0.00  0.00    +0.295 HD
ENDBRANCH  24   3
ENDBRANCH  21  24
ENDBRANCH  12  14
ENDBRANCH   5  12
TORSDOF 6
ENDMDL
MODEL 3
REMARK VINA RESULT:      -7.2     27.374     29.914
REMARK  Name = 51137233
REMARK  6 active torsions:
REMARK  status: ('A' for Active; 'I' for Inactive)
REMARK    1  A    between atoms: O_3  and  C_24
REMARK    2  A    between atoms: N_5  and  C_12
REMARK    3  A    between atoms: C_8  and  C_13
REMARK    4  A    between atoms: C_12  and  C_14
REMARK    5  A    between atoms: C_17  and  C_20
REMARK    6  A    between atoms: C_21  and  C_24
REMARK                            x       y       z     vdW  Elec       q    Type
REMARK                         _______ _______ _______ _____ _____    ______ ____
ROOT
ATOM      5  N   UNL     1      -2.071 -11.003  14.019  0.00  0.00    -0.297 NA
ATOM      8  C   UNL     1      -3.202 -10.339  15.963  0.00  0.00    +0.092 C 
ATOM      9  C   UNL     1      -1.725 -10.616  16.296  0.00  0.00    +0.029 C 
ATOM     10  C   UNL     1      -3.419 -10.990  14.590  0.00  0.00    +0.097 C 
ATOM     11  C   UNL     1      -1.201 -11.425  15.117  0.00  0.00    +0.085 C 
ENDROOT
BRANCH   8  13
ATOM      2  O   UNL     1      -5.449 -10.310  16.936  0.00  0.00    -0.420 OA
ATOM      6  N   UNL     1      -4.016 -11.665  17.990  0.00  0.00    -0.112 NA
ATOM      7  N   UNL     1      -5.234 -11.745  18.638  0.00  0.00    -0.107 NA
ATOM     13  C   UNL     1      -4.187 -10.817  17.005  0.00  0.00    +0.222 A 
ATOM     17  C   UNL     1      -6.040 -10.938  17.990  0.00  0.00    +0.248 A 
BRANCH  17  20
ATOM      1 CL   UNL     1     -11.763  -9.621  18.916  0.00  0.00    -0.084 Cl
ATOM     20  C   UNL     1      -7.420 -10.621  18.214  0.00  0.00    +0.039 A 
ATOM     22  C   UNL     1      -8.060  -9.684  17.403  0.00  0.00    +0.014 A 
ATOM     23  C   UNL     1      -8.123 -11.248  19.242  0.00  0.00    +0.014 A 
ATOM     25  C   UNL     1      -9.403  -9.374  17.619  0.00  0.00    +0.021 A 
ATOM     26  C   UNL     1      -9.466 -10.940  19.459  0.00  0.00    +0.021 A 
ATOM     27  C   UNL     1     -10.106 -10.003  18.647  0.00  0.00    +0.041 A 
ENDBRANCH  17  20
ENDBRANCH   8  13
BRANCH   5  12
ATOM     12  C   UNL     1      -1.967 -11.879  12.861  0.00  0.00    +0.119 C 
BRANCH  12  14
ATOM     14  C   UNL     1      -2.707 -11.325  11.672  0.00  0.00    -0.033 A 
ATOM     15  C   UNL     1      -2.545  -9.988  11.312  0.00  0.00    +0.006 A 
ATOM     16  C   UNL     1      -3.554 -12.149  10.931  0.00  0.00    +0.006 A 
ATOM     18  C   UNL     1      -3.230  -9.474  10.211  0.00  0.00    +0.015 A 
ATOM     19  C   UNL     1      -4.239 -11.636   9.830  0.00  0.00    +0.015 A 
ATOM     21  C   UNL     1      -4.077 -10.298   9.470  0.00  0.00    +0.059 A 
BRANCH  21  24
ATOM      4  O   UNL     1      -5.056 -10.387   7.289  0.00  0.00    -0.245 OA
ATOM     24  C   UNL     1      -4.791  -9.763   8.321  0.00  0.00    +0.337 C 
BRANCH  24   3
ATOM      3  O   UNL     1      -5.156  -8.462   8.494  0.00  0.00    -0.477 OA
ATOM     28  H   UNL     1      -5.068  -7.946   7.664  0.00  0.00    +0.295 HD
ENDBRANCH  24   3
ENDBRANCH  21  24
ENDBRANCH  12  14
ENDBRANCH   5  12
TORSDOF 6
ENDMDL
MODEL 4
REMARK VINA RESULT:      -7.2      4.154      5.674
REMARK  Name = 51137233
REMARK  6 active torsions:
REMARK  status: ('A' for Active; 'I' for Inactive)
REMARK    1  A    between atoms: O_3  and  C_24
REMARK    2  A    between atoms: N_5  and  C_12
REMARK    3  A    between atoms: C_8  and  C_13
REMARK    4  A    between atoms: C_12  and  C_14
REMARK    5  A    between atoms: C_17  and  C_20
REMARK    6  A    between atoms: C_21  and  C_24
REMARK                            x       y       z     vdW  Elec       q    Type
REMARK                         _______ _______ _______ _____ _____    ______ ____
ROOT
ATOM      5  N   UNL     1      12.495   8.628  19.263  0.00  0.00    -0.297 NA
ATOM      8  C   UNL     1      14.728   8.145  18.736  0.00  0.00    +0.092 C 
ATOM      9  C   UNL     1      13.841   7.887  17.505  0.00  0.00    +0.029 C 
ATOM     10  C   UNL     1      13.745   8.230  19.912  0.00  0.00    +0.097 C 
ATOM     11  C   UNL     1      12.421   7.811  18.052  0.00  0.00    +0.085 C 
ENDROOT
BRANCH   8  13
ATOM      2  O   UNL     1      16.780   7.439  19.870  0.00  0.00    -0.420 OA
ATOM      6  N   UNL     1      16.001   5.957  18.387  0.00  0.00    -0.112 NA
ATOM      7  N   UNL     1      17.152   5.435  18.946  0.00  0.00    -0.107 NA
ATOM     13  C   UNL     1      15.822   7.126  18.955  0.00  0.00    +0.222 A 
ATOM     17  C   UNL     1      17.573   6.334  19.806  0.00  0.00    +0.248 A 
BRANCH  17  20
ATOM      1 CL   UNL     1      22.309   6.327  23.399  0.00  0.00    -0.084 Cl
ATOM     20  C   UNL     1      18.716   6.331  20.672  0.00  0.00    +0.039 A 
ATOM     22  C   UNL     1      18.771   7.210  21.754  0.00  0.00    +0.014 A 
ATOM     23  C   UNL     1      19.771   5.451  20.434  0.00  0.00    +0.014 A 
ATOM     25  C   UNL     1      19.882   7.210  22.598  0.00  0.00    +0.021 A 
ATOM     26  C   UNL     1      20.882   5.450  21.277  0.00  0.00    +0.021 A 
ATOM     27  C   UNL     1      20.937   6.329  22.359  0.00  0.00    +0.041 A 
ENDBRANCH  17  20
ENDBRANCH   8  13
BRANCH   5  12
ATOM     12  C   UNL     1      11.338   8.444  20.127  0.00  0.00    +0.119 C 
BRANCH  12  14
ATOM     14  C   UNL     1      11.290   9.472  21.227  0.00  0.00    -0.033 A 
ATOM     15  C   UNL     1      11.737  10.771  20.985  0.00  0.00    +0.006 A 
ATOM     16  C   UNL     1      10.799   9.126  22.486  0.00  0.00    +0.006 A 
ATOM     18  C   UNL     1      11.693  11.723  22.003  0.00  0.00    +0.015 A 
ATOM     19  C   UNL     1      10.755  10.078  23.503  0.00  0.00    +0.015 A 
ATOM     21  C   UNL     1      11.203  11.378  23.262  0.00  0.00    +0.059 A 
BRANCH  21  24
ATOM      4  O   UNL     1      10.395  12.344  25.296  0.00  0.00    -0.245 OA
ATOM     24  C   UNL     1      11.156  12.371  24.324  0.00  0.00    +0.337 C 
BRANCH  24   3
ATOM      3  O   UNL     1      12.063  13.370  24.142  0.00  0.00    -0.477 OA
ATOM     28  H   UNL     1      12.975  13.021  24.045  0.00  0.00    +0.295 HD
ENDBRANCH  24   3
ENDBRANCH  21  24
ENDBRANCH  12  14
ENDBRANCH   5  12
TORSDOF 6
ENDMDL
MODEL 5
REMARK VINA RESULT:      -7.0     30.340     33.481
REMARK  Name = 51137233
REMARK  6 active torsions:
REMARK  status: ('A' for Active; 'I' for Inactive)
REMARK    1  A    between atoms: O_3  and  C_24
REMARK    2  A    between atoms: N_5  and  C_12
REMARK    3  A    between atoms: C_8  and  C_13
REMARK    4  A    between atoms: C_12  and  C_14
REMARK    5  A    between atoms: C_17  and  C_20
REMARK    6  A    between atoms: C_21  and  C_24
REMARK                            x       y       z     vdW  Elec       q    Type
REMARK                         _______ _______ _______ _____ _____    ______ ____
ROOT
ATOM      5  N   UNL     1     -15.125   5.489  22.435  0.00  0.00    -0.297 NA
ATOM      8  C   UNL     1     -16.064   3.601  23.460  0.00  0.00    +0.092 C 
ATOM      9  C   UNL     1     -17.082   4.216  22.484  0.00  0.00    +0.029 C 
ATOM     10  C   UNL     1     -15.007   4.695  23.659  0.00  0.00    +0.097 C 
ATOM     11  C   UNL     1     -16.564   5.622  22.209  0.00  0.00    +0.085 C 
ENDROOT
BRANCH   8  13
ATOM      2  O   UNL     1     -15.808   3.024  25.827  0.00  0.00    -0.420 OA
ATOM      6  N   UNL     1     -17.879   2.731  25.035  0.00  0.00    -0.112 NA
ATOM      7  N   UNL     1     -17.878   2.371  26.369  0.00  0.00    -0.107 NA
ATOM     13  C   UNL     1     -16.652   3.105  24.762  0.00  0.00    +0.222 A 
ATOM     17  C   UNL     1     -16.648   2.557  26.790  0.00  0.00    +0.248 A 
BRANCH  17  20
ATOM      1 CL   UNL     1     -14.228   1.703  32.152  0.00  0.00    -0.084 Cl
ATOM     20  C   UNL     1     -16.065   2.350  28.084  0.00  0.00    +0.039 A 
ATOM     22  C   UNL     1     -15.478   3.419  28.762  0.00  0.00    +0.014 A 
ATOM     23  C   UNL     1     -16.082   1.082  28.664  0.00  0.00    +0.014 A 
ATOM     25  C   UNL     1     -14.910   3.219  30.021  0.00  0.00    +0.021 A 
ATOM     26  C   UNL     1     -15.515   0.882  29.922  0.00  0.00    +0.021 A 
ATOM     27  C   UNL     1     -14.929   1.951  30.600  0.00  0.00    +0.041 A 
ENDBRANCH  17  20
ENDBRANCH   8  13
BRANCH   5  12
ATOM     12  C   UNL     1     -14.460   6.779  22.543  0.00  0.00    +0.119 C 
BRANCH  12  14
ATOM     14  C   UNL     1     -13.651   7.097  21.312  0.00  0.00    -0.033 A 
ATOM     15  C   UNL     1     -12.331   6.659  21.214  0.00  0.00    +0.006 A 
ATOM     16  C   UNL     1     -14.223   7.831  20.273  0.00  0.00    +0.006 A 
ATOM     18  C   UNL     1     -11.582   6.953  20.075  0.00  0.00    +0.015 A 
ATOM     19  C   UNL     1     -13.474   8.126  19.134  0.00  0.00    +0.015 A 
ATOM     21  C   UNL     1     -12.153   7.687  19.035  0.00  0.00    +0.059 A 
BRANCH  21  24
ATOM      4  O   UNL     1     -11.402   9.063  17.228  0.00  0.00    -0.245 OA
ATOM     24  C   UNL     1     -11.373   7.994  17.846  0.00  0.00    +0.337 C 
BRANCH  24   3
ATOM      3  O   UNL     1     -10.577   6.958  17.464  0.00  0.00    -0.477 OA
ATOM     28  H   UNL     1      -9.665   7.256  17.258  0.00  0.00    +0.295 HD
ENDBRANCH  24   3
ENDBRANCH  21  24
ENDBRANCH  12  14
ENDBRANCH   5  12
TORSDOF 6
ENDMDL
MODEL 6
REMARK VINA RESULT:      -6.9      3.050      4.355
REMARK  Name = 51137233
REMARK  6 active torsions:
REMARK  status: ('A' for Active; 'I' for Inactive)
REMARK    1  A    between atoms: O_3  and  C_24
REMARK    2  A    between atoms: N_5  and  C_12
REMARK    3  A    between atoms: C_8  and  C_13
REMARK    4  A    between atoms: C_12  and  C_14
REMARK    5  A    between atoms: C_17  and  C_20
REMARK    6  A    between atoms: C_21  and  C_24
REMARK                            x       y       z     vdW  Elec       q    Type
REMARK                         _______ _______ _______ _____ _____    ______ ____
ROOT
ATOM      5  N   UNL     1      12.533   8.004  20.149  0.00  0.00    -0.297 NA
ATOM      8  C   UNL     1      14.392   6.630  20.542  0.00  0.00    +0.092 C 
ATOM      9  C   UNL     1      14.297   7.696  21.647  0.00  0.00    +0.029 C 
ATOM     10  C   UNL     1      13.471   7.144  19.426  0.00  0.00    +0.097 C 
ATOM     11  C   UNL     1      13.360   8.760  21.089  0.00  0.00    +0.085 C 
ENDROOT
BRANCH   8  13
ATOM      2  O   UNL     1      16.799   6.486  20.967  0.00  0.00    -0.420 OA
ATOM      6  N   UNL     1      16.208   5.952  18.877  0.00  0.00    -0.112 NA
ATOM      7  N   UNL     1      17.581   5.829  18.976  0.00  0.00    -0.107 NA
ATOM     13  C   UNL     1      15.794   6.337  20.060  0.00  0.00    +0.222 A 
ATOM     17  C   UNL     1      17.882   6.151  20.213  0.00  0.00    +0.248 A 
BRANCH  17  20
ATOM      1 CL   UNL     1      23.141   6.364  22.977  0.00  0.00    -0.084 Cl
ATOM     20  C   UNL     1      19.151   6.203  20.880  0.00  0.00    +0.039 A 
ATOM     22  C   UNL     1      20.191   5.373  20.464  0.00  0.00    +0.014 A 
ATOM     23  C   UNL     1      19.344   7.083  21.945  0.00  0.00    +0.014 A 
ATOM     25  C   UNL     1      21.425   5.422  21.112  0.00  0.00    +0.021 A 
ATOM     26  C   UNL     1      20.578   7.133  22.593  0.00  0.00    +0.021 A 
ATOM     27  C   UNL     1      21.619   6.302  22.177  0.00  0.00    +0.041 A 
ENDBRANCH  17  20
ENDBRANCH   8  13
BRANCH   5  12
ATOM     12  C   UNL     1      11.774   8.870  19.258  0.00  0.00    +0.119 C 
BRANCH  12  14
ATOM     14  C   UNL     1      12.618   9.380  18.119  0.00  0.00    -0.033 A 
ATOM     15  C   UNL     1      13.536  10.406  18.339  0.00  0.00    +0.006 A 
ATOM     16  C   UNL     1      12.481   8.826  16.847  0.00  0.00    +0.006 A 
ATOM     18  C   UNL     1      14.318  10.879  17.285  0.00  0.00    +0.015 A 
ATOM     19  C   UNL     1      13.263   9.299  15.793  0.00  0.00    +0.015 A 
ATOM     21  C   UNL     1      14.181  10.326  16.012  0.00  0.00    +0.059 A 
BRANCH  21  24
ATOM      4  O   UNL     1      15.294  12.001  14.716  0.00  0.00    -0.245 OA
ATOM     24  C   UNL     1      14.996  10.818  14.912  0.00  0.00    +0.337 C 
BRANCH  24   3
ATOM      3  O   UNL     1      15.418   9.820  14.089  0.00  0.00    -0.477 OA
ATOM     28  H   UNL     1      14.983   9.863  13.211  0.00  0.00    +0.295 HD
ENDBRANCH  24   3
ENDBRANCH  21  24
ENDBRANCH  12  14
ENDBRANCH   5  12
TORSDOF 6
ENDMDL
MODEL 7
REMARK VINA RESULT:      -6.9     30.505     33.171
REMARK  Name = 51137233
REMARK  6 active torsions:
REMARK  status: ('A' for Active; 'I' for Inactive)
REMARK    1  A    between atoms: O_3  and  C_24
REMARK    2  A    between atoms: N_5  and  C_12
REMARK    3  A    between atoms: C_8  and  C_13
REMARK    4  A    between atoms: C_12  and  C_14
REMARK    5  A    between atoms: C_17  and  C_20
REMARK    6  A    between atoms: C_21  and  C_24
REMARK                            x       y       z     vdW  Elec       q    Type
REMARK                         _______ _______ _______ _____ _____    ______ ____
ROOT
ATOM      5  N   UNL     1     -13.267   7.354  33.358  0.00  0.00    -0.297 NA
ATOM      8  C   UNL     1     -11.603   8.786  32.532  0.00  0.00    +0.092 C 
ATOM      9  C   UNL     1     -11.946   9.176  33.981  0.00  0.00    +0.029 C 
ATOM     10  C   UNL     1     -12.762   7.882  32.089  0.00  0.00    +0.097 C 
ATOM     11  C   UNL     1     -13.281   8.502  34.264  0.00  0.00    +0.085 C 
ENDROOT
BRANCH   8  13
ATOM      2  O   UNL     1     -11.588   9.729  30.272  0.00  0.00    -0.420 OA
ATOM      6  N   UNL     1     -10.989  11.176  31.869  0.00  0.00    -0.112 NA
ATOM      7  N   UNL     1     -10.937  11.835  30.655  0.00  0.00    -0.107 NA
ATOM     13  C   UNL     1     -11.373   9.952  31.598  0.00  0.00    +0.222 A 
ATOM     17  C   UNL     1     -11.294  10.952  29.752  0.00  0.00    +0.248 A 
BRANCH  17  20
ATOM      1 CL   UNL     1     -11.815  11.454  23.851  0.00  0.00    -0.084 Cl
ATOM     20  C   UNL     1     -11.420  11.074  28.328  0.00  0.00    +0.039 A 
ATOM     22  C   UNL     1     -10.715  10.210  27.490  0.00  0.00    +0.014 A 
ATOM     23  C   UNL     1     -12.247  12.055  27.782  0.00  0.00    +0.014 A 
ATOM     25  C   UNL     1     -10.836  10.328  26.105  0.00  0.00    +0.021 A 
ATOM     26  C   UNL     1     -12.370  12.172  26.397  0.00  0.00    +0.021 A 
ATOM     27  C   UNL     1     -11.664  11.309  25.559  0.00  0.00    +0.041 A 
ENDBRANCH  17  20
ENDBRANCH   8  13
BRANCH   5  12
ATOM     12  C   UNL     1     -14.579   6.739  33.220  0.00  0.00    +0.119 C 
BRANCH  12  14
ATOM     14  C   UNL     1     -14.522   5.473  32.406  0.00  0.00    -0.033 A 
ATOM     15  C   UNL     1     -13.598   4.479  32.730  0.00  0.00    +0.006 A 
ATOM     16  C   UNL     1     -15.391   5.295  31.331  0.00  0.00    +0.006 A 
ATOM     18  C   UNL     1     -13.545   3.306  31.977  0.00  0.00    +0.015 A 
ATOM     19  C   UNL     1     -15.338   4.122  30.578  0.00  0.00    +0.015 A 
ATOM     21  C   UNL     1     -14.414   3.127  30.900  0.00  0.00    +0.059 A 
BRANCH  21  24
ATOM      4  O   UNL     1     -15.337   1.260  29.725  0.00  0.00    -0.245 OA
ATOM     24  C   UNL     1     -14.359   1.905  30.115  0.00  0.00    +0.337 C 
BRANCH  24   3
ATOM      3  O   UNL     1     -13.082   1.520  29.839  0.00  0.00    -0.477 OA
ATOM     28  H   UNL     1     -12.620   2.174  29.271  0.00  0.00    +0.295 HD
ENDBRANCH  24   3
ENDBRANCH  21  24
ENDBRANCH  12  14
ENDBRANCH   5  12
TORSDOF 6
ENDMDL
MODEL 8
REMARK VINA RESULT:      -6.8      3.651      4.738
REMARK  Name = 51137233
REMARK  6 active torsions:
REMARK  status: ('A' for Active; 'I' for Inactive)
REMARK    1  A    between atoms: O_3  and  C_24
REMARK    2  A    between atoms: N_5  and  C_12
REMARK    3  A    between atoms: C_8  and  C_13
REMARK    4  A    between atoms: C_12  and  C_14
REMARK    5  A    between atoms: C_17  and  C_20
REMARK    6  A    between atoms: C_21  and  C_24
REMARK                            x       y       z     vdW  Elec       q    Type
REMARK                         _______ _______ _______ _____ _____    ______ ____
ROOT
ATOM      5  N   UNL     1      13.414   8.204  19.245  0.00  0.00    -0.297 NA
ATOM      8  C   UNL     1      15.534   7.272  19.616  0.00  0.00    +0.092 C 
ATOM      9  C   UNL     1      14.501   6.580  20.523  0.00  0.00    +0.029 C 
ATOM     10  C   UNL     1      14.833   8.549  19.134  0.00  0.00    +0.097 C 
ATOM     11  C   UNL     1      13.295   7.510  20.527  0.00  0.00    +0.085 C 
ENDROOT
BRANCH   8  13
ATOM      2  O   UNL     1      17.702   6.478  20.433  0.00  0.00    -0.420 OA
ATOM      6  N   UNL     1      17.370   8.672  20.712  0.00  0.00    -0.112 NA
ATOM      7  N   UNL     1      18.620   8.363  21.213  0.00  0.00    -0.107 NA
ATOM     13  C   UNL     1      16.871   7.543  20.268  0.00  0.00    +0.222 A 
ATOM     17  C   UNL     1      18.771   7.072  21.029  0.00  0.00    +0.248 A 
BRANCH  17  20
ATOM      1 CL   UNL     1      23.319   3.484  22.366  0.00  0.00    -0.084 Cl
ATOM     20  C   UNL     1      19.869   6.207  21.353  0.00  0.00    +0.039 A 
ATOM     22  C   UNL     1      20.252   5.205  20.460  0.00  0.00    +0.014 A 
ATOM     23  C   UNL     1      20.552   6.365  22.558  0.00  0.00    +0.014 A 
ATOM     25  C   UNL     1      21.319   4.362  20.773  0.00  0.00    +0.021 A 
ATOM     26  C   UNL     1      21.619   5.524  22.871  0.00  0.00    +0.021 A 
ATOM     27  C   UNL     1      22.003   4.522  21.979  0.00  0.00    +0.041 A 
ENDBRANCH  17  20
ENDBRANCH   8  13
BRANCH   5  12
ATOM     12  C   UNL     1      12.551   9.374  19.165  0.00  0.00    +0.119 C 
BRANCH  12  14
ATOM     14  C   UNL     1      12.138   9.860  20.530  0.00  0.00    -0.033 A 
ATOM     15  C   UNL     1      12.802  10.938  21.115  0.00  0.00    +0.006 A 
ATOM     16  C   UNL     1      11.094   9.232  21.208  0.00  0.00    +0.006 A 
ATOM     18  C   UNL     1      12.421  11.389  22.378  0.00  0.00    +0.015 A 
ATOM     19  C   UNL     1      10.713   9.683  22.472  0.00  0.00    +0.015 A 
ATOM     21  C   UNL     1      11.376  10.762  23.057  0.00  0.00    +0.059 A 
BRANCH  21  24
ATOM      4  O   UNL     1      10.387  12.290  24.608  0.00  0.00    -0.245 OA
ATOM     24  C   UNL     1      10.978  11.231  24.375  0.00  0.00    +0.337 C 
BRANCH  24   3
ATOM      3  O   UNL     1      11.329  10.366  25.365  0.00  0.00    -0.477 OA
ATOM     28  H   UNL     1      10.553  10.082  25.893  0.00  0.00    +0.295 HD
ENDBRANCH  24   3
ENDBRANCH  21  24
ENDBRANCH  12  14
ENDBRANCH   5  12
TORSDOF 6
ENDMDL
MODEL 9
REMARK VINA RESULT:      -6.8     28.058     30.336
REMARK  Name = 51137233
REMARK  6 active torsions:
REMARK  status: ('A' for Active; 'I' for Inactive)
REMARK    1  A    between atoms: O_3  and  C_24
REMARK    2  A    between atoms: N_5  and  C_12
REMARK    3  A    between atoms: C_8  and  C_13
REMARK    4  A    between atoms: C_12  and  C_14
REMARK    5  A    between atoms: C_17  and  C_20
REMARK    6  A    between atoms: C_21  and  C_24
REMARK                            x       y       z     vdW  Elec       q    Type
REMARK                         _______ _______ _______ _____ _____    ______ ____
ROOT
ATOM      5  N   UNL     1      -2.955 -11.372  15.131  0.00  0.00    -0.297 NA
ATOM      8  C   UNL     1      -3.317 -11.415  12.815  0.00  0.00    +0.092 C 
ATOM      9  C   UNL     1      -1.936 -12.015  13.132  0.00  0.00    +0.029 C 
ATOM     10  C   UNL     1      -3.722 -10.674  14.098  0.00  0.00    +0.097 C 
ATOM     11  C   UNL     1      -1.626 -11.561  14.552  0.00  0.00    +0.085 C 
ENDROOT
BRANCH   8  13
ATOM      2  O   UNL     1      -4.533 -10.500  10.895  0.00  0.00    -0.420 OA
ATOM      6  N   UNL     1      -2.423  -9.777  11.068  0.00  0.00    -0.112 NA
ATOM      7  N   UNL     1      -2.986  -9.188   9.952  0.00  0.00    -0.107 NA
ATOM     13  C   UNL     1      -3.361 -10.534  11.587  0.00  0.00    +0.222 A 
ATOM     17  C   UNL     1      -4.217  -9.639   9.890  0.00  0.00    +0.248 A 
BRANCH  17  20
ATOM      1 CL   UNL     1      -8.549  -8.519   5.976  0.00  0.00    -0.084 Cl
ATOM     20  C   UNL     1      -5.262  -9.369   8.945  0.00  0.00    +0.039 A 
ATOM     22  C   UNL     1      -6.324  -8.538   9.300  0.00  0.00    +0.014 A 
ATOM     23  C   UNL     1      -5.216  -9.937   7.672  0.00  0.00    +0.014 A 
ATOM     25  C   UNL     1      -7.342  -8.275   8.383  0.00  0.00    +0.021 A 
ATOM     26  C   UNL     1      -6.232  -9.674   6.754  0.00  0.00    +0.021 A 
ATOM     27  C   UNL     1      -7.295  -8.842   7.109  0.00  0.00    +0.041 A 
ENDBRANCH  17  20
ENDBRANCH   8  13
BRANCH   5  12
ATOM     12  C   UNL     1      -2.914 -10.632  16.385  0.00  0.00    +0.119 C 
BRANCH  12  14
ATOM     14  C   UNL     1      -4.136 -10.889  17.227  0.00  0.00    -0.033 A 
ATOM     15  C   UNL     1      -5.337 -10.249  16.924  0.00  0.00    +0.006 A 
ATOM     16  C   UNL     1      -4.065 -11.765  18.310  0.00  0.00    +0.006 A 
ATOM     18  C   UNL     1      -6.469 -10.486  17.704  0.00  0.00    +0.015 A 
ATOM     19  C   UNL     1      -5.197 -12.001  19.090  0.00  0.00    +0.015 A 
ATOM     21  C   UNL     1      -6.399 -11.362  18.787  0.00  0.00    +0.059 A 
BRANCH  21  24
ATOM      4  O   UNL     1      -7.994 -12.722  19.939  0.00  0.00    -0.245 OA
ATOM     24  C   UNL     1      -7.579 -11.610  19.601  0.00  0.00    +0.337 C 
BRANCH  24   3
ATOM      3  O   UNL     1      -8.208 -10.460  19.970  0.00  0.00    -0.477 OA
ATOM     28  H   UNL     1      -9.107 -10.633  20.321  0.00  0.00    +0.295 HD
ENDBRANCH  24   3
ENDBRANCH  21  24
ENDBRANCH  12  14
ENDBRANCH   5  12
TORSDOF 6
ENDMDL
MODEL 10
REMARK VINA RESULT:      -6.7     29.518     32.876
REMARK  Name = 51137233
REMARK  6 active torsions:
REMARK  status: ('A' for Active; 'I' for Inactive)
REMARK    1  A    between atoms: O_3  and  C_24
REMARK    2  A    between atoms: N_5  and  C_12
REMARK    3  A    between atoms: C_8  and  C_13
REMARK    4  A    between atoms: C_12  and  C_14
REMARK    5  A    between atoms: C_17  and  C_20
REMARK    6  A    between atoms: C_21  and  C_24
REMARK                            x       y       z     vdW  Elec       q    Type
REMARK                         _______ _______ _______ _____ _____    ______ ____
ROOT
ATOM      5  N   UNL     1     -13.677   7.095  21.247  0.00  0.00    -0.297 NA
ATOM      8  C   UNL     1     -15.707   5.964  21.559  0.00  0.00    +0.092 C 
ATOM      9  C   UNL     1     -15.679   7.226  22.441  0.00  0.00    +0.029 C 
ATOM     10  C   UNL     1     -14.246   5.750  21.141  0.00  0.00    +0.097 C 
ATOM     11  C   UNL     1     -14.213   7.635  22.496  0.00  0.00    +0.085 C 
ENDROOT
BRANCH   8  13
ATOM      2  O   UNL     1     -16.014   4.535  23.524  0.00  0.00    -0.420 OA
ATOM      6  N   UNL     1     -17.114   3.836  21.706  0.00  0.00    -0.112 NA
ATOM      7  N   UNL     1     -17.373   2.945  22.730  0.00  0.00    -0.107 NA
ATOM     13  C   UNL     1     -16.318   4.746  22.214  0.00  0.00    +0.222 A 
ATOM     17  C   UNL     1     -16.711   3.392  23.772  0.00  0.00    +0.248 A 
BRANCH  17  20
ATOM      1 CL   UNL     1     -16.291   1.245  29.300  0.00  0.00    -0.084 Cl
ATOM     20  C   UNL     1     -16.610   2.873  25.105  0.00  0.00    +0.039 A 
ATOM     22  C   UNL     1     -16.242   3.716  26.154  0.00  0.00    +0.014 A 
ATOM     23  C   UNL     1     -16.879   1.527  25.354  0.00  0.00    +0.014 A 
ATOM     25  C   UNL     1     -16.143   3.213  27.452  0.00  0.00    +0.021 A 
ATOM     26  C   UNL     1     -16.781   1.024  26.650  0.00  0.00    +0.021 A 
ATOM     27  C   UNL     1     -16.413   1.867  27.699  0.00  0.00    +0.041 A 
ENDBRANCH  17  20
ENDBRANCH   8  13
BRANCH   5  12
ATOM     12  C   UNL     1     -12.221   7.085  21.227  0.00  0.00    +0.119 C 
BRANCH  12  14
ATOM     14  C   UNL     1     -11.672   7.865  20.061  0.00  0.00    -0.033 A 
ATOM     15  C   UNL     1     -11.426   7.223  18.848  0.00  0.00    +0.006 A 
ATOM     16  C   UNL     1     -11.408   9.228  20.196  0.00  0.00    +0.006 A 
ATOM     18  C   UNL     1     -10.917   7.944  17.768  0.00  0.00    +0.015 A 
ATOM     19  C   UNL     1     -10.899   9.949  19.116  0.00  0.00    +0.015 A 
ATOM     21  C   UNL     1     -10.653   9.308  17.902  0.00  0.00    +0.059 A 
BRANCH  21  24
ATOM      4  O   UNL     1     -10.347   9.822  15.586  0.00  0.00    -0.245 OA
ATOM     24  C   UNL     1     -10.122  10.060  16.777  0.00  0.00    +0.337 C 
BRANCH  24   3
ATOM      3  O   UNL     1      -9.324  11.091  17.169  0.00  0.00    -0.477 OA
ATOM     28  H   UNL     1      -8.539  10.775  17.666  0.00  0.00    +0.295 HD
ENDBRANCH  24   3
ENDBRANCH  21  24
ENDBRANCH  12  14
ENDBRANCH   5  12
TORSDOF 6
ENDMDL
