MODEL 1
REMARK VINA RESULT:      -6.4      0.000      0.000
REMARK  Name = 45783633
REMARK  10 active torsions:
REMARK  status: ('A' for Active; 'I' for Inactive)
REMARK    1  A    between atoms: O_2  and  C_25
REMARK    2  A    between atoms: O_2  and  C_26
REMARK    3  A    between atoms: N_4  and  C_13
REMARK    4  A    between atoms: N_8  and  C_23
REMARK    5  A    between atoms: C_9  and  C_15
REMARK    6  A    between atoms: C_13  and  C_14
REMARK    7  A    between atoms: C_14  and  C_16
REMARK    8  A    between atoms: C_14  and  C_17
REMARK    9  A    between atoms: C_18  and  C_19
REMARK   10  A    between atoms: C_24  and  C_25
REMARK                            x       y       z     vdW  Elec       q    Type
REMARK                         _______ _______ _______ _____ _____    ______ ____
ROOT
ATOM      1  O   UNL     1      14.943   9.932  21.536  0.00  0.00    -0.336 OA
ATOM      5  N   UNL     1      15.201   8.154  20.198  0.00  0.00    -0.190 NA
ATOM      6  N   UNL     1      16.257   9.487  21.729  0.00  0.00    -0.056 NA
ATOM     15  C   UNL     1      14.393   9.093  20.620  0.00  0.00    +0.245 A 
ATOM     18  C   UNL     1      16.333   8.436  20.906  0.00  0.00    +0.204 A 
ENDROOT
BRANCH  18  19
ATOM      7  N   UNL     1      19.882   7.373  21.227  0.00  0.00    -0.239 NA
ATOM     19  C   UNL     1      17.523   7.648  20.769  0.00  0.00    +0.041 A 
ATOM     20  C   UNL     1      17.509   6.441  20.081  0.00  0.00    +0.016 A 
ATOM     21  C   UNL     1      18.725   8.066  21.319  0.00  0.00    +0.124 A 
ATOM     22  C   UNL     1      18.678   5.698  19.964  0.00  0.00    +0.044 A 
ATOM     23  C   UNL     1      19.828   6.203  20.551  0.00  0.00    +0.125 A 
BRANCH  23   8
ATOM      3  O   UNL     1      21.422   4.717  22.626  0.00  0.00    -0.273 OA
ATOM      8  N   UNL     1      21.000   5.448  20.427  0.00  0.00    -0.268 N 
ATOM     24  C   UNL     1      21.701   4.775  21.432  0.00  0.00    +0.244 C 
ATOM     27  H   UNL     1      21.369   5.397  19.480  0.00  0.00    +0.156 HD
BRANCH  24  25
ATOM     25  C   UNL     1      22.931   4.076  20.897  0.00  0.00    +0.255 C 
BRANCH  25   2
ATOM      2  O   UNL     1      22.866   2.708  21.244  0.00  0.00    -0.374 OA
ATOM     26  C   UNL     1      23.997   1.985  20.771  0.00  0.00    +0.194 C 
ENDBRANCH  25   2
ENDBRANCH  24  25
ENDBRANCH  23   8
ENDBRANCH  18  19
BRANCH  15   9
ATOM      4  N   UNL     1      12.205   8.133  19.921  0.00  0.00    -0.291 NA
ATOM      9  C   UNL     1      12.954   9.366  20.232  0.00  0.00    +0.146 C 
ATOM     10  C   UNL     1      12.151  10.036  21.362  0.00  0.00    +0.030 C 
ATOM     11  C   UNL     1      10.807   8.401  20.259  0.00  0.00    +0.085 C 
ATOM     12  C   UNL     1      10.940   9.140  21.575  0.00  0.00    +0.017 C 
BRANCH   4  13
ATOM     13  C   UNL     1      12.362   7.699  18.538  0.00  0.00    +0.088 C 
BRANCH  13  14
ATOM     14  C   UNL     1      12.220   8.859  17.538  0.00  0.00    -0.003 C 
ATOM     16  C   UNL     1      13.469   8.939  16.658  0.00  0.00    +0.008 C 
ATOM     17  C   UNL     1      10.976   8.724  16.656  0.00  0.00    +0.008 C 
ENDBRANCH  13  14
ENDBRANCH   4  13
ENDBRANCH  15   9
TORSDOF 7
ENDMDL
MODEL 2
REMARK VINA RESULT:      -6.4      6.255      7.964
REMARK  Name = 45783633
REMARK  10 active torsions:
REMARK  status: ('A' for Active; 'I' for Inactive)
REMARK    1  A    between atoms: O_2  and  C_25
REMARK    2  A    between atoms: O_2  and  C_26
REMARK    3  A    between atoms: N_4  and  C_13
REMARK    4  A    between atoms: N_8  and  C_23
REMARK    5  A    between atoms: C_9  and  C_15
REMARK    6  A    between atoms: C_13  and  C_14
REMARK    7  A    between atoms: C_14  and  C_16
REMARK    8  A    between atoms: C_14  and  C_17
REMARK    9  A    between atoms: C_18  and  C_19
REMARK   10  A    between atoms: C_24  and  C_25
REMARK                            x       y       z     vdW  Elec       q    Type
REMARK                         _______ _______ _______ _____ _____    ______ ____
ROOT
ATOM      1  O   UNL     1      12.120   7.159  18.760  0.00  0.00    -0.336 OA
ATOM      5  N   UNL     1      13.482   8.915  19.043  0.00  0.00    -0.190 NA
ATOM      6  N   UNL     1      12.588   7.499  17.484  0.00  0.00    -0.056 NA
ATOM     15  C   UNL     1      12.695   8.042  19.619  0.00  0.00    +0.245 A 
ATOM     18  C   UNL     1      13.385   8.543  17.734  0.00  0.00    +0.204 A 
ENDROOT
BRANCH  18  19
ATOM      7  N   UNL     1      15.100   9.194  14.500  0.00  0.00    -0.239 NA
ATOM     19  C   UNL     1      14.096   9.235  16.699  0.00  0.00    +0.041 A 
ATOM     20  C   UNL     1      14.470  10.565  16.853  0.00  0.00    +0.016 A 
ATOM     21  C   UNL     1      14.431   8.601  15.514  0.00  0.00    +0.124 A 
ATOM     22  C   UNL     1      15.159  11.210  15.832  0.00  0.00    +0.044 A 
ATOM     23  C   UNL     1      15.447  10.487  14.685  0.00  0.00    +0.125 A 
BRANCH  23   8
ATOM      3  O   UNL     1      14.431  11.916  12.240  0.00  0.00    -0.273 OA
ATOM      8  N   UNL     1      16.141  11.146  13.664  0.00  0.00    -0.268 N 
ATOM     24  C   UNL     1      15.614  11.797  12.545  0.00  0.00    +0.244 C 
ATOM     27  H   UNL     1      17.153  11.138  13.771  0.00  0.00    +0.156 HD
BRANCH  24  25
ATOM     25  C   UNL     1      16.696  12.382  11.665  0.00  0.00    +0.255 C 
BRANCH  25   2
ATOM      2  O   UNL     1      17.775  12.793  12.479  0.00  0.00    -0.374 OA
ATOM     26  C   UNL     1      19.033  12.505  11.879  0.00  0.00    +0.194 C 
ENDBRANCH  25   2
ENDBRANCH  24  25
ENDBRANCH  23   8
ENDBRANCH  18  19
BRANCH  15   9
ATOM      4  N   UNL     1      11.465   8.960  21.578  0.00  0.00    -0.291 NA
ATOM      9  C   UNL     1      12.346   7.883  21.084  0.00  0.00    +0.146 C 
ATOM     10  C   UNL     1      11.573   6.583  21.374  0.00  0.00    +0.030 C 
ATOM     11  C   UNL     1      10.667   8.380  22.658  0.00  0.00    +0.085 C 
ATOM     12  C   UNL     1      10.302   7.026  22.084  0.00  0.00    +0.017 C 
BRANCH   4  13
ATOM     13  C   UNL     1      12.195  10.145  22.011  0.00  0.00    +0.088 C 
BRANCH  13  14
ATOM     14  C   UNL     1      11.633  11.439  21.398  0.00  0.00    -0.003 C 
ATOM     16  C   UNL     1      11.200  12.394  22.512  0.00  0.00    +0.008 C 
ATOM     17  C   UNL     1      12.640  12.140  20.481  0.00  0.00    +0.008 C 
ENDBRANCH  13  14
ENDBRANCH   4  13
ENDBRANCH  15   9
TORSDOF 7
ENDMDL
MODEL 3
REMARK VINA RESULT:      -6.3      1.948      9.880
REMARK  Name = 45783633
REMARK  10 active torsions:
REMARK  status: ('A' for Active; 'I' for Inactive)
REMARK    1  A    between atoms: O_2  and  C_25
REMARK    2  A    between atoms: O_2  and  C_26
REMARK    3  A    between atoms: N_4  and  C_13
REMARK    4  A    between atoms: N_8  and  C_23
REMARK    5  A    between atoms: C_9  and  C_15
REMARK    6  A    between atoms: C_13  and  C_14
REMARK    7  A    between atoms: C_14  and  C_16
REMARK    8  A    between atoms: C_14  and  C_17
REMARK    9  A    between atoms: C_18  and  C_19
REMARK   10  A    between atoms: C_24  and  C_25
REMARK                            x       y       z     vdW  Elec       q    Type
REMARK                         _______ _______ _______ _____ _____    ______ ____
ROOT
ATOM      1  O   UNL     1      21.257   6.683  22.764  0.00  0.00    -0.336 OA
ATOM      5  N   UNL     1      20.644   5.709  20.842  0.00  0.00    -0.190 NA
ATOM      6  N   UNL     1      19.925   7.056  22.546  0.00  0.00    -0.056 NA
ATOM     15  C   UNL     1      21.602   5.892  21.715  0.00  0.00    +0.245 A 
ATOM     18  C   UNL     1      19.634   6.443  21.394  0.00  0.00    +0.204 A 
ENDROOT
BRANCH  18  19
ATOM      7  N   UNL     1      16.110   7.460  20.785  0.00  0.00    -0.239 NA
ATOM     19  C   UNL     1      18.348   6.544  20.769  0.00  0.00    +0.041 A 
ATOM     20  C   UNL     1      18.069   5.864  19.589  0.00  0.00    +0.016 A 
ATOM     21  C   UNL     1      17.343   7.322  21.321  0.00  0.00    +0.124 A 
ATOM     22  C   UNL     1      16.812   5.981  19.006  0.00  0.00    +0.044 A 
ATOM     23  C   UNL     1      15.876   6.785  19.638  0.00  0.00    +0.125 A 
BRANCH  23   8
ATOM      3  O   UNL     1      14.641   9.046  18.083  0.00  0.00    -0.273 OA
ATOM      8  N   UNL     1      14.614   6.895  19.042  0.00  0.00    -0.268 N 
ATOM     24  C   UNL     1      14.091   7.976  18.327  0.00  0.00    +0.244 C 
ATOM     27  H   UNL     1      14.022   6.075  19.157  0.00  0.00    +0.156 HD
BRANCH  24  25
ATOM     25  C   UNL     1      12.681   7.712  17.847  0.00  0.00    +0.255 C 
BRANCH  25   2
ATOM      2  O   UNL     1      11.874   7.384  18.960  0.00  0.00    -0.374 OA
ATOM     26  C   UNL     1      11.356   8.545  19.600  0.00  0.00    +0.194 C 
ENDBRANCH  25   2
ENDBRANCH  24  25
ENDBRANCH  23   8
ENDBRANCH  18  19
BRANCH  15   9
ATOM      4  N   UNL     1      23.215   4.281  20.716  0.00  0.00    -0.291 NA
ATOM      9  C   UNL     1      23.016   5.348  21.716  0.00  0.00    +0.146 C 
ATOM     10  C   UNL     1      24.064   6.418  21.359  0.00  0.00    +0.030 C 
ATOM     11  C   UNL     1      24.621   4.344  20.317  0.00  0.00    +0.085 C 
ATOM     12  C   UNL     1      24.842   5.837  20.187  0.00  0.00    +0.017 C 
BRANCH   4  13
ATOM     13  C   UNL     1      22.843   2.959  21.206  0.00  0.00    +0.088 C 
BRANCH  13  14
ATOM     14  C   UNL     1      23.977   2.283  21.995  0.00  0.00    -0.003 C 
ATOM     16  C   UNL     1      23.558   2.109  23.457  0.00  0.00    +0.008 C 
ATOM     17  C   UNL     1      24.373   0.925  21.407  0.00  0.00    +0.008 C 
ENDBRANCH  13  14
ENDBRANCH   4  13
ENDBRANCH  15   9
TORSDOF 7
ENDMDL
MODEL 4
REMARK VINA RESULT:      -6.2      1.668      2.152
REMARK  Name = 45783633
REMARK  10 active torsions:
REMARK  status: ('A' for Active; 'I' for Inactive)
REMARK    1  A    between atoms: O_2  and  C_25
REMARK    2  A    between atoms: O_2  and  C_26
REMARK    3  A    between atoms: N_4  and  C_13
REMARK    4  A    between atoms: N_8  and  C_23
REMARK    5  A    between atoms: C_9  and  C_15
REMARK    6  A    between atoms: C_13  and  C_14
REMARK    7  A    between atoms: C_14  and  C_16
REMARK    8  A    between atoms: C_14  and  C_17
REMARK    9  A    between atoms: C_18  and  C_19
REMARK   10  A    between atoms: C_24  and  C_25
REMARK                            x       y       z     vdW  Elec       q    Type
REMARK                         _______ _______ _______ _____ _____    ______ ____
ROOT
ATOM      1  O   UNL     1      14.798   6.762  19.261  0.00  0.00    -0.336 OA
ATOM      5  N   UNL     1      16.012   7.397  21.033  0.00  0.00    -0.190 NA
ATOM      6  N   UNL     1      16.055   6.163  19.106  0.00  0.00    -0.056 NA
ATOM     15  C   UNL     1      14.859   7.469  20.419  0.00  0.00    +0.245 A 
ATOM     18  C   UNL     1      16.714   6.584  20.190  0.00  0.00    +0.204 A 
ENDROOT
BRANCH  18  19
ATOM      7  N   UNL     1      19.950   4.763  19.989  0.00  0.00    -0.239 NA
ATOM     19  C   UNL     1      18.073   6.214  20.460  0.00  0.00    +0.041 A 
ATOM     20  C   UNL     1      18.828   6.896  21.407  0.00  0.00    +0.016 A 
ATOM     21  C   UNL     1      18.676   5.165  19.784  0.00  0.00    +0.124 A 
ATOM     22  C   UNL     1      20.143   6.514  21.646  0.00  0.00    +0.044 A 
ATOM     23  C   UNL     1      20.653   5.451  20.917  0.00  0.00    +0.125 A 
BRANCH  23   8
ATOM      3  O   UNL     1      21.793   3.550  22.952  0.00  0.00    -0.273 OA
ATOM      8  N   UNL     1      21.978   5.074  21.167  0.00  0.00    -0.268 N 
ATOM     24  C   UNL     1      22.452   4.180  22.131  0.00  0.00    +0.244 C 
ATOM     27  H   UNL     1      22.662   5.519  20.559  0.00  0.00    +0.156 HD
BRANCH  24  25
ATOM     25  C   UNL     1      23.958   4.046  22.090  0.00  0.00    +0.255 C 
BRANCH  25   2
ATOM      2  O   UNL     1      24.334   3.498  20.843  0.00  0.00    -0.374 OA
ATOM     26  C   UNL     1      24.243   2.077  20.838  0.00  0.00    +0.194 C 
ENDBRANCH  25   2
ENDBRANCH  24  25
ENDBRANCH  23   8
ENDBRANCH  18  19
BRANCH  15   9
ATOM      4  N   UNL     1      12.843   8.714  19.654  0.00  0.00    -0.291 NA
ATOM      9  C   UNL     1      13.604   8.220  20.818  0.00  0.00    +0.146 C 
ATOM     10  C   UNL     1      12.606   7.339  21.592  0.00  0.00    +0.030 C 
ATOM     11  C   UNL     1      11.439   8.753  20.063  0.00  0.00    +0.085 C 
ATOM     12  C   UNL     1      11.298   7.449  20.822  0.00  0.00    +0.017 C 
BRANCH   4  13
ATOM     13  C   UNL     1      13.310  10.007  19.170  0.00  0.00    +0.088 C 
BRANCH  13  14
ATOM     14  C   UNL     1      13.171  10.150  17.645  0.00  0.00    -0.003 C 
ATOM     16  C   UNL     1      14.124  11.234  17.137  0.00  0.00    +0.008 C 
ATOM     17  C   UNL     1      13.443   8.837  16.905  0.00  0.00    +0.008 C 
ENDBRANCH  13  14
ENDBRANCH   4  13
ENDBRANCH  15   9
TORSDOF 7
ENDMDL
MODEL 5
REMARK VINA RESULT:      -6.2     27.926     30.598
REMARK  Name = 45783633
REMARK  10 active torsions:
REMARK  status: ('A' for Active; 'I' for Inactive)
REMARK    1  A    between atoms: O_2  and  C_25
REMARK    2  A    between atoms: O_2  and  C_26
REMARK    3  A    between atoms: N_4  and  C_13
REMARK    4  A    between atoms: N_8  and  C_23
REMARK    5  A    between atoms: C_9  and  C_15
REMARK    6  A    between atoms: C_13  and  C_14
REMARK    7  A    between atoms: C_14  and  C_16
REMARK    8  A    between atoms: C_14  and  C_17
REMARK    9  A    between atoms: C_18  and  C_19
REMARK   10  A    between atoms: C_24  and  C_25
REMARK                            x       y       z     vdW  Elec       q    Type
REMARK                         _______ _______ _______ _____ _____    ______ ____
ROOT
ATOM      1  O   UNL     1     -13.112   9.323  18.650  0.00  0.00    -0.336 OA
ATOM      5  N   UNL     1     -11.971   7.615  19.545  0.00  0.00    -0.190 NA
ATOM      6  N   UNL     1     -13.933   8.787  19.651  0.00  0.00    -0.056 NA
ATOM     15  C   UNL     1     -11.978   8.575  18.655  0.00  0.00    +0.245 A 
ATOM     18  C   UNL     1     -13.191   7.785  20.132  0.00  0.00    +0.204 A 
ENDROOT
BRANCH  18  19
ATOM      7  N   UNL     1     -15.330   6.401  22.840  0.00  0.00    -0.239 NA
ATOM     19  C   UNL     1     -13.639   6.935  21.196  0.00  0.00    +0.041 A 
ATOM     20  C   UNL     1     -12.874   5.856  21.623  0.00  0.00    +0.016 A 
ATOM     21  C   UNL     1     -14.849   7.162  21.832  0.00  0.00    +0.124 A 
ATOM     22  C   UNL     1     -13.334   5.049  22.657  0.00  0.00    +0.044 A 
ATOM     23  C   UNL     1     -14.558   5.361  23.228  0.00  0.00    +0.125 A 
BRANCH  23   8
ATOM      3  O   UNL     1     -16.238   2.865  23.159  0.00  0.00    -0.273 OA
ATOM      8  N   UNL     1     -15.012   4.542  24.268  0.00  0.00    -0.268 N 
ATOM     24  C   UNL     1     -15.794   3.387  24.177  0.00  0.00    +0.244 C 
ATOM     27  H   UNL     1     -14.725   4.845  25.197  0.00  0.00    +0.156 HD
BRANCH  24  25
ATOM     25  C   UNL     1     -16.083   2.787  25.535  0.00  0.00    +0.255 C 
BRANCH  25   2
ATOM      2  O   UNL     1     -16.346   1.408  25.378  0.00  0.00    -0.374 OA
ATOM     26  C   UNL     1     -17.029   0.866  26.504  0.00  0.00    +0.194 C 
ENDBRANCH  25   2
ENDBRANCH  24  25
ENDBRANCH  23   8
ENDBRANCH  18  19
BRANCH  15   9
ATOM      4  N   UNL     1     -11.477   9.554  16.421  0.00  0.00    -0.291 NA
ATOM      9  C   UNL     1     -10.912   8.959  17.648  0.00  0.00    +0.146 C 
ATOM     10  C   UNL     1      -9.942  10.025  18.188  0.00  0.00    +0.030 C 
ATOM     11  C   UNL     1     -10.465  10.474  15.903  0.00  0.00    +0.085 C 
ATOM     12  C   UNL     1      -9.984  11.154  17.168  0.00  0.00    +0.017 C 
BRANCH   4  13
ATOM     13  C   UNL     1     -11.874   8.560  15.431  0.00  0.00    +0.088 C 
BRANCH  13  14
ATOM     14  C   UNL     1     -11.100   8.704  14.110  0.00  0.00    -0.003 C 
ATOM     16  C   UNL     1     -10.314   7.421  13.829  0.00  0.00    +0.008 C 
ATOM     17  C   UNL     1     -12.016   9.018  12.924  0.00  0.00    +0.008 C 
ENDBRANCH  13  14
ENDBRANCH   4  13
ENDBRANCH  15   9
TORSDOF 7
ENDMDL
MODEL 6
REMARK VINA RESULT:      -6.2      1.567      2.704
REMARK  Name = 45783633
REMARK  10 active torsions:
REMARK  status: ('A' for Active; 'I' for Inactive)
REMARK    1  A    between atoms: O_2  and  C_25
REMARK    2  A    between atoms: O_2  and  C_26
REMARK    3  A    between atoms: N_4  and  C_13
REMARK    4  A    between atoms: N_8  and  C_23
REMARK    5  A    between atoms: C_9  and  C_15
REMARK    6  A    between atoms: C_13  and  C_14
REMARK    7  A    between atoms: C_14  and  C_16
REMARK    8  A    between atoms: C_14  and  C_17
REMARK    9  A    between atoms: C_18  and  C_19
REMARK   10  A    between atoms: C_24  and  C_25
REMARK                            x       y       z     vdW  Elec       q    Type
REMARK                         _______ _______ _______ _____ _____    ______ ____
ROOT
ATOM      1  O   UNL     1      15.562   8.441  20.180  0.00  0.00    -0.336 OA
ATOM      5  N   UNL     1      16.342   6.536  19.296  0.00  0.00    -0.190 NA
ATOM      6  N   UNL     1      16.820   8.230  20.758  0.00  0.00    -0.056 NA
ATOM     15  C   UNL     1      15.358   7.398  19.333  0.00  0.00    +0.245 A 
ATOM     18  C   UNL     1      17.216   7.088  20.187  0.00  0.00    +0.204 A 
ENDROOT
BRANCH  18  19
ATOM      7  N   UNL     1      20.533   6.490  21.757  0.00  0.00    -0.239 NA
ATOM     19  C   UNL     1      18.477   6.474  20.485  0.00  0.00    +0.041 A 
ATOM     20  C   UNL     1      18.880   5.313  19.835  0.00  0.00    +0.016 A 
ATOM     21  C   UNL     1      19.333   7.017  21.430  0.00  0.00    +0.124 A 
ATOM     22  C   UNL     1      20.108   4.739  20.144  0.00  0.00    +0.044 A 
ATOM     23  C   UNL     1      20.891   5.361  21.105  0.00  0.00    +0.125 A 
BRANCH  23   8
ATOM      3  O   UNL     1      21.886   4.113  23.656  0.00  0.00    -0.273 OA
ATOM      8  N   UNL     1      22.125   4.775  21.409  0.00  0.00    -0.268 N 
ATOM     24  C   UNL     1      22.534   4.207  22.619  0.00  0.00    +0.244 C 
ATOM     27  H   UNL     1      22.790   4.774  20.638  0.00  0.00    +0.156 HD
BRANCH  24  25
ATOM     25  C   UNL     1      23.953   3.685  22.551  0.00  0.00    +0.255 C 
BRANCH  25   2
ATOM      2  O   UNL     1      23.931   2.372  22.029  0.00  0.00    -0.374 OA
ATOM     26  C   UNL     1      24.320   1.408  23.002  0.00  0.00    +0.194 C 
ENDBRANCH  25   2
ENDBRANCH  24  25
ENDBRANCH  23   8
ENDBRANCH  18  19
BRANCH  15   9
ATOM      4  N   UNL     1      12.912   7.855  19.393  0.00  0.00    -0.291 NA
ATOM      9  C   UNL     1      14.048   7.393  18.572  0.00  0.00    +0.146 C 
ATOM     10  C   UNL     1      14.062   8.339  17.357  0.00  0.00    +0.030 C 
ATOM     11  C   UNL     1      11.954   8.464  18.470  0.00  0.00    +0.085 C 
ATOM     12  C   UNL     1      12.864   9.257  17.554  0.00  0.00    +0.017 C 
BRANCH   4  13
ATOM     13  C   UNL     1      12.308   6.792  20.188  0.00  0.00    +0.088 C 
BRANCH  13  14
ATOM     14  C   UNL     1      12.061   7.215  21.645  0.00  0.00    -0.003 C 
ATOM     16  C   UNL     1      12.703   8.580  21.904  0.00  0.00    +0.008 C 
ATOM     17  C   UNL     1      10.572   7.271  21.996  0.00  0.00    +0.008 C 
ENDBRANCH  13  14
ENDBRANCH   4  13
ENDBRANCH  15   9
TORSDOF 7
ENDMDL
MODEL 7
REMARK VINA RESULT:      -5.9     29.972     31.871
REMARK  Name = 45783633
REMARK  10 active torsions:
REMARK  status: ('A' for Active; 'I' for Inactive)
REMARK    1  A    between atoms: O_2  and  C_25
REMARK    2  A    between atoms: O_2  and  C_26
REMARK    3  A    between atoms: N_4  and  C_13
REMARK    4  A    between atoms: N_8  and  C_23
REMARK    5  A    between atoms: C_9  and  C_15
REMARK    6  A    between atoms: C_13  and  C_14
REMARK    7  A    between atoms: C_14  and  C_16
REMARK    8  A    between atoms: C_14  and  C_17
REMARK    9  A    between atoms: C_18  and  C_19
REMARK   10  A    between atoms: C_24  and  C_25
REMARK                            x       y       z     vdW  Elec       q    Type
REMARK                         _______ _______ _______ _____ _____    ______ ____
ROOT
ATOM      1  O   UNL     1     -13.588  -6.213  12.863  0.00  0.00    -0.336 OA
ATOM      5  N   UNL     1     -11.927  -5.321  14.073  0.00  0.00    -0.190 NA
ATOM      6  N   UNL     1     -13.047  -7.263  13.616  0.00  0.00    -0.056 NA
ATOM     15  C   UNL     1     -12.871  -5.106  13.192  0.00  0.00    +0.245 A 
ATOM     18  C   UNL     1     -12.074  -6.658  14.304  0.00  0.00    +0.204 A 
ENDROOT
BRANCH  18  19
ATOM      7  N   UNL     1      -9.856  -9.290  15.711  0.00  0.00    -0.239 NA
ATOM     19  C   UNL     1     -11.230  -7.360  15.226  0.00  0.00    +0.041 A 
ATOM     20  C   UNL     1     -10.958  -6.841  16.487  0.00  0.00    +0.016 A 
ATOM     21  C   UNL     1     -10.659  -8.577  14.890  0.00  0.00    +0.124 A 
ATOM     22  C   UNL     1     -10.136  -7.544  17.360  0.00  0.00    +0.044 A 
ATOM     23  C   UNL     1      -9.614  -8.753  16.928  0.00  0.00    +0.125 A 
BRANCH  23   8
ATOM      3  O   UNL     1      -6.657  -9.301  16.825  0.00  0.00    -0.273 OA
ATOM      8  N   UNL     1      -8.788  -9.453  17.816  0.00  0.00    -0.268 N 
ATOM     24  C   UNL     1      -7.412  -9.677  17.717  0.00  0.00    +0.244 C 
ATOM     27  H   UNL     1      -9.272  -9.837  18.625  0.00  0.00    +0.156 HD
BRANCH  24  25
ATOM     25  C   UNL     1      -6.883 -10.490  18.878  0.00  0.00    +0.255 C 
BRANCH  25   2
ATOM      2  O   UNL     1      -7.976 -10.963  19.638  0.00  0.00    -0.374 OA
ATOM     26  C   UNL     1      -7.947 -12.379  19.784  0.00  0.00    +0.194 C 
ENDBRANCH  25   2
ENDBRANCH  24  25
ENDBRANCH  23   8
ENDBRANCH  18  19
BRANCH  15   9
ATOM      4  N   UNL     1     -13.216  -3.919  11.031  0.00  0.00    -0.291 NA
ATOM      9  C   UNL     1     -13.267  -3.816  12.503  0.00  0.00    +0.146 C 
ATOM     10  C   UNL     1     -14.714  -3.395  12.816  0.00  0.00    +0.030 C 
ATOM     11  C   UNL     1     -14.220  -2.987  10.517  0.00  0.00    +0.085 C 
ATOM     12  C   UNL     1     -15.382  -3.227  11.459  0.00  0.00    +0.017 C 
BRANCH   4  13
ATOM     13  C   UNL     1     -11.892  -3.658  10.483  0.00  0.00    +0.088 C 
BRANCH  13  14
ATOM     14  C   UNL     1     -11.258  -4.910   9.854  0.00  0.00    -0.003 C 
ATOM     16  C   UNL     1     -12.342  -5.760   9.187  0.00  0.00    +0.008 C 
ATOM     17  C   UNL     1     -10.170  -4.568   8.832  0.00  0.00    +0.008 C 
ENDBRANCH  13  14
ENDBRANCH   4  13
ENDBRANCH  15   9
TORSDOF 7
ENDMDL
MODEL 8
REMARK VINA RESULT:      -5.8     16.956     20.039
REMARK  Name = 45783633
REMARK  10 active torsions:
REMARK  status: ('A' for Active; 'I' for Inactive)
REMARK    1  A    between atoms: O_2  and  C_25
REMARK    2  A    between atoms: O_2  and  C_26
REMARK    3  A    between atoms: N_4  and  C_13
REMARK    4  A    between atoms: N_8  and  C_23
REMARK    5  A    between atoms: C_9  and  C_15
REMARK    6  A    between atoms: C_13  and  C_14
REMARK    7  A    between atoms: C_14  and  C_16
REMARK    8  A    between atoms: C_14  and  C_17
REMARK    9  A    between atoms: C_18  and  C_19
REMARK   10  A    between atoms: C_24  and  C_25
REMARK                            x       y       z     vdW  Elec       q    Type
REMARK                         _______ _______ _______ _____ _____    ______ ____
ROOT
ATOM      1  O   UNL     1      10.103   4.460   5.454  0.00  0.00    -0.336 OA
ATOM      5  N   UNL     1      11.003   5.879   3.974  0.00  0.00    -0.190 NA
ATOM      6  N   UNL     1      10.331   3.715   4.290  0.00  0.00    -0.056 NA
ATOM     15  C   UNL     1      10.526   5.722   5.183  0.00  0.00    +0.245 A 
ATOM     18  C   UNL     1      10.863   4.621   3.464  0.00  0.00    +0.204 A 
ENDROOT
BRANCH  18  19
ATOM      7  N   UNL     1      10.736   4.268  -0.236  0.00  0.00    -0.239 NA
ATOM     19  C   UNL     1      11.263   4.302   2.124  0.00  0.00    +0.041 A 
ATOM     20  C   UNL     1      12.508   3.742   1.862  0.00  0.00    +0.016 A 
ATOM     21  C   UNL     1      10.422   4.544   1.050  0.00  0.00    +0.124 A 
ATOM     22  C   UNL     1      12.868   3.443   0.553  0.00  0.00    +0.044 A 
ATOM     23  C   UNL     1      11.955   3.724  -0.452  0.00  0.00    +0.125 A 
BRANCH  23   8
ATOM      3  O   UNL     1      10.659   1.919  -2.482  0.00  0.00    -0.273 OA
ATOM      8  N   UNL     1      12.328   3.419  -1.766  0.00  0.00    -0.268 N 
ATOM     24  C   UNL     1      11.683   2.569  -2.669  0.00  0.00    +0.244 C 
ATOM     27  H   UNL     1      13.176   3.886  -2.080  0.00  0.00    +0.156 HD
BRANCH  24  25
ATOM     25  C   UNL     1      12.406   2.496  -3.996  0.00  0.00    +0.255 C 
BRANCH  25   2
ATOM      2  O   UNL     1      11.626   3.148  -4.977  0.00  0.00    -0.374 OA
ATOM     26  C   UNL     1      12.424   3.947  -5.845  0.00  0.00    +0.194 C 
ENDBRANCH  25   2
ENDBRANCH  24  25
ENDBRANCH  23   8
ENDBRANCH  18  19
BRANCH  15   9
ATOM      4  N   UNL     1       9.068   7.400   6.302  0.00  0.00    -0.291 NA
ATOM      9  C   UNL     1      10.387   6.736   6.299  0.00  0.00    +0.146 C 
ATOM     10  C   UNL     1      10.509   6.102   7.697  0.00  0.00    +0.030 C 
ATOM     11  C   UNL     1       8.787   7.756   7.693  0.00  0.00    +0.085 C 
ATOM     12  C   UNL     1       9.241   6.514   8.432  0.00  0.00    +0.017 C 
BRANCH   4  13
ATOM     13  C   UNL     1       9.005   8.555   5.416  0.00  0.00    +0.088 C 
BRANCH  13  14
ATOM     14  C   UNL     1       7.903   8.420   4.351  0.00  0.00    -0.003 C 
ATOM     16  C   UNL     1       7.076   9.707   4.295  0.00  0.00    +0.008 C 
ATOM     17  C   UNL     1       8.465   8.108   2.961  0.00  0.00    +0.008 C 
ENDBRANCH  13  14
ENDBRANCH   4  13
ENDBRANCH  15   9
TORSDOF 7
ENDMDL
MODEL 9
REMARK VINA RESULT:      -5.8     27.775     30.661
REMARK  Name = 45783633
REMARK  10 active torsions:
REMARK  status: ('A' for Active; 'I' for Inactive)
REMARK    1  A    between atoms: O_2  and  C_25
REMARK    2  A    between atoms: O_2  and  C_26
REMARK    3  A    between atoms: N_4  and  C_13
REMARK    4  A    between atoms: N_8  and  C_23
REMARK    5  A    between atoms: C_9  and  C_15
REMARK    6  A    between atoms: C_13  and  C_14
REMARK    7  A    between atoms: C_14  and  C_16
REMARK    8  A    between atoms: C_14  and  C_17
REMARK    9  A    between atoms: C_18  and  C_19
REMARK   10  A    between atoms: C_24  and  C_25
REMARK                            x       y       z     vdW  Elec       q    Type
REMARK                         _______ _______ _______ _____ _____    ______ ____
ROOT
ATOM      1  O   UNL     1     -10.011 -10.850  20.065  0.00  0.00    -0.336 OA
ATOM      5  N   UNL     1      -9.554  -9.781  18.150  0.00  0.00    -0.190 NA
ATOM      6  N   UNL     1      -8.651 -11.069  19.812  0.00  0.00    -0.056 NA
ATOM     15  C   UNL     1     -10.466 -10.084  19.040  0.00  0.00    +0.245 A 
ATOM     18  C   UNL     1      -8.457 -10.407  18.666  0.00  0.00    +0.204 A 
ENDROOT
BRANCH  18  19
ATOM      7  N   UNL     1      -4.821 -10.874  18.045  0.00  0.00    -0.239 NA
ATOM     19  C   UNL     1      -7.182 -10.353  18.013  0.00  0.00    +0.041 A 
ATOM     20  C   UNL     1      -7.041  -9.761  16.763  0.00  0.00    +0.016 A 
ATOM     21  C   UNL     1      -6.051 -10.891  18.605  0.00  0.00    +0.124 A 
ATOM     22  C   UNL     1      -5.793  -9.723  16.153  0.00  0.00    +0.044 A 
ATOM     23  C   UNL     1      -4.723 -10.289  16.830  0.00  0.00    +0.125 A 
BRANCH  23   8
ATOM      3  O   UNL     1      -3.285 -12.362  15.189  0.00  0.00    -0.273 OA
ATOM      8  N   UNL     1      -3.470 -10.246  16.207  0.00  0.00    -0.268 N 
ATOM     24  C   UNL     1      -2.849 -11.245  15.452  0.00  0.00    +0.244 C 
ATOM     27  H   UNL     1      -2.969  -9.370  16.333  0.00  0.00    +0.156 HD
BRANCH  24  25
ATOM     25  C   UNL     1      -1.487 -10.816  14.953  0.00  0.00    +0.255 C 
BRANCH  25   2
ATOM      2  O   UNL     1      -1.658  -9.870  13.918  0.00  0.00    -0.374 OA
ATOM     26  C   UNL     1      -1.880 -10.495  12.658  0.00  0.00    +0.194 C 
ENDBRANCH  25   2
ENDBRANCH  24  25
ENDBRANCH  23   8
ENDBRANCH  18  19
BRANCH  15   9
ATOM      4  N   UNL     1     -12.758 -10.522  18.173  0.00  0.00    -0.291 NA
ATOM      9  C   UNL     1     -11.932  -9.702  19.081  0.00  0.00    +0.146 C 
ATOM     10  C   UNL     1     -12.560  -9.905  20.471  0.00  0.00    +0.030 C 
ATOM     11  C   UNL     1     -14.091 -10.586  18.772  0.00  0.00    +0.085 C 
ATOM     12  C   UNL     1     -13.766 -10.803  20.236  0.00  0.00    +0.017 C 
BRANCH   4  13
ATOM     13  C   UNL     1     -12.793 -10.009  16.809  0.00  0.00    +0.088 C 
BRANCH  13  14
ATOM     14  C   UNL     1     -12.852  -8.473  16.759  0.00  0.00    -0.003 C 
ATOM     16  C   UNL     1     -11.735  -7.942  15.857  0.00  0.00    +0.008 C 
ATOM     17  C   UNL     1     -14.205  -7.953  16.264  0.00  0.00    +0.008 C 
ENDBRANCH  13  14
ENDBRANCH   4  13
ENDBRANCH  15   9
TORSDOF 7
ENDMDL
MODEL 10
REMARK VINA RESULT:      -5.6     27.727     31.217
REMARK  Name = 45783633
REMARK  10 active torsions:
REMARK  status: ('A' for Active; 'I' for Inactive)
REMARK    1  A    between atoms: O_2  and  C_25
REMARK    2  A    between atoms: O_2  and  C_26
REMARK    3  A    between atoms: N_4  and  C_13
REMARK    4  A    between atoms: N_8  and  C_23
REMARK    5  A    between atoms: C_9  and  C_15
REMARK    6  A    between atoms: C_13  and  C_14
REMARK    7  A    between atoms: C_14  and  C_16
REMARK    8  A    between atoms: C_14  and  C_17
REMARK    9  A    between atoms: C_18  and  C_19
REMARK   10  A    between atoms: C_24  and  C_25
REMARK                            x       y       z     vdW  Elec       q    Type
REMARK                         _______ _______ _______ _____ _____    ______ ____
ROOT
ATOM      1  O   UNL     1      -5.205  -9.539  15.974  0.00  0.00    -0.336 OA
ATOM      5  N   UNL     1      -5.490 -11.496  17.025  0.00  0.00    -0.190 NA
ATOM      6  N   UNL     1      -6.392  -9.418  16.707  0.00  0.00    -0.056 NA
ATOM     15  C   UNL     1      -4.739 -10.792  16.217  0.00  0.00    +0.245 A 
ATOM     18  C   UNL     1      -6.492 -10.611  17.300  0.00  0.00    +0.204 A 
ENDROOT
BRANCH  18  19
ATOM      7  N   UNL     1      -8.382 -12.187  20.088  0.00  0.00    -0.239 NA
ATOM     19  C   UNL     1      -7.580 -10.952  18.169  0.00  0.00    +0.041 A 
ATOM     20  C   UNL     1      -8.848 -10.417  17.975  0.00  0.00    +0.016 A 
ATOM     21  C   UNL     1      -7.401 -11.824  19.232  0.00  0.00    +0.124 A 
ATOM     22  C   UNL     1      -9.884 -10.765  18.834  0.00  0.00    +0.044 A 
ATOM     23  C   UNL     1      -9.601 -11.646  19.867  0.00  0.00    +0.125 A 
BRANCH  23   8
ATOM      3  O   UNL     1     -11.924 -13.516  19.462  0.00  0.00    -0.273 OA
ATOM      8  N   UNL     1     -10.651 -11.990  20.726  0.00  0.00    -0.268 N 
ATOM     24  C   UNL     1     -11.709 -12.871  20.484  0.00  0.00    +0.244 C 
ATOM     27  H   UNL     1     -10.619 -11.530  21.633  0.00  0.00    +0.156 HD
BRANCH  24  25
ATOM     25  C   UNL     1     -12.650 -12.969  21.665  0.00  0.00    +0.255 C 
BRANCH  25   2
ATOM      2  O   UNL     1     -12.005 -13.677  22.703  0.00  0.00    -0.374 OA
ATOM     26  C   UNL     1     -12.841 -13.820  23.847  0.00  0.00    +0.194 C 
ENDBRANCH  25   2
ENDBRANCH  24  25
ENDBRANCH  23   8
ENDBRANCH  18  19
BRANCH  15   9
ATOM      4  N   UNL     1      -3.272 -10.507  14.226  0.00  0.00    -0.291 NA
ATOM      9  C   UNL     1      -3.444 -11.176  15.531  0.00  0.00    +0.146 C 
ATOM     10  C   UNL     1      -2.199 -10.776  16.343  0.00  0.00    +0.030 C 
ATOM     11  C   UNL     1      -1.830 -10.366  14.020  0.00  0.00    +0.085 C 
ATOM     12  C   UNL     1      -1.359  -9.933  15.394  0.00  0.00    +0.017 C 
BRANCH   4  13
ATOM     13  C   UNL     1      -3.917 -11.215  13.128  0.00  0.00    +0.088 C 
BRANCH  13  14
ATOM     14  C   UNL     1      -3.297 -10.872  11.762  0.00  0.00    -0.003 C 
ATOM     16  C   UNL     1      -3.328 -12.106  10.856  0.00  0.00    +0.008 C 
ATOM     17  C   UNL     1      -4.009  -9.707  11.070  0.00  0.00    +0.008 C 
ENDBRANCH  13  14
ENDBRANCH   4  13
ENDBRANCH  15   9
TORSDOF 7
ENDMDL
