MODEL 1
REMARK VINA RESULT:      -6.1      0.000      0.000
REMARK  Name = 45784112
REMARK  15 active torsions:
REMARK  status: ('A' for Active; 'I' for Inactive)
REMARK    1  A    between atoms: N_2  and  C_13
REMARK    2  A    between atoms: N_2  and  C_19
REMARK    3  A    between atoms: C_6  and  C_10
REMARK    4  A    between atoms: C_7  and  C_13
REMARK    5  A    between atoms: C_9  and  C_14
REMARK    6  A    between atoms: C_10  and  C_15
REMARK    7  A    between atoms: C_10  and  C_16
REMARK    8  A    between atoms: C_11  and  C_17
REMARK    9  A    between atoms: C_14  and  C_18
REMARK   10  A    between atoms: C_19  and  C_22
REMARK   11  A    between atoms: C_20  and  C_21
REMARK   12  A    between atoms: C_21  and  C_23
REMARK   13  A    between atoms: C_21  and  C_24
REMARK   14  A    between atoms: C_21  and  C_25
REMARK   15  A    between atoms: C_30  and  C_31
REMARK                            x       y       z     vdW  Elec       q    Type
REMARK                         _______ _______ _______ _____ _____    ______ ____
ROOT
ATOM      6  C   UNL     1      -9.494  -9.121  17.229  0.00  0.00    +0.000 C 
ATOM      7  C   UNL     1      -9.877 -10.572  17.600  0.00  0.00    +0.029 C 
ATOM      8  C   UNL     1      -8.058  -9.066  16.690  0.00  0.00    +0.012 C 
ATOM      9  C   UNL     1      -7.825  -9.986  15.472  0.00  0.00    +0.024 C 
ATOM     11  C   UNL     1      -8.536 -11.325  15.594  0.00  0.00    -0.073 C 
ATOM     12  C   UNL     1      -9.441 -11.572  16.558  0.00  0.00    -0.023 C 
ATOM     17  C   UNL     1      -8.237 -12.367  14.550  0.00  0.00    +0.039 C 
ENDROOT
BRANCH   6  10
ATOM     10  C   UNL     1     -10.488  -8.520  16.226  0.00  0.00    -0.013 C 
ATOM     15  C   UNL     1     -11.916  -8.664  16.740  0.00  0.00    +0.007 C 
ATOM     16  C   UNL     1     -10.153  -7.056  15.959  0.00  0.00    +0.007 C 
ENDBRANCH   6  10
BRANCH   7  13
ATOM     13  C   UNL     1      -9.302 -10.979  18.960  0.00  0.00    +0.089 C 
BRANCH  13   2
ATOM      2  N   UNL     1      -8.933 -12.384  18.962  0.00  0.00    -0.311 NA
ATOM     32  H   UNL     1      -8.818 -12.700  18.000  0.00  0.00    +0.122 HD
BRANCH   2  19
ATOM     19  C   UNL     1      -7.697 -12.601  19.707  0.00  0.00    +0.116 C 
BRANCH  19  22
ATOM     22  C   UNL     1      -6.484 -12.222  18.901  0.00  0.00    -0.034 A 
ATOM     26  C   UNL     1      -5.796 -11.043  19.188  0.00  0.00    +0.006 A 
ATOM     27  C   UNL     1      -6.046 -13.051  17.868  0.00  0.00    +0.006 A 
ATOM     28  C   UNL     1      -4.672 -10.692  18.441  0.00  0.00    +0.019 A 
ATOM     29  C   UNL     1      -4.921 -12.699  17.120  0.00  0.00    +0.019 A 
ATOM     30  C   UNL     1      -4.234 -11.520  17.408  0.00  0.00    +0.052 A 
BRANCH  30  31
ATOM      5  N   UNL     1      -2.146 -10.866  16.022  0.00  0.00    -0.191 NA
ATOM     31  C   UNL     1      -3.082 -11.160  16.643  0.00  0.00    +0.099 C 
ENDBRANCH  30  31
ENDBRANCH  19  22
ENDBRANCH   2  19
ENDBRANCH  13   2
ENDBRANCH   7  13
BRANCH   9  14
ATOM     14  C   UNL     1      -6.315 -10.130  15.249  0.00  0.00    +0.105 C 
BRANCH  14  18
ATOM      1  O   UNL     1      -4.729 -10.340  13.406  0.00  0.00    -0.424 OA
ATOM      3  N   UNL     1      -6.633  -9.301  12.860  0.00  0.00    -0.112 NA
ATOM      4  N   UNL     1      -5.834  -9.350  11.733  0.00  0.00    -0.112 NA
ATOM     18  C   UNL     1      -5.948  -9.890  13.812  0.00  0.00    +0.218 A 
ATOM     20  C   UNL     1      -4.735  -9.965  12.097  0.00  0.00    +0.223 A 
BRANCH  20  21
ATOM     21  C   UNL     1      -3.541 -10.297  11.308  0.00  0.00    +0.040 C 
ATOM     23  C   UNL     1      -3.273  -9.244  10.177  0.00  0.00    +0.020 C 
ATOM     24  C   UNL     1      -3.671 -11.692  10.603  0.00  0.00    +0.020 C 
ATOM     25  C   UNL     1      -2.183 -10.379  12.102  0.00  0.00    +0.020 C 
ENDBRANCH  20  21
ENDBRANCH  14  18
ENDBRANCH   9  14
TORSDOF 9
ENDMDL
MODEL 2
REMARK VINA RESULT:      -5.8      2.177      7.139
REMARK  Name = 45784112
REMARK  15 active torsions:
REMARK  status: ('A' for Active; 'I' for Inactive)
REMARK    1  A    between atoms: N_2  and  C_13
REMARK    2  A    between atoms: N_2  and  C_19
REMARK    3  A    between atoms: C_6  and  C_10
REMARK    4  A    between atoms: C_7  and  C_13
REMARK    5  A    between atoms: C_9  and  C_14
REMARK    6  A    between atoms: C_10  and  C_15
REMARK    7  A    between atoms: C_10  and  C_16
REMARK    8  A    between atoms: C_11  and  C_17
REMARK    9  A    between atoms: C_14  and  C_18
REMARK   10  A    between atoms: C_19  and  C_22
REMARK   11  A    between atoms: C_20  and  C_21
REMARK   12  A    between atoms: C_21  and  C_23
REMARK   13  A    between atoms: C_21  and  C_24
REMARK   14  A    between atoms: C_21  and  C_25
REMARK   15  A    between atoms: C_30  and  C_31
REMARK                            x       y       z     vdW  Elec       q    Type
REMARK                         _______ _______ _______ _____ _____    ______ ____
ROOT
ATOM      6  C   UNL     1      -4.298 -10.900  17.269  0.00  0.00    +0.000 C 
ATOM      7  C   UNL     1      -3.715 -11.899  16.243  0.00  0.00    +0.029 C 
ATOM      8  C   UNL     1      -5.397 -10.046  16.622  0.00  0.00    +0.012 C 
ATOM      9  C   UNL     1      -6.542 -10.882  16.011  0.00  0.00    +0.024 C 
ATOM     11  C   UNL     1      -6.052 -12.141  15.312  0.00  0.00    -0.073 C 
ATOM     12  C   UNL     1      -4.782 -12.572  15.418  0.00  0.00    -0.023 C 
ATOM     17  C   UNL     1      -7.060 -12.938  14.530  0.00  0.00    +0.039 C 
ENDROOT
BRANCH   6  10
ATOM     10  C   UNL     1      -4.819 -11.622  18.519  0.00  0.00    -0.013 C 
ATOM     15  C   UNL     1      -3.655 -12.131  19.364  0.00  0.00    +0.007 C 
ATOM     16  C   UNL     1      -5.714 -10.694  19.334  0.00  0.00    +0.007 C 
ENDBRANCH   6  10
BRANCH   7  13
ATOM     13  C   UNL     1      -2.705 -11.226  15.309  0.00  0.00    +0.089 C 
BRANCH  13   2
ATOM      2  N   UNL     1      -2.748 -11.828  13.988  0.00  0.00    -0.311 NA
ATOM     32  H   UNL     1      -3.719 -12.011  13.736  0.00  0.00    +0.122 HD
BRANCH   2  19
ATOM     19  C   UNL     1      -2.134 -10.956  12.993  0.00  0.00    +0.116 C 
BRANCH  19  22
ATOM     22  C   UNL     1      -3.161 -10.312  12.101  0.00  0.00    -0.034 A 
ATOM     26  C   UNL     1      -4.494 -10.246  12.506  0.00  0.00    +0.006 A 
ATOM     27  C   UNL     1      -2.779  -9.781  10.868  0.00  0.00    +0.006 A 
ATOM     28  C   UNL     1      -5.446  -9.650  11.679  0.00  0.00    +0.019 A 
ATOM     29  C   UNL     1      -3.732  -9.185  10.041  0.00  0.00    +0.019 A 
ATOM     30  C   UNL     1      -5.065  -9.120  10.447  0.00  0.00    +0.052 A 
BRANCH  30  31
ATOM      5  N   UNL     1      -6.833  -8.012   8.911  0.00  0.00    -0.191 NA
ATOM     31  C   UNL     1      -6.040  -8.509   9.600  0.00  0.00    +0.099 C 
ENDBRANCH  30  31
ENDBRANCH  19  22
ENDBRANCH   2  19
ENDBRANCH  13   2
ENDBRANCH   7  13
BRANCH   9  14
ATOM     14  C   UNL     1      -7.375  -9.977  15.096  0.00  0.00    +0.105 C 
BRANCH  14  18
ATOM      1  O   UNL     1      -9.492  -8.764  15.162  0.00  0.00    -0.424 OA
ATOM      3  N   UNL     1      -8.490  -8.964  17.152  0.00  0.00    -0.112 NA
ATOM      4  N   UNL     1      -9.667  -8.262  17.335  0.00  0.00    -0.112 NA
ATOM     18  C   UNL     1      -8.429  -9.236  15.870  0.00  0.00    +0.218 A 
ATOM     20  C   UNL     1     -10.218  -8.170  16.148  0.00  0.00    +0.223 A 
BRANCH  20  21
ATOM     21  C   UNL     1     -11.480  -7.532  15.749  0.00  0.00    +0.040 C 
ATOM     23  C   UNL     1     -11.525  -6.017  16.150  0.00  0.00    +0.020 C 
ATOM     24  C   UNL     1     -12.723  -8.214  16.422  0.00  0.00    +0.020 C 
ATOM     25  C   UNL     1     -11.807  -7.543  14.208  0.00  0.00    +0.020 C 
ENDBRANCH  20  21
ENDBRANCH  14  18
ENDBRANCH   9  14
TORSDOF 9
ENDMDL
MODEL 3
REMARK VINA RESULT:      -5.8      1.958      5.100
REMARK  Name = 45784112
REMARK  15 active torsions:
REMARK  status: ('A' for Active; 'I' for Inactive)
REMARK    1  A    between atoms: N_2  and  C_13
REMARK    2  A    between atoms: N_2  and  C_19
REMARK    3  A    between atoms: C_6  and  C_10
REMARK    4  A    between atoms: C_7  and  C_13
REMARK    5  A    between atoms: C_9  and  C_14
REMARK    6  A    between atoms: C_10  and  C_15
REMARK    7  A    between atoms: C_10  and  C_16
REMARK    8  A    between atoms: C_11  and  C_17
REMARK    9  A    between atoms: C_14  and  C_18
REMARK   10  A    between atoms: C_19  and  C_22
REMARK   11  A    between atoms: C_20  and  C_21
REMARK   12  A    between atoms: C_21  and  C_23
REMARK   13  A    between atoms: C_21  and  C_24
REMARK   14  A    between atoms: C_21  and  C_25
REMARK   15  A    between atoms: C_30  and  C_31
REMARK                            x       y       z     vdW  Elec       q    Type
REMARK                         _______ _______ _______ _____ _____    ______ ____
ROOT
ATOM      6  C   UNL     1      -7.829 -10.691  17.061  0.00  0.00    +0.000 C 
ATOM      7  C   UNL     1      -8.143 -11.902  17.970  0.00  0.00    +0.029 C 
ATOM      8  C   UNL     1      -6.340 -10.330  17.142  0.00  0.00    +0.012 C 
ATOM      9  C   UNL     1      -5.405 -11.502  16.777  0.00  0.00    +0.024 C 
ATOM     11  C   UNL     1      -5.889 -12.840  17.314  0.00  0.00    -0.073 C 
ATOM     12  C   UNL     1      -7.111 -12.996  17.855  0.00  0.00    -0.023 C 
ATOM     17  C   UNL     1      -4.968 -14.021  17.170  0.00  0.00    +0.039 C 
ENDROOT
BRANCH   6  10
ATOM     10  C   UNL     1      -8.259 -10.953  15.611  0.00  0.00    -0.013 C 
ATOM     15  C   UNL     1      -9.627 -11.626  15.575  0.00  0.00    +0.007 C 
ATOM     16  C   UNL     1      -8.275  -9.651  14.818  0.00  0.00    +0.007 C 
ENDBRANCH   6  10
BRANCH   7  13
ATOM     13  C   UNL     1      -8.277 -11.489  19.438  0.00  0.00    +0.089 C 
BRANCH  13   2
ATOM      2  N   UNL     1      -9.026 -10.250  19.557  0.00  0.00    -0.311 NA
ATOM     32  H   UNL     1      -8.627  -9.557  18.924  0.00  0.00    +0.122 HD
BRANCH   2  19
ATOM     19  C   UNL     1     -10.435 -10.457  19.242  0.00  0.00    +0.116 C 
BRANCH  19  22
ATOM     22  C   UNL     1     -10.943  -9.442  18.254  0.00  0.00    -0.034 A 
ATOM     26  C   UNL     1     -10.120  -8.394  17.843  0.00  0.00    +0.006 A 
ATOM     27  C   UNL     1     -12.239  -9.550  17.748  0.00  0.00    +0.006 A 
ATOM     28  C   UNL     1     -10.591  -7.454  16.927  0.00  0.00    +0.019 A 
ATOM     29  C   UNL     1     -12.711  -8.609  16.832  0.00  0.00    +0.019 A 
ATOM     30  C   UNL     1     -11.886  -7.561  16.422  0.00  0.00    +0.052 A 
BRANCH  30  31
ATOM      5  N   UNL     1     -12.761  -5.814  14.722  0.00  0.00    -0.191 NA
ATOM     31  C   UNL     1     -12.369  -6.597  15.484  0.00  0.00    +0.099 C 
ENDBRANCH  30  31
ENDBRANCH  19  22
ENDBRANCH   2  19
ENDBRANCH  13   2
ENDBRANCH   7  13
BRANCH   9  14
ATOM     14  C   UNL     1      -3.982 -11.156  17.232  0.00  0.00    +0.105 C 
BRANCH  14  18
ATOM      1  O   UNL     1      -3.625 -11.027  14.822  0.00  0.00    -0.424 OA
ATOM      3  N   UNL     1      -1.834 -10.474  16.043  0.00  0.00    -0.112 NA
ATOM      4  N   UNL     1      -1.493 -10.359  14.708  0.00  0.00    -0.112 NA
ATOM     18  C   UNL     1      -3.086 -10.867  16.062  0.00  0.00    +0.218 A 
ATOM     20  C   UNL     1      -2.568 -10.690  14.033  0.00  0.00    +0.223 A 
BRANCH  20  21
ATOM     21  C   UNL     1      -2.781 -10.744  12.581  0.00  0.00    +0.040 C 
ATOM     23  C   UNL     1      -2.734 -12.213  12.033  0.00  0.00    +0.020 C 
ATOM     24  C   UNL     1      -1.691  -9.935  11.795  0.00  0.00    +0.020 C 
ATOM     25  C   UNL     1      -4.153 -10.172  12.058  0.00  0.00    +0.020 C 
ENDBRANCH  20  21
ENDBRANCH  14  18
ENDBRANCH   9  14
TORSDOF 9
ENDMDL
MODEL 4
REMARK VINA RESULT:      -5.8     24.021     28.171
REMARK  Name = 45784112
REMARK  15 active torsions:
REMARK  status: ('A' for Active; 'I' for Inactive)
REMARK    1  A    between atoms: N_2  and  C_13
REMARK    2  A    between atoms: N_2  and  C_19
REMARK    3  A    between atoms: C_6  and  C_10
REMARK    4  A    between atoms: C_7  and  C_13
REMARK    5  A    between atoms: C_9  and  C_14
REMARK    6  A    between atoms: C_10  and  C_15
REMARK    7  A    between atoms: C_10  and  C_16
REMARK    8  A    between atoms: C_11  and  C_17
REMARK    9  A    between atoms: C_14  and  C_18
REMARK   10  A    between atoms: C_19  and  C_22
REMARK   11  A    between atoms: C_20  and  C_21
REMARK   12  A    between atoms: C_21  and  C_23
REMARK   13  A    between atoms: C_21  and  C_24
REMARK   14  A    between atoms: C_21  and  C_25
REMARK   15  A    between atoms: C_30  and  C_31
REMARK                            x       y       z     vdW  Elec       q    Type
REMARK                         _______ _______ _______ _____ _____    ______ ____
ROOT
ATOM      6  C   UNL     1      12.219   7.658   5.157  0.00  0.00    +0.000 C 
ATOM      7  C   UNL     1      11.472   8.875   4.566  0.00  0.00    +0.029 C 
ATOM      8  C   UNL     1      13.270   7.141   4.165  0.00  0.00    +0.012 C 
ATOM      9  C   UNL     1      14.294   8.216   3.742  0.00  0.00    +0.024 C 
ATOM     11  C   UNL     1      13.666   9.585   3.533  0.00  0.00    -0.073 C 
ATOM     12  C   UNL     1      12.400   9.857   3.897  0.00  0.00    -0.023 C 
ATOM     17  C   UNL     1      14.535  10.666   2.949  0.00  0.00    +0.039 C 
ENDROOT
BRANCH   6  10
ATOM     10  C   UNL     1      12.853   7.995   6.513  0.00  0.00    -0.013 C 
ATOM     15  C   UNL     1      11.945   8.926   7.309  0.00  0.00    +0.007 C 
ATOM     16  C   UNL     1      13.140   6.718   7.297  0.00  0.00    +0.007 C 
ENDBRANCH   6  10
BRANCH   7  13
ATOM     13  C   UNL     1      10.389   8.447   3.571  0.00  0.00    +0.089 C 
BRANCH  13   2
ATOM      2  N   UNL     1       9.066   8.635   4.140  0.00  0.00    -0.311 NA
ATOM     32  H   UNL     1       8.507   9.205   3.505  0.00  0.00    +0.122 HD
BRANCH   2  19
ATOM     19  C   UNL     1       8.405   7.355   4.368  0.00  0.00    +0.116 C 
BRANCH  19  22
ATOM     22  C   UNL     1       8.781   6.759   5.698  0.00  0.00    -0.034 A 
ATOM     26  C   UNL     1       8.532   7.466   6.875  0.00  0.00    +0.006 A 
ATOM     27  C   UNL     1       9.378   5.499   5.755  0.00  0.00    +0.006 A 
ATOM     28  C   UNL     1       8.880   6.914   8.107  0.00  0.00    +0.019 A 
ATOM     29  C   UNL     1       9.727   4.948   6.988  0.00  0.00    +0.019 A 
ATOM     30  C   UNL     1       9.477   5.656   8.164  0.00  0.00    +0.052 A 
BRANCH  30  31
ATOM      5  N   UNL     1      10.123   4.632  10.454  0.00  0.00    -0.191 NA
ATOM     31  C   UNL     1       9.834   5.091   9.427  0.00  0.00    +0.099 C 
ENDBRANCH  30  31
ENDBRANCH  19  22
ENDBRANCH   2  19
ENDBRANCH  13   2
ENDBRANCH   7  13
BRANCH   9  14
ATOM     14  C   UNL     1      15.052   7.712   2.508  0.00  0.00    +0.105 C 
BRANCH  14  18
ATOM      1  O   UNL     1      13.932   5.746   1.593  0.00  0.00    -0.424 OA
ATOM      3  N   UNL     1      13.439   7.655   0.536  0.00  0.00    -0.112 NA
ATOM      4  N   UNL     1      12.742   6.632  -0.080  0.00  0.00    -0.112 NA
ATOM     18  C   UNL     1      14.120   7.092   1.507  0.00  0.00    +0.218 A 
ATOM     20  C   UNL     1      13.059   5.538   0.569  0.00  0.00    +0.223 A 
BRANCH  20  21
ATOM     21  C   UNL     1      12.613   4.156   0.350  0.00  0.00    +0.040 C 
ATOM     23  C   UNL     1      13.183   3.558  -0.983  0.00  0.00    +0.020 C 
ATOM     24  C   UNL     1      11.050   4.050   0.260  0.00  0.00    +0.020 C 
ATOM     25  C   UNL     1      13.018   3.111   1.457  0.00  0.00    +0.020 C 
ENDBRANCH  20  21
ENDBRANCH  14  18
ENDBRANCH   9  14
TORSDOF 9
ENDMDL
MODEL 5
REMARK VINA RESULT:      -5.7     24.235     27.297
REMARK  Name = 45784112
REMARK  15 active torsions:
REMARK  status: ('A' for Active; 'I' for Inactive)
REMARK    1  A    between atoms: N_2  and  C_13
REMARK    2  A    between atoms: N_2  and  C_19
REMARK    3  A    between atoms: C_6  and  C_10
REMARK    4  A    between atoms: C_7  and  C_13
REMARK    5  A    between atoms: C_9  and  C_14
REMARK    6  A    between atoms: C_10  and  C_15
REMARK    7  A    between atoms: C_10  and  C_16
REMARK    8  A    between atoms: C_11  and  C_17
REMARK    9  A    between atoms: C_14  and  C_18
REMARK   10  A    between atoms: C_19  and  C_22
REMARK   11  A    between atoms: C_20  and  C_21
REMARK   12  A    between atoms: C_21  and  C_23
REMARK   13  A    between atoms: C_21  and  C_24
REMARK   14  A    between atoms: C_21  and  C_25
REMARK   15  A    between atoms: C_30  and  C_31
REMARK                            x       y       z     vdW  Elec       q    Type
REMARK                         _______ _______ _______ _____ _____    ______ ____
ROOT
ATOM      6  C   UNL     1       8.412   9.848   2.413  0.00  0.00    +0.000 C 
ATOM      7  C   UNL     1       7.997  10.137   3.874  0.00  0.00    +0.029 C 
ATOM      8  C   UNL     1       9.482   8.749   2.367  0.00  0.00    +0.012 C 
ATOM      9  C   UNL     1       9.041   7.435   3.045  0.00  0.00    +0.024 C 
ATOM     11  C   UNL     1       8.246   7.662   4.322  0.00  0.00    -0.073 C 
ATOM     12  C   UNL     1       7.799   8.879   4.681  0.00  0.00    -0.023 C 
ATOM     17  C   UNL     1       7.917   6.456   5.159  0.00  0.00    +0.039 C 
ENDROOT
BRANCH   6  10
ATOM     10  C   UNL     1       7.198   9.478   1.550  0.00  0.00    -0.013 C 
ATOM     15  C   UNL     1       6.039  10.429   1.826  0.00  0.00    +0.007 C 
ATOM     16  C   UNL     1       7.572   9.494   0.072  0.00  0.00    +0.007 C 
ENDBRANCH   6  10
BRANCH   7  13
ATOM     13  C   UNL     1       9.015  11.035   4.584  0.00  0.00    +0.089 C 
BRANCH  13   2
ATOM      2  N   UNL     1       8.910  10.891   6.025  0.00  0.00    -0.311 NA
ATOM     32  H   UNL     1       8.189  10.203   6.240  0.00  0.00    +0.122 HD
BRANCH   2  19
ATOM     19  C   UNL     1      10.181  10.476   6.606  0.00  0.00    +0.116 C 
BRANCH  19  22
ATOM     22  C   UNL     1      10.129   9.061   7.116  0.00  0.00    -0.034 A 
ATOM     26  C   UNL     1      11.113   8.146   6.740  0.00  0.00    +0.006 A 
ATOM     27  C   UNL     1       9.095   8.663   7.965  0.00  0.00    +0.006 A 
ATOM     28  C   UNL     1      11.065   6.835   7.212  0.00  0.00    +0.019 A 
ATOM     29  C   UNL     1       9.047   7.351   8.437  0.00  0.00    +0.019 A 
ATOM     30  C   UNL     1      10.032   6.437   8.060  0.00  0.00    +0.052 A 
BRANCH  30  31
ATOM      5  N   UNL     1       9.942   4.002   8.936  0.00  0.00    -0.191 NA
ATOM     31  C   UNL     1       9.982   5.094   8.544  0.00  0.00    +0.099 C 
ENDBRANCH  30  31
ENDBRANCH  19  22
ENDBRANCH   2  19
ENDBRANCH  13   2
ENDBRANCH   7  13
BRANCH   9  14
ATOM     14  C   UNL     1      10.278   6.555   3.262  0.00  0.00    +0.105 C 
BRANCH  14  18
ATOM      1  O   UNL     1      11.924   5.357   1.915  0.00  0.00    -0.424 OA
ATOM      3  N   UNL     1       9.898   5.495   0.976  0.00  0.00    -0.112 NA
ATOM      4  N   UNL     1      10.724   4.798   0.113  0.00  0.00    -0.112 NA
ATOM     18  C   UNL     1      10.641   5.802   2.014  0.00  0.00    +0.218 A 
ATOM     20  C   UNL     1      11.894   4.741   0.702  0.00  0.00    +0.223 A 
BRANCH  20  21
ATOM     21  C   UNL     1      13.143   4.119   0.244  0.00  0.00    +0.040 C 
ATOM     23  C   UNL     1      13.902   3.395   1.410  0.00  0.00    +0.020 C 
ATOM     24  C   UNL     1      14.140   5.172  -0.357  0.00  0.00    +0.020 C 
ATOM     25  C   UNL     1      13.003   3.022  -0.878  0.00  0.00    +0.020 C 
ENDBRANCH  20  21
ENDBRANCH  14  18
ENDBRANCH   9  14
TORSDOF 9
ENDMDL
MODEL 6
REMARK VINA RESULT:      -5.7      3.118      5.928
REMARK  Name = 45784112
REMARK  15 active torsions:
REMARK  status: ('A' for Active; 'I' for Inactive)
REMARK    1  A    between atoms: N_2  and  C_13
REMARK    2  A    between atoms: N_2  and  C_19
REMARK    3  A    between atoms: C_6  and  C_10
REMARK    4  A    between atoms: C_7  and  C_13
REMARK    5  A    between atoms: C_9  and  C_14
REMARK    6  A    between atoms: C_10  and  C_15
REMARK    7  A    between atoms: C_10  and  C_16
REMARK    8  A    between atoms: C_11  and  C_17
REMARK    9  A    between atoms: C_14  and  C_18
REMARK   10  A    between atoms: C_19  and  C_22
REMARK   11  A    between atoms: C_20  and  C_21
REMARK   12  A    between atoms: C_21  and  C_23
REMARK   13  A    between atoms: C_21  and  C_24
REMARK   14  A    between atoms: C_21  and  C_25
REMARK   15  A    between atoms: C_30  and  C_31
REMARK                            x       y       z     vdW  Elec       q    Type
REMARK                         _______ _______ _______ _____ _____    ______ ____
ROOT
ATOM      6  C   UNL     1      -4.997 -10.709  13.297  0.00  0.00    +0.000 C 
ATOM      7  C   UNL     1      -3.904 -11.801  13.335  0.00  0.00    +0.029 C 
ATOM      8  C   UNL     1      -4.820  -9.815  12.063  0.00  0.00    +0.012 C 
ATOM      9  C   UNL     1      -4.830 -10.598  10.733  0.00  0.00    +0.024 C 
ATOM     11  C   UNL     1      -4.091 -11.924  10.818  0.00  0.00    -0.073 C 
ATOM     12  C   UNL     1      -3.675 -12.440  11.989  0.00  0.00    -0.023 C 
ATOM     17  C   UNL     1      -3.885 -12.688   9.538  0.00  0.00    +0.039 C 
ENDROOT
BRANCH   6  10
ATOM     10  C   UNL     1      -6.403 -11.323  13.341  0.00  0.00    -0.013 C 
ATOM     15  C   UNL     1      -6.469 -12.428  14.390  0.00  0.00    +0.007 C 
ATOM     16  C   UNL     1      -7.445 -10.246  13.623  0.00  0.00    +0.007 C 
ENDBRANCH   6  10
BRANCH   7  13
ATOM     13  C   UNL     1      -2.575 -11.254  13.866  0.00  0.00    +0.089 C 
BRANCH  13   2
ATOM      2  N   UNL     1      -2.806 -10.249  14.888  0.00  0.00    -0.311 NA
ATOM     32  H   UNL     1      -3.760  -9.900  14.804  0.00  0.00    +0.122 HD
BRANCH   2  19
ATOM     19  C   UNL     1      -2.595 -10.799  16.223  0.00  0.00    +0.116 C 
BRANCH  19  22
ATOM     22  C   UNL     1      -3.873 -10.851  17.016  0.00  0.00    -0.034 A 
ATOM     26  C   UNL     1      -3.992 -11.730  18.092  0.00  0.00    +0.006 A 
ATOM     27  C   UNL     1      -4.940 -10.019  16.674  0.00  0.00    +0.006 A 
ATOM     28  C   UNL     1      -5.176 -11.777  18.827  0.00  0.00    +0.019 A 
ATOM     29  C   UNL     1      -6.125 -10.067  17.410  0.00  0.00    +0.019 A 
ATOM     30  C   UNL     1      -6.242 -10.947  18.486  0.00  0.00    +0.052 A 
BRANCH  30  31
ATOM      5  N   UNL     1      -8.442 -11.037  19.850  0.00  0.00    -0.191 NA
ATOM     31  C   UNL     1      -7.456 -10.996  19.239  0.00  0.00    +0.099 C 
ENDBRANCH  30  31
ENDBRANCH  19  22
ENDBRANCH   2  19
ENDBRANCH  13   2
ENDBRANCH   7  13
BRANCH   9  14
ATOM     14  C   UNL     1      -4.294  -9.686   9.623  0.00  0.00    +0.105 C 
BRANCH  14  18
ATOM      1  O   UNL     1      -6.332  -8.606   8.827  0.00  0.00    -0.424 OA
ATOM      3  N   UNL     1      -5.395  -9.996   7.346  0.00  0.00    -0.112 NA
ATOM      4  N   UNL     1      -6.531  -9.459   6.769  0.00  0.00    -0.112 NA
ATOM     18  C   UNL     1      -5.319  -9.471   8.546  0.00  0.00    +0.218 A 
ATOM     20  C   UNL     1      -7.045  -8.654   7.668  0.00  0.00    +0.223 A 
BRANCH  20  21
ATOM     21  C   UNL     1      -8.251  -7.819   7.597  0.00  0.00    +0.040 C 
ATOM     23  C   UNL     1      -7.977  -6.349   8.070  0.00  0.00    +0.020 C 
ATOM     24  C   UNL     1      -9.407  -8.375   8.500  0.00  0.00    +0.020 C 
ATOM     25  C   UNL     1      -8.903  -7.661   6.172  0.00  0.00    +0.020 C 
ENDBRANCH  20  21
ENDBRANCH  14  18
ENDBRANCH   9  14
TORSDOF 9
ENDMDL
MODEL 7
REMARK VINA RESULT:      -5.6     25.669     27.936
REMARK  Name = 45784112
REMARK  15 active torsions:
REMARK  status: ('A' for Active; 'I' for Inactive)
REMARK    1  A    between atoms: N_2  and  C_13
REMARK    2  A    between atoms: N_2  and  C_19
REMARK    3  A    between atoms: C_6  and  C_10
REMARK    4  A    between atoms: C_7  and  C_13
REMARK    5  A    between atoms: C_9  and  C_14
REMARK    6  A    between atoms: C_10  and  C_15
REMARK    7  A    between atoms: C_10  and  C_16
REMARK    8  A    between atoms: C_11  and  C_17
REMARK    9  A    between atoms: C_14  and  C_18
REMARK   10  A    between atoms: C_19  and  C_22
REMARK   11  A    between atoms: C_20  and  C_21
REMARK   12  A    between atoms: C_21  and  C_23
REMARK   13  A    between atoms: C_21  and  C_24
REMARK   14  A    between atoms: C_21  and  C_25
REMARK   15  A    between atoms: C_30  and  C_31
REMARK                            x       y       z     vdW  Elec       q    Type
REMARK                         _______ _______ _______ _____ _____    ______ ____
ROOT
ATOM      6  C   UNL     1       8.636   9.239   3.397  0.00  0.00    +0.000 C 
ATOM      7  C   UNL     1       7.964   8.283   4.409  0.00  0.00    +0.029 C 
ATOM      8  C   UNL     1      10.161   9.069   3.429  0.00  0.00    +0.012 C 
ATOM      9  C   UNL     1      10.622   7.622   3.153  0.00  0.00    +0.024 C 
ATOM     11  C   UNL     1       9.732   6.579   3.809  0.00  0.00    -0.073 C 
ATOM     12  C   UNL     1       8.553   6.895   4.375  0.00  0.00    -0.023 C 
ATOM     17  C   UNL     1      10.186   5.145   3.755  0.00  0.00    +0.039 C 
ENDROOT
BRANCH   6  10
ATOM     10  C   UNL     1       8.083   9.031   1.980  0.00  0.00    -0.013 C 
ATOM     15  C   UNL     1       6.637   9.507   1.898  0.00  0.00    +0.007 C 
ATOM     16  C   UNL     1       8.952   9.758   0.959  0.00  0.00    +0.007 C 
ENDBRANCH   6  10
BRANCH   7  13
ATOM     13  C   UNL     1       8.041   8.827   5.839  0.00  0.00    +0.089 C 
BRANCH  13   2
ATOM      2  N   UNL     1       7.983   7.745   6.805  0.00  0.00    -0.311 NA
ATOM     32  H   UNL     1       8.264   6.876   6.350  0.00  0.00    +0.122 HD
BRANCH   2  19
ATOM     19  C   UNL     1       8.852   8.011   7.945  0.00  0.00    +0.116 C 
BRANCH  19  22
ATOM     22  C   UNL     1      10.307   7.951   7.567  0.00  0.00    -0.034 A 
ATOM     26  C   UNL     1      11.031   9.129   7.384  0.00  0.00    +0.006 A 
ATOM     27  C   UNL     1      10.934   6.715   7.399  0.00  0.00    +0.006 A 
ATOM     28  C   UNL     1      12.380   9.073   7.034  0.00  0.00    +0.019 A 
ATOM     29  C   UNL     1      12.283   6.659   7.048  0.00  0.00    +0.019 A 
ATOM     30  C   UNL     1      13.006   7.838   6.865  0.00  0.00    +0.052 A 
BRANCH  30  31
ATOM      5  N   UNL     1      15.510   7.734   6.215  0.00  0.00    -0.191 NA
ATOM     31  C   UNL     1      14.387   7.781   6.506  0.00  0.00    +0.099 C 
ENDBRANCH  30  31
ENDBRANCH  19  22
ENDBRANCH   2  19
ENDBRANCH  13   2
ENDBRANCH   7  13
BRANCH   9  14
ATOM     14  C   UNL     1      12.095   7.491   3.560  0.00  0.00    +0.105 C 
BRANCH  14  18
ATOM      1  O   UNL     1      12.973   5.610   2.277  0.00  0.00    -0.424 OA
ATOM      3  N   UNL     1      13.647   7.612   1.542  0.00  0.00    -0.112 NA
ATOM      4  N   UNL     1      14.214   6.646   0.732  0.00  0.00    -0.112 NA
ATOM     18  C   UNL     1      12.931   6.962   2.430  0.00  0.00    +0.218 A 
ATOM     20  C   UNL     1      13.793   5.494   1.197  0.00  0.00    +0.223 A 
BRANCH  20  21
ATOM     21  C   UNL     1      14.077   4.133   0.723  0.00  0.00    +0.040 C 
ATOM     23  C   UNL     1      13.874   3.995  -0.826  0.00  0.00    +0.020 C 
ATOM     24  C   UNL     1      13.143   3.068   1.397  0.00  0.00    +0.020 C 
ATOM     25  C   UNL     1      15.537   3.599   0.979  0.00  0.00    +0.020 C 
ENDBRANCH  20  21
ENDBRANCH  14  18
ENDBRANCH   9  14
TORSDOF 9
ENDMDL
MODEL 8
REMARK VINA RESULT:      -5.5      3.085      5.839
REMARK  Name = 45784112
REMARK  15 active torsions:
REMARK  status: ('A' for Active; 'I' for Inactive)
REMARK    1  A    between atoms: N_2  and  C_13
REMARK    2  A    between atoms: N_2  and  C_19
REMARK    3  A    between atoms: C_6  and  C_10
REMARK    4  A    between atoms: C_7  and  C_13
REMARK    5  A    between atoms: C_9  and  C_14
REMARK    6  A    between atoms: C_10  and  C_15
REMARK    7  A    between atoms: C_10  and  C_16
REMARK    8  A    between atoms: C_11  and  C_17
REMARK    9  A    between atoms: C_14  and  C_18
REMARK   10  A    between atoms: C_19  and  C_22
REMARK   11  A    between atoms: C_20  and  C_21
REMARK   12  A    between atoms: C_21  and  C_23
REMARK   13  A    between atoms: C_21  and  C_24
REMARK   14  A    between atoms: C_21  and  C_25
REMARK   15  A    between atoms: C_30  and  C_31
REMARK                            x       y       z     vdW  Elec       q    Type
REMARK                         _______ _______ _______ _____ _____    ______ ____
ROOT
ATOM      6  C   UNL     1      -4.944 -10.800  13.515  0.00  0.00    +0.000 C 
ATOM      7  C   UNL     1      -3.786 -11.824  13.474  0.00  0.00    +0.029 C 
ATOM      8  C   UNL     1      -4.874  -9.862  12.303  0.00  0.00    +0.012 C 
ATOM      9  C   UNL     1      -4.894 -10.605  10.950  0.00  0.00    +0.024 C 
ATOM     11  C   UNL     1      -4.074 -11.886  10.963  0.00  0.00    -0.073 C 
ATOM     12  C   UNL     1      -3.577 -12.408  12.099  0.00  0.00    -0.023 C 
ATOM     17  C   UNL     1      -3.878 -12.598   9.652  0.00  0.00    +0.039 C 
ENDROOT
BRANCH   6  10
ATOM     10  C   UNL     1      -6.307 -11.501  13.598  0.00  0.00    -0.013 C 
ATOM     15  C   UNL     1      -6.274 -12.610  14.643  0.00  0.00    +0.007 C 
ATOM     16  C   UNL     1      -7.405 -10.490  13.915  0.00  0.00    +0.007 C 
ENDBRANCH   6  10
BRANCH   7  13
ATOM     13  C   UNL     1      -2.471 -11.212  13.966  0.00  0.00    +0.089 C 
BRANCH  13   2
ATOM      2  N   UNL     1      -2.720 -10.234  15.010  0.00  0.00    -0.311 NA
ATOM     32  H   UNL     1      -3.670  -9.877  14.914  0.00  0.00    +0.122 HD
BRANCH   2  19
ATOM     19  C   UNL     1      -2.543 -10.822  16.334  0.00  0.00    +0.116 C 
BRANCH  19  22
ATOM     22  C   UNL     1      -3.837 -10.877  17.100  0.00  0.00    -0.034 A 
ATOM     26  C   UNL     1      -3.990 -11.786  18.147  0.00  0.00    +0.006 A 
ATOM     27  C   UNL     1      -4.884 -10.018  16.763  0.00  0.00    +0.006 A 
ATOM     28  C   UNL     1      -5.189 -11.836  18.857  0.00  0.00    +0.019 A 
ATOM     29  C   UNL     1      -6.084 -10.069  17.473  0.00  0.00    +0.019 A 
ATOM     30  C   UNL     1      -6.236 -10.978  18.520  0.00  0.00    +0.052 A 
BRANCH  30  31
ATOM      5  N   UNL     1      -8.463 -11.072  19.840  0.00  0.00    -0.191 NA
ATOM     31  C   UNL     1      -7.464 -11.030  19.248  0.00  0.00    +0.099 C 
ENDBRANCH  30  31
ENDBRANCH  19  22
ENDBRANCH   2  19
ENDBRANCH  13   2
ENDBRANCH   7  13
BRANCH   9  14
ATOM     14  C   UNL     1      -4.462  -9.631   9.849  0.00  0.00    +0.105 C 
BRANCH  14  18
ATOM      1  O   UNL     1      -5.684  -9.752   7.740  0.00  0.00    -0.424 OA
ATOM      3  N   UNL     1      -6.620  -8.409   9.265  0.00  0.00    -0.112 NA
ATOM      4  N   UNL     1      -7.410  -8.383   8.130  0.00  0.00    -0.112 NA
ATOM     18  C   UNL     1      -5.625  -9.220   8.992  0.00  0.00    +0.218 A 
ATOM     20  C   UNL     1      -6.826  -9.181   7.268  0.00  0.00    +0.223 A 
BRANCH  20  21
ATOM     21  C   UNL     1      -7.227  -9.534   5.900  0.00  0.00    +0.040 C 
ATOM     23  C   UNL     1      -8.657 -10.174   5.852  0.00  0.00    +0.020 C 
ATOM     24  C   UNL     1      -6.247 -10.572   5.249  0.00  0.00    +0.020 C 
ATOM     25  C   UNL     1      -7.290  -8.347   4.866  0.00  0.00    +0.020 C 
ENDBRANCH  20  21
ENDBRANCH  14  18
ENDBRANCH   9  14
TORSDOF 9
ENDMDL
MODEL 9
REMARK VINA RESULT:      -5.4      2.152      5.294
REMARK  Name = 45784112
REMARK  15 active torsions:
REMARK  status: ('A' for Active; 'I' for Inactive)
REMARK    1  A    between atoms: N_2  and  C_13
REMARK    2  A    between atoms: N_2  and  C_19
REMARK    3  A    between atoms: C_6  and  C_10
REMARK    4  A    between atoms: C_7  and  C_13
REMARK    5  A    between atoms: C_9  and  C_14
REMARK    6  A    between atoms: C_10  and  C_15
REMARK    7  A    between atoms: C_10  and  C_16
REMARK    8  A    between atoms: C_11  and  C_17
REMARK    9  A    between atoms: C_14  and  C_18
REMARK   10  A    between atoms: C_19  and  C_22
REMARK   11  A    between atoms: C_20  and  C_21
REMARK   12  A    between atoms: C_21  and  C_23
REMARK   13  A    between atoms: C_21  and  C_24
REMARK   14  A    between atoms: C_21  and  C_25
REMARK   15  A    between atoms: C_30  and  C_31
REMARK                            x       y       z     vdW  Elec       q    Type
REMARK                         _______ _______ _______ _____ _____    ______ ____
ROOT
ATOM      6  C   UNL     1      -5.005 -12.318  15.731  0.00  0.00    +0.000 C 
ATOM      7  C   UNL     1      -4.916 -10.831  16.147  0.00  0.00    +0.029 C 
ATOM      8  C   UNL     1      -4.078 -12.599  14.541  0.00  0.00    +0.012 C 
ATOM      9  C   UNL     1      -2.605 -12.228  14.811  0.00  0.00    +0.024 C 
ATOM     11  C   UNL     1      -2.451 -10.937  15.600  0.00  0.00    -0.073 C 
ATOM     12  C   UNL     1      -3.498 -10.322  16.180  0.00  0.00    -0.023 C 
ATOM     17  C   UNL     1      -1.061 -10.387  15.768  0.00  0.00    +0.039 C 
ENDROOT
BRANCH   6  10
ATOM     10  C   UNL     1      -4.691 -13.248  16.911  0.00  0.00    -0.013 C 
ATOM     15  C   UNL     1      -5.061 -12.579  18.230  0.00  0.00    +0.007 C 
ATOM     16  C   UNL     1      -5.426 -14.575  16.752  0.00  0.00    +0.007 C 
ENDBRANCH   6  10
BRANCH   7  13
ATOM     13  C   UNL     1      -5.752  -9.936  15.227  0.00  0.00    +0.089 C 
BRANCH  13   2
ATOM      2  N   UNL     1      -6.796  -9.261  15.978  0.00  0.00    -0.311 NA
ATOM     32  H   UNL     1      -6.897  -8.308  15.628  0.00  0.00    +0.122 HD
BRANCH   2  19
ATOM     19  C   UNL     1      -8.067  -9.968  15.862  0.00  0.00    +0.116 C 
BRANCH  19  22
ATOM     22  C   UNL     1      -8.276 -10.933  16.998  0.00  0.00    -0.034 A 
ATOM     26  C   UNL     1      -8.177 -10.492  18.317  0.00  0.00    +0.006 A 
ATOM     27  C   UNL     1      -8.569 -12.272  16.731  0.00  0.00    +0.006 A 
ATOM     28  C   UNL     1      -8.371 -11.386  19.369  0.00  0.00    +0.019 A 
ATOM     29  C   UNL     1      -8.762 -13.167  17.784  0.00  0.00    +0.019 A 
ATOM     30  C   UNL     1      -8.663 -12.723  19.103  0.00  0.00    +0.052 A 
BRANCH  30  31
ATOM      5  N   UNL     1      -9.023 -14.384  21.058  0.00  0.00    -0.191 NA
ATOM     31  C   UNL     1      -8.862 -13.640  20.181  0.00  0.00    +0.099 C 
ENDBRANCH  30  31
ENDBRANCH  19  22
ENDBRANCH   2  19
ENDBRANCH  13   2
ENDBRANCH   7  13
BRANCH   9  14
ATOM     14  C   UNL     1      -1.853 -12.203  13.474  0.00  0.00    +0.105 C 
BRANCH  14  18
ATOM      1  O   UNL     1      -3.273 -10.815  12.056  0.00  0.00    -0.424 OA
ATOM      3  N   UNL     1      -3.250 -12.979  11.490  0.00  0.00    -0.112 NA
ATOM      4  N   UNL     1      -4.087 -12.317  10.612  0.00  0.00    -0.112 NA
ATOM     18  C   UNL     1      -2.798 -12.064  12.315  0.00  0.00    +0.218 A 
ATOM     20  C   UNL     1      -4.070 -11.057  10.979  0.00  0.00    +0.223 A 
BRANCH  20  21
ATOM     21  C   UNL     1      -4.772  -9.904  10.402  0.00  0.00    +0.040 C 
ATOM     23  C   UNL     1      -5.855 -10.339   9.355  0.00  0.00    +0.020 C 
ATOM     24  C   UNL     1      -3.793  -8.929   9.659  0.00  0.00    +0.020 C 
ATOM     25  C   UNL     1      -5.551  -8.985  11.417  0.00  0.00    +0.020 C 
ENDBRANCH  20  21
ENDBRANCH  14  18
ENDBRANCH   9  14
TORSDOF 9
ENDMDL
MODEL 10
REMARK VINA RESULT:      -5.4      1.693      4.852
REMARK  Name = 45784112
REMARK  15 active torsions:
REMARK  status: ('A' for Active; 'I' for Inactive)
REMARK    1  A    between atoms: N_2  and  C_13
REMARK    2  A    between atoms: N_2  and  C_19
REMARK    3  A    between atoms: C_6  and  C_10
REMARK    4  A    between atoms: C_7  and  C_13
REMARK    5  A    between atoms: C_9  and  C_14
REMARK    6  A    between atoms: C_10  and  C_15
REMARK    7  A    between atoms: C_10  and  C_16
REMARK    8  A    between atoms: C_11  and  C_17
REMARK    9  A    between atoms: C_14  and  C_18
REMARK   10  A    between atoms: C_19  and  C_22
REMARK   11  A    between atoms: C_20  and  C_21
REMARK   12  A    between atoms: C_21  and  C_23
REMARK   13  A    between atoms: C_21  and  C_24
REMARK   14  A    between atoms: C_21  and  C_25
REMARK   15  A    between atoms: C_30  and  C_31
REMARK                            x       y       z     vdW  Elec       q    Type
REMARK                         _______ _______ _______ _____ _____    ______ ____
ROOT
ATOM      6  C   UNL     1      -7.723 -11.974  17.293  0.00  0.00    +0.000 C 
ATOM      7  C   UNL     1      -7.730 -12.054  18.837  0.00  0.00    +0.029 C 
ATOM      8  C   UNL     1      -6.615 -11.029  16.809  0.00  0.00    +0.012 C 
ATOM      9  C   UNL     1      -5.210 -11.426  17.309  0.00  0.00    +0.024 C 
ATOM     11  C   UNL     1      -5.207 -11.920  18.747  0.00  0.00    -0.073 C 
ATOM     12  C   UNL     1      -6.344 -12.184  19.417  0.00  0.00    -0.023 C 
ATOM     17  C   UNL     1      -3.872 -12.167  19.395  0.00  0.00    +0.039 C 
ENDROOT
BRANCH   6  10
ATOM     10  C   UNL     1      -7.581 -13.366  16.661  0.00  0.00    -0.013 C 
ATOM     15  C   UNL     1      -8.531 -14.354  17.330  0.00  0.00    +0.007 C 
ATOM     16  C   UNL     1      -7.841 -13.297  15.160  0.00  0.00    +0.007 C 
ENDBRANCH   6  10
BRANCH   7  13
ATOM     13  C   UNL     1      -8.427 -10.843  19.463  0.00  0.00    +0.089 C 
BRANCH  13   2
ATOM      2  N   UNL     1      -9.865 -11.039  19.498  0.00  0.00    -0.311 NA
ATOM     32  H   UNL     1     -10.161 -11.167  20.466  0.00  0.00    +0.122 HD
BRANCH   2  19
ATOM     19  C   UNL     1     -10.565  -9.902  18.912  0.00  0.00    +0.116 C 
BRANCH  19  22
ATOM     22  C   UNL     1     -10.403  -9.854  17.417  0.00  0.00    -0.034 A 
ATOM     26  C   UNL     1     -10.923 -10.878  16.625  0.00  0.00    +0.006 A 
ATOM     27  C   UNL     1      -9.731  -8.785  16.821  0.00  0.00    +0.006 A 
ATOM     28  C   UNL     1     -10.773 -10.833  15.239  0.00  0.00    +0.019 A 
ATOM     29  C   UNL     1      -9.580  -8.741  15.435  0.00  0.00    +0.019 A 
ATOM     30  C   UNL     1     -10.101  -9.766  14.644  0.00  0.00    +0.052 A 
BRANCH  30  31
ATOM      5  N   UNL     1      -9.822  -9.684  12.071  0.00  0.00    -0.191 NA
ATOM     31  C   UNL     1      -9.947  -9.721  13.224  0.00  0.00    +0.099 C 
ENDBRANCH  30  31
ENDBRANCH  19  22
ENDBRANCH   2  19
ENDBRANCH  13   2
ENDBRANCH   7  13
BRANCH   9  14
ATOM     14  C   UNL     1      -4.257 -10.247  17.081  0.00  0.00    +0.105 C 
BRANCH  14  18
ATOM      1  O   UNL     1      -3.800 -10.505  14.698  0.00  0.00    -0.424 OA
ATOM      3  N   UNL     1      -2.011 -10.795  16.009  0.00  0.00    -0.112 NA
ATOM      4  N   UNL     1      -1.612 -10.968  14.697  0.00  0.00    -0.112 NA
ATOM     18  C   UNL     1      -3.295 -10.527  15.962  0.00  0.00    +0.218 A 
ATOM     20  C   UNL     1      -2.687 -10.789  13.968  0.00  0.00    +0.223 A 
BRANCH  20  21
ATOM     21  C   UNL     1      -2.849 -10.850  12.509  0.00  0.00    +0.040 C 
ATOM     23  C   UNL     1      -1.698 -10.097  11.757  0.00  0.00    +0.020 C 
ATOM     24  C   UNL     1      -4.197 -10.199  12.039  0.00  0.00    +0.020 C 
ATOM     25  C   UNL     1      -2.862 -12.291  11.871  0.00  0.00    +0.020 C 
ENDBRANCH  20  21
ENDBRANCH  14  18
ENDBRANCH   9  14
TORSDOF 9
ENDMDL
