MODEL 1
REMARK VINA RESULT:      -7.6      0.000      0.000
REMARK  Name = 7134479
REMARK  14 active torsions:
REMARK  status: ('A' for Active; 'I' for Inactive)
REMARK    1  A    between atoms: S_1  and  N_12
REMARK    2  A    between atoms: S_1  and  C_24
REMARK    3  A    between atoms: O_5  and  C_15
REMARK    4  A    between atoms: O_6  and  C_18
REMARK    5  A    between atoms: O_7  and  C_20
REMARK    6  A    between atoms: N_12  and  C_16
REMARK    7  A    between atoms: N_13  and  C_22
REMARK    8  A    between atoms: C_15  and  C_21
REMARK    9  A    between atoms: C_22  and  C_23
REMARK   10  A    between atoms: C_22  and  C_26
REMARK   11  A    between atoms: C_23  and  C_25
REMARK   12  A    between atoms: C_25  and  C_29
REMARK   13  A    between atoms: C_25  and  C_30
REMARK   14  A    between atoms: C_31  and  C_34
REMARK                            x       y       z     vdW  Elec       q    Type
REMARK                         _______ _______ _______ _____ _____    ______ ____
ROOT
ATOM     15  C   UNL     1      12.004   9.227  22.244  0.00  0.00    +0.145 C 
ATOM     16  C   UNL     1      12.434   8.554  19.836  0.00  0.00    +0.111 C 
ATOM     17  C   UNL     1      12.068   9.696  20.789  0.00  0.00    +0.067 C 
ATOM     18  C   UNL     1      11.509   7.343  19.997  0.00  0.00    +0.162 C 
ATOM     19  C   UNL     1      11.061   8.036  22.400  0.00  0.00    +0.078 C 
ATOM     20  C   UNL     1      11.422   6.886  21.458  0.00  0.00    +0.148 C 
ENDROOT
BRANCH  15  21
ATOM      8  O   UNL     1      10.407  10.731  23.189  0.00  0.00    -0.273 OA
ATOM     13  N   UNL     1      12.631  10.881  23.861  0.00  0.00    -0.302 N 
ATOM     21  C   UNL     1      11.573  10.349  23.143  0.00  0.00    +0.245 C 
ATOM     39  H   UNL     1      13.544  10.442  23.811  0.00  0.00    +0.150 HD
BRANCH  13  22
ATOM     22  C   UNL     1      12.484  11.986  24.781  0.00  0.00    +0.159 C 
BRANCH  22  26
ATOM     11  O   UNL     1      13.764  12.597  26.757  0.00  0.00    -0.274 OA
ATOM     14  N   UNL     1      14.668  11.078  25.289  0.00  0.00    -0.328 N 
ATOM     26  C   UNL     1      13.688  11.952  25.714  0.00  0.00    +0.231 C 
ATOM     40  H   UNL     1      14.581  10.534  24.437  0.00  0.00    +0.145 HD
ATOM     41  H   UNL     1      15.517  10.949  25.828  0.00  0.00    +0.145 HD
ENDBRANCH  22  26
BRANCH  22  23
ATOM     23  C   UNL     1      12.411  13.337  24.059  0.00  0.00    +0.034 C 
BRANCH  23  25
ATOM     25  C   UNL     1      11.181  14.197  24.417  0.00  0.00    -0.015 C 
ATOM     29  C   UNL     1      10.543  13.675  25.707  0.00  0.00    +0.007 C 
ATOM     30  C   UNL     1      10.139  14.217  23.298  0.00  0.00    +0.007 C 
ENDBRANCH  23  25
ENDBRANCH  22  23
ENDBRANCH  13  22
ENDBRANCH  15  21
BRANCH  15   5
ATOM      5  O   UNL     1      13.298   8.862  22.706  0.00  0.00    -0.379 OA
ATOM     36  H   UNL     1      13.386   9.116  23.639  0.00  0.00    +0.211 HD
ENDBRANCH  15   5
BRANCH  18   6
ATOM      6  O   UNL     1      12.043   6.274  19.214  0.00  0.00    -0.388 OA
ATOM     37  H   UNL     1      12.196   5.514  19.803  0.00  0.00    +0.210 HD
ENDBRANCH  18   6
BRANCH  20   7
ATOM      7  O   UNL     1      10.411   5.887  21.589  0.00  0.00    -0.389 OA
ATOM     38  H   UNL     1      10.161   5.603  20.692  0.00  0.00    +0.210 HD
ENDBRANCH  20   7
BRANCH  16  12
ATOM     12  N   UNL     1      12.340   9.056  18.437  0.00  0.00    -0.184 NA
ATOM     35  H   UNL     1      11.485   8.840  17.912  0.00  0.00    +0.148 HD
BRANCH  12   1
ATOM      1  S   UNL     1      13.736   9.600  17.648  0.00  0.00    +0.059 S 
ATOM      9  O   UNL     1      13.616  11.019  17.372  0.00  0.00    -0.153 OA
ATOM     10  O   UNL     1      14.054   8.674  16.578  0.00  0.00    -0.153 OA
BRANCH   1  24
ATOM     24  C   UNL     1      14.970   9.391  18.896  0.00  0.00    +0.106 A 
ATOM     27  C   UNL     1      15.418   8.111  19.226  0.00  0.00    +0.041 A 
ATOM     28  C   UNL     1      15.495  10.504  19.551  0.00  0.00    +0.028 A 
ATOM     31  C   UNL     1      16.391   7.945  20.211  0.00  0.00    +0.057 A 
ATOM     32  C   UNL     1      16.470  10.339  20.536  0.00  0.00    +0.002 A 
ATOM     33  C   UNL     1      16.918   9.059  20.866  0.00  0.00    +0.012 A 
BRANCH  31  34
ATOM      2  F   UNL     1      18.177   6.541  20.960  0.00  0.00    -0.166 F 
ATOM      3  F   UNL     1      16.173   6.001  21.587  0.00  0.00    -0.166 F 
ATOM      4  F   UNL     1      16.780   5.703  19.520  0.00  0.00    -0.166 F 
ATOM     34  C   UNL     1      16.870   6.578  20.564  0.00  0.00    +0.417 C 
ENDBRANCH  31  34
ENDBRANCH   1  24
ENDBRANCH  12   1
ENDBRANCH  16  12
TORSDOF 12
ENDMDL
MODEL 2
REMARK VINA RESULT:      -7.1     14.817     18.355
REMARK  Name = 7134479
REMARK  14 active torsions:
REMARK  status: ('A' for Active; 'I' for Inactive)
REMARK    1  A    between atoms: S_1  and  N_12
REMARK    2  A    between atoms: S_1  and  C_24
REMARK    3  A    between atoms: O_5  and  C_15
REMARK    4  A    between atoms: O_6  and  C_18
REMARK    5  A    between atoms: O_7  and  C_20
REMARK    6  A    between atoms: N_12  and  C_16
REMARK    7  A    between atoms: N_13  and  C_22
REMARK    8  A    between atoms: C_15  and  C_21
REMARK    9  A    between atoms: C_22  and  C_23
REMARK   10  A    between atoms: C_22  and  C_26
REMARK   11  A    between atoms: C_23  and  C_25
REMARK   12  A    between atoms: C_25  and  C_29
REMARK   13  A    between atoms: C_25  and  C_30
REMARK   14  A    between atoms: C_31  and  C_34
REMARK                            x       y       z     vdW  Elec       q    Type
REMARK                         _______ _______ _______ _____ _____    ______ ____
ROOT
ATOM     15  C   UNL     1      13.731   7.766   4.264  0.00  0.00    +0.145 C 
ATOM     16  C   UNL     1      12.189   9.269   5.605  0.00  0.00    +0.111 C 
ATOM     17  C   UNL     1      12.488   8.657   4.234  0.00  0.00    +0.067 C 
ATOM     18  C   UNL     1      13.398  10.010   6.186  0.00  0.00    +0.162 C 
ATOM     19  C   UNL     1      14.937   8.519   4.822  0.00  0.00    +0.078 C 
ATOM     20  C   UNL     1      14.652   9.129   6.196  0.00  0.00    +0.148 C 
ENDROOT
BRANCH  15  21
ATOM      8  O   UNL     1      14.620   7.920   2.053  0.00  0.00    -0.273 OA
ATOM     13  N   UNL     1      13.577   5.946   2.712  0.00  0.00    -0.302 N 
ATOM     21  C   UNL     1      14.039   7.239   2.893  0.00  0.00    +0.245 C 
ATOM     39  H   UNL     1      13.177   5.440   3.496  0.00  0.00    +0.150 HD
BRANCH  13  22
ATOM     22  C   UNL     1      13.727   5.220   1.471  0.00  0.00    +0.159 C 
BRANCH  22  26
ATOM     11  O   UNL     1      13.295   2.840   1.719  0.00  0.00    -0.274 OA
ATOM     14  N   UNL     1      15.378   3.641   2.266  0.00  0.00    -0.328 N 
ATOM     26  C   UNL     1      14.074   3.783   1.836  0.00  0.00    +0.231 C 
ATOM     40  H   UNL     1      16.018   4.426   2.335  0.00  0.00    +0.145 HD
ATOM     41  H   UNL     1      15.743   2.732   2.527  0.00  0.00    +0.145 HD
ENDBRANCH  22  26
BRANCH  22  23
ATOM     23  C   UNL     1      12.453   5.258   0.618  0.00  0.00    +0.034 C 
BRANCH  23  25
ATOM     25  C   UNL     1      11.158   5.561   1.401  0.00  0.00    -0.015 C 
ATOM     29  C   UNL     1      10.165   4.410   1.221  0.00  0.00    +0.007 C 
ATOM     30  C   UNL     1      10.508   6.875   0.964  0.00  0.00    +0.007 C 
ENDBRANCH  23  25
ENDBRANCH  22  23
ENDBRANCH  13  22
ENDBRANCH  15  21
BRANCH  15   5
ATOM      5  O   UNL     1      13.495   6.610   5.058  0.00  0.00    -0.379 OA
ATOM     36  H   UNL     1      14.314   6.092   5.118  0.00  0.00    +0.211 HD
ENDBRANCH  15   5
BRANCH  18   6
ATOM      6  O   UNL     1      13.085  10.375   7.532  0.00  0.00    -0.388 OA
ATOM     37  H   UNL     1      13.595  11.173   7.756  0.00  0.00    +0.210 HD
ENDBRANCH  18   6
BRANCH  20   7
ATOM      7  O   UNL     1      15.787   9.913   6.563  0.00  0.00    -0.389 OA
ATOM     38  H   UNL     1      15.781  10.714   6.011  0.00  0.00    +0.210 HD
ENDBRANCH  20   7
BRANCH  16  12
ATOM     12  N   UNL     1      11.057  10.225   5.460  0.00  0.00    -0.184 NA
ATOM     35  H   UNL     1      11.237  11.102   4.958  0.00  0.00    +0.148 HD
BRANCH  12   1
ATOM      1  S   UNL     1       9.675  10.037   6.422  0.00  0.00    +0.059 S 
ATOM      9  O   UNL     1       8.544  10.677   5.777  0.00  0.00    -0.153 OA
ATOM     10  O   UNL     1      10.016  10.368   7.792  0.00  0.00    -0.153 OA
BRANCH   1  24
ATOM     24  C   UNL     1       9.419   8.289   6.362  0.00  0.00    +0.106 A 
ATOM     27  C   UNL     1       9.591   7.519   7.512  0.00  0.00    +0.041 A 
ATOM     28  C   UNL     1       9.048   7.679   5.164  0.00  0.00    +0.028 A 
ATOM     31  C   UNL     1       9.390   6.140   7.466  0.00  0.00    +0.057 A 
ATOM     32  C   UNL     1       8.845   6.300   5.116  0.00  0.00    +0.002 A 
ATOM     33  C   UNL     1       9.017   5.530   6.267  0.00  0.00    +0.012 A 
BRANCH  31  34
ATOM      2  F   UNL     1      10.743   5.567   9.354  0.00  0.00    -0.166 F 
ATOM      3  F   UNL     1       8.593   5.504   9.629  0.00  0.00    -0.166 F 
ATOM      4  F   UNL     1       9.579   3.977   8.435  0.00  0.00    -0.166 F 
ATOM     34  C   UNL     1       9.572   5.317   8.695  0.00  0.00    +0.417 C 
ENDBRANCH  31  34
ENDBRANCH   1  24
ENDBRANCH  12   1
ENDBRANCH  16  12
TORSDOF 12
ENDMDL
MODEL 3
REMARK VINA RESULT:      -7.0      3.140      3.723
REMARK  Name = 7134479
REMARK  14 active torsions:
REMARK  status: ('A' for Active; 'I' for Inactive)
REMARK    1  A    between atoms: S_1  and  N_12
REMARK    2  A    between atoms: S_1  and  C_24
REMARK    3  A    between atoms: O_5  and  C_15
REMARK    4  A    between atoms: O_6  and  C_18
REMARK    5  A    between atoms: O_7  and  C_20
REMARK    6  A    between atoms: N_12  and  C_16
REMARK    7  A    between atoms: N_13  and  C_22
REMARK    8  A    between atoms: C_15  and  C_21
REMARK    9  A    between atoms: C_22  and  C_23
REMARK   10  A    between atoms: C_22  and  C_26
REMARK   11  A    between atoms: C_23  and  C_25
REMARK   12  A    between atoms: C_25  and  C_29
REMARK   13  A    between atoms: C_25  and  C_30
REMARK   14  A    between atoms: C_31  and  C_34
REMARK                            x       y       z     vdW  Elec       q    Type
REMARK                         _______ _______ _______ _____ _____    ______ ____
ROOT
ATOM     15  C   UNL     1      12.173   9.239  22.094  0.00  0.00    +0.145 C 
ATOM     16  C   UNL     1      12.581   8.620  19.668  0.00  0.00    +0.111 C 
ATOM     17  C   UNL     1      12.189   9.732  20.647  0.00  0.00    +0.067 C 
ATOM     18  C   UNL     1      11.707   7.372  19.828  0.00  0.00    +0.162 C 
ATOM     19  C   UNL     1      11.280   8.009  22.250  0.00  0.00    +0.078 C 
ATOM     20  C   UNL     1      11.668   6.888  21.282  0.00  0.00    +0.148 C 
ENDROOT
BRANCH  15  21
ATOM      8  O   UNL     1      10.533  10.636  23.125  0.00  0.00    -0.273 OA
ATOM     13  N   UNL     1      12.773  10.925  23.689  0.00  0.00    -0.302 N 
ATOM     21  C   UNL     1      11.717  10.329  23.020  0.00  0.00    +0.245 C 
ATOM     39  H   UNL     1      13.709  10.544  23.592  0.00  0.00    +0.150 HD
BRANCH  13  22
ATOM     22  C   UNL     1      12.603  12.016  24.621  0.00  0.00    +0.159 C 
BRANCH  22  26
ATOM     11  O   UNL     1      14.042  12.884  26.379  0.00  0.00    -0.274 OA
ATOM     14  N   UNL     1      14.688  10.977  25.273  0.00  0.00    -0.328 N 
ATOM     26  C   UNL     1      13.839  12.039  25.511  0.00  0.00    +0.231 C 
ATOM     40  H   UNL     1      14.496  10.273  24.568  0.00  0.00    +0.145 HD
ATOM     41  H   UNL     1      15.542  10.865  25.808  0.00  0.00    +0.145 HD
ENDBRANCH  22  26
BRANCH  22  23
ATOM     23  C   UNL     1      12.435  13.365  23.912  0.00  0.00    +0.034 C 
BRANCH  23  25
ATOM     25  C   UNL     1      11.161  14.146  24.298  0.00  0.00    -0.015 C 
ATOM     29  C   UNL     1      10.535  13.527  25.550  0.00  0.00    +0.007 C 
ATOM     30  C   UNL     1      10.131  14.175  23.168  0.00  0.00    +0.007 C 
ENDBRANCH  23  25
ENDBRANCH  22  23
ENDBRANCH  13  22
ENDBRANCH  15  21
BRANCH  15   5
ATOM      5  O   UNL     1      13.490   8.917  22.525  0.00  0.00    -0.379 OA
ATOM     36  H   UNL     1      14.095   9.626  22.256  0.00  0.00    +0.211 HD
ENDBRANCH  15   5
BRANCH  18   6
ATOM      6  O   UNL     1      12.266   6.336  19.017  0.00  0.00    -0.388 OA
ATOM     37  H   UNL     1      12.460   5.574  19.590  0.00  0.00    +0.210 HD
ENDBRANCH  18   6
BRANCH  20   7
ATOM      7  O   UNL     1      10.698   5.849  21.417  0.00  0.00    -0.389 OA
ATOM     38  H   UNL     1      10.679   5.584  22.352  0.00  0.00    +0.210 HD
ENDBRANCH  20   7
BRANCH  16  12
ATOM     12  N   UNL     1      12.438   9.140  18.280  0.00  0.00    -0.184 NA
ATOM     35  H   UNL     1      11.542   9.570  18.024  0.00  0.00    +0.148 HD
BRANCH  12   1
ATOM      1  S   UNL     1      13.555   8.675  17.095  0.00  0.00    +0.059 S 
ATOM      9  O   UNL     1      12.859   8.409  15.850  0.00  0.00    -0.153 OA
ATOM     10  O   UNL     1      14.444   7.679  17.661  0.00  0.00    -0.153 OA
BRANCH   1  24
ATOM     24  C   UNL     1      14.503  10.152  16.883  0.00  0.00    +0.106 A 
ATOM     27  C   UNL     1      14.955  10.515  15.614  0.00  0.00    +0.041 A 
ATOM     28  C   UNL     1      14.801  10.953  17.985  0.00  0.00    +0.028 A 
ATOM     31  C   UNL     1      15.703  11.680  15.446  0.00  0.00    +0.057 A 
ATOM     32  C   UNL     1      15.549  12.119  17.818  0.00  0.00    +0.002 A 
ATOM     33  C   UNL     1      16.000  12.483  16.549  0.00  0.00    +0.012 A 
BRANCH  31  34
ATOM      2  F   UNL     1      15.528  11.436  13.073  0.00  0.00    -0.166 F 
ATOM      3  F   UNL     1      16.052  13.402  13.824  0.00  0.00    -0.166 F 
ATOM      4  F   UNL     1      17.507  11.788  13.901  0.00  0.00    -0.166 F 
ATOM     34  C   UNL     1      16.185  12.069  14.090  0.00  0.00    +0.417 C 
ENDBRANCH  31  34
ENDBRANCH   1  24
ENDBRANCH  12   1
ENDBRANCH  16  12
TORSDOF 12
ENDMDL
MODEL 4
REMARK VINA RESULT:      -6.9      2.492      3.056
REMARK  Name = 7134479
REMARK  14 active torsions:
REMARK  status: ('A' for Active; 'I' for Inactive)
REMARK    1  A    between atoms: S_1  and  N_12
REMARK    2  A    between atoms: S_1  and  C_24
REMARK    3  A    between atoms: O_5  and  C_15
REMARK    4  A    between atoms: O_6  and  C_18
REMARK    5  A    between atoms: O_7  and  C_20
REMARK    6  A    between atoms: N_12  and  C_16
REMARK    7  A    between atoms: N_13  and  C_22
REMARK    8  A    between atoms: C_15  and  C_21
REMARK    9  A    between atoms: C_22  and  C_23
REMARK   10  A    between atoms: C_22  and  C_26
REMARK   11  A    between atoms: C_23  and  C_25
REMARK   12  A    between atoms: C_25  and  C_29
REMARK   13  A    between atoms: C_25  and  C_30
REMARK   14  A    between atoms: C_31  and  C_34
REMARK                            x       y       z     vdW  Elec       q    Type
REMARK                         _______ _______ _______ _____ _____    ______ ____
ROOT
ATOM     15  C   UNL     1      12.264   9.222  21.968  0.00  0.00    +0.145 C 
ATOM     16  C   UNL     1      12.572   8.635  19.520  0.00  0.00    +0.111 C 
ATOM     17  C   UNL     1      12.218   9.732  20.527  0.00  0.00    +0.067 C 
ATOM     18  C   UNL     1      11.710   7.380  19.700  0.00  0.00    +0.162 C 
ATOM     19  C   UNL     1      11.384   7.986  22.145  0.00  0.00    +0.078 C 
ATOM     20  C   UNL     1      11.734   6.879  21.149  0.00  0.00    +0.148 C 
ENDROOT
BRANCH  15  21
ATOM      8  O   UNL     1      10.660  10.521  23.170  0.00  0.00    -0.273 OA
ATOM     13  N   UNL     1      12.925  10.986  23.450  0.00  0.00    -0.302 N 
ATOM     21  C   UNL     1      11.843  10.298  22.926  0.00  0.00    +0.245 C 
ATOM     39  H   UNL     1      13.868  10.673  23.245  0.00  0.00    +0.150 HD
BRANCH  13  22
ATOM     22  C   UNL     1      12.787  12.085  24.379  0.00  0.00    +0.159 C 
BRANCH  22  26
ATOM     11  O   UNL     1      14.881  13.011  25.197  0.00  0.00    -0.274 OA
ATOM     14  N   UNL     1      14.136  11.029  26.086  0.00  0.00    -0.328 N 
ATOM     26  C   UNL     1      14.049  12.108  25.231  0.00  0.00    +0.231 C 
ATOM     40  H   UNL     1      13.428  10.301  26.120  0.00  0.00    +0.145 HD
ATOM     41  H   UNL     1      14.921  10.930  26.720  0.00  0.00    +0.145 HD
ENDBRANCH  22  26
BRANCH  22  23
ATOM     23  C   UNL     1      12.604  13.429  23.665  0.00  0.00    +0.034 C 
BRANCH  23  25
ATOM     25  C   UNL     1      11.223  14.088  23.867  0.00  0.00    -0.015 C 
ATOM     29  C   UNL     1      10.527  13.466  25.081  0.00  0.00    +0.007 C 
ATOM     30  C   UNL     1      10.327  13.953  22.635  0.00  0.00    +0.007 C 
ENDBRANCH  23  25
ENDBRANCH  22  23
ENDBRANCH  13  22
ENDBRANCH  15  21
BRANCH  15   5
ATOM      5  O   UNL     1      13.599   8.901  22.339  0.00  0.00    -0.379 OA
ATOM     36  H   UNL     1      13.954   9.612  22.896  0.00  0.00    +0.211 HD
ENDBRANCH  15   5
BRANCH  18   6
ATOM      6  O   UNL     1      12.239   6.357  18.854  0.00  0.00    -0.388 OA
ATOM     37  H   UNL     1      11.805   6.427  17.986  0.00  0.00    +0.210 HD
ENDBRANCH  18   6
BRANCH  20   7
ATOM      7  O   UNL     1      10.776   5.834  21.311  0.00  0.00    -0.389 OA
ATOM     38  H   UNL     1      11.255   5.037  21.595  0.00  0.00    +0.210 HD
ENDBRANCH  20   7
BRANCH  16  12
ATOM     12  N   UNL     1      12.370   9.170  18.145  0.00  0.00    -0.184 NA
ATOM     35  H   UNL     1      11.442   9.544  17.913  0.00  0.00    +0.148 HD
BRANCH  12   1
ATOM      1  S   UNL     1      13.493   8.805  16.931  0.00  0.00    +0.059 S 
ATOM      9  O   UNL     1      12.819   8.746  15.648  0.00  0.00    -0.153 OA
ATOM     10  O   UNL     1      14.311   7.694  17.376  0.00  0.00    -0.153 OA
BRANCH   1  24
ATOM     24  C   UNL     1      14.524  10.241  16.939  0.00  0.00    +0.106 A 
ATOM     27  C   UNL     1      14.871  10.844  18.148  0.00  0.00    +0.041 A 
ATOM     28  C   UNL     1      14.989  10.772  15.736  0.00  0.00    +0.028 A 
ATOM     31  C   UNL     1      15.684  11.977  18.155  0.00  0.00    +0.057 A 
ATOM     32  C   UNL     1      15.803  11.905  15.742  0.00  0.00    +0.002 A 
ATOM     33  C   UNL     1      16.151  12.508  16.952  0.00  0.00    +0.012 A 
BRANCH  31  34
ATOM      2  F   UNL     1      15.522  12.002  20.542  0.00  0.00    -0.166 F 
ATOM      3  F   UNL     1      17.402  12.648  19.677  0.00  0.00    -0.166 F 
ATOM      4  F   UNL     1      15.645  13.919  19.526  0.00  0.00    -0.166 F 
ATOM     34  C   UNL     1      16.056  12.620  19.447  0.00  0.00    +0.417 C 
ENDBRANCH  31  34
ENDBRANCH   1  24
ENDBRANCH  12   1
ENDBRANCH  16  12
TORSDOF 12
ENDMDL
MODEL 5
REMARK VINA RESULT:      -6.8     26.250     29.824
REMARK  Name = 7134479
REMARK  14 active torsions:
REMARK  status: ('A' for Active; 'I' for Inactive)
REMARK    1  A    between atoms: S_1  and  N_12
REMARK    2  A    between atoms: S_1  and  C_24
REMARK    3  A    between atoms: O_5  and  C_15
REMARK    4  A    between atoms: O_6  and  C_18
REMARK    5  A    between atoms: O_7  and  C_20
REMARK    6  A    between atoms: N_12  and  C_16
REMARK    7  A    between atoms: N_13  and  C_22
REMARK    8  A    between atoms: C_15  and  C_21
REMARK    9  A    between atoms: C_22  and  C_23
REMARK   10  A    between atoms: C_22  and  C_26
REMARK   11  A    between atoms: C_23  and  C_25
REMARK   12  A    between atoms: C_25  and  C_29
REMARK   13  A    between atoms: C_25  and  C_30
REMARK   14  A    between atoms: C_31  and  C_34
REMARK                            x       y       z     vdW  Elec       q    Type
REMARK                         _______ _______ _______ _____ _____    ______ ____
ROOT
ATOM     15  C   UNL     1      -5.285 -11.301  16.494  0.00  0.00    +0.145 C 
ATOM     16  C   UNL     1      -7.182 -11.040  18.158  0.00  0.00    +0.111 C 
ATOM     17  C   UNL     1      -6.526 -10.497  16.885  0.00  0.00    +0.067 C 
ATOM     18  C   UNL     1      -6.191 -11.149  19.321  0.00  0.00    +0.162 C 
ATOM     19  C   UNL     1      -4.292 -11.384  17.651  0.00  0.00    +0.078 C 
ATOM     20  C   UNL     1      -4.935 -11.934  18.926  0.00  0.00    +0.148 C 
ENDROOT
BRANCH  15  21
ATOM      8  O   UNL     1      -5.253 -10.042  14.464  0.00  0.00    -0.273 OA
ATOM     13  N   UNL     1      -3.274 -11.005  15.224  0.00  0.00    -0.302 N 
ATOM     21  C   UNL     1      -4.624 -10.702  15.287  0.00  0.00    +0.245 C 
ATOM     39  H   UNL     1      -2.831 -11.492  15.996  0.00  0.00    +0.150 HD
BRANCH  13  22
ATOM     22  C   UNL     1      -2.415 -10.567  14.148  0.00  0.00    +0.159 C 
BRANCH  22  26
ATOM     11  O   UNL     1      -0.656 -10.342  15.811  0.00  0.00    -0.274 OA
ATOM     14  N   UNL     1      -0.715  -8.848  14.067  0.00  0.00    -0.328 N 
ATOM     26  C   UNL     1      -1.192  -9.924  14.788  0.00  0.00    +0.231 C 
ATOM     40  H   UNL     1      -1.154  -8.528  13.210  0.00  0.00    +0.145 HD
ATOM     41  H   UNL     1       0.105  -8.338  14.376  0.00  0.00    +0.145 HD
ENDBRANCH  22  26
BRANCH  22  23
ATOM     23  C   UNL     1      -1.991 -11.723  13.235  0.00  0.00    +0.034 C 
BRANCH  23  25
ATOM     25  C   UNL     1      -2.635 -11.712  11.833  0.00  0.00    -0.015 C 
ATOM     29  C   UNL     1      -2.863 -10.267  11.381  0.00  0.00    +0.007 C 
ATOM     30  C   UNL     1      -3.958 -12.479  11.793  0.00  0.00    +0.007 C 
ENDBRANCH  23  25
ENDBRANCH  22  23
ENDBRANCH  13  22
ENDBRANCH  15  21
BRANCH  15   5
ATOM      5  O   UNL     1      -5.651 -12.618  16.097  0.00  0.00    -0.379 OA
ATOM     36  H   UNL     1      -5.362 -12.766  15.182  0.00  0.00    +0.211 HD
ENDBRANCH  15   5
BRANCH  18   6
ATOM      6  O   UNL     1      -6.842 -11.838  20.391  0.00  0.00    -0.388 OA
ATOM     37  H   UNL     1      -7.718 -12.124  20.079  0.00  0.00    +0.210 HD
ENDBRANCH  18   6
BRANCH  20   7
ATOM      7  O   UNL     1      -3.966 -11.846  19.970  0.00  0.00    -0.389 OA
ATOM     38  H   UNL     1      -4.447 -11.807  20.815  0.00  0.00    +0.210 HD
ENDBRANCH  20   7
BRANCH  16  12
ATOM     12  N   UNL     1      -8.291 -10.126  18.546  0.00  0.00    -0.184 NA
ATOM     35  H   UNL     1      -8.058  -9.139  18.705  0.00  0.00    +0.148 HD
BRANCH  12   1
ATOM      1  S   UNL     1      -9.761 -10.774  19.081  0.00  0.00    +0.059 S 
ATOM      9  O   UNL     1      -9.942 -10.470  20.488  0.00  0.00    -0.153 OA
ATOM     10  O   UNL     1      -9.863 -12.142  18.612  0.00  0.00    -0.153 OA
BRANCH   1  24
ATOM     24  C   UNL     1     -10.938  -9.825  18.164  0.00  0.00    +0.106 A 
ATOM     27  C   UNL     1     -10.527  -8.685  17.472  0.00  0.00    +0.041 A 
ATOM     28  C   UNL     1     -12.276 -10.215  18.133  0.00  0.00    +0.028 A 
ATOM     31  C   UNL     1     -11.454  -7.936  16.748  0.00  0.00    +0.057 A 
ATOM     32  C   UNL     1     -13.205  -9.467  17.408  0.00  0.00    +0.002 A 
ATOM     33  C   UNL     1     -12.793  -8.327  16.716  0.00  0.00    +0.012 A 
BRANCH  31  34
ATOM      2  F   UNL     1     -11.236  -5.555  16.689  0.00  0.00    -0.166 F 
ATOM      3  F   UNL     1      -9.682  -6.709  15.712  0.00  0.00    -0.166 F 
ATOM      4  F   UNL     1     -11.657  -6.570  14.813  0.00  0.00    -0.166 F 
ATOM     34  C   UNL     1     -11.015  -6.718  16.008  0.00  0.00    +0.417 C 
ENDBRANCH  31  34
ENDBRANCH   1  24
ENDBRANCH  12   1
ENDBRANCH  16  12
TORSDOF 12
ENDMDL
MODEL 6
REMARK VINA RESULT:      -6.8     27.516     29.384
REMARK  Name = 7134479
REMARK  14 active torsions:
REMARK  status: ('A' for Active; 'I' for Inactive)
REMARK    1  A    between atoms: S_1  and  N_12
REMARK    2  A    between atoms: S_1  and  C_24
REMARK    3  A    between atoms: O_5  and  C_15
REMARK    4  A    between atoms: O_6  and  C_18
REMARK    5  A    between atoms: O_7  and  C_20
REMARK    6  A    between atoms: N_12  and  C_16
REMARK    7  A    between atoms: N_13  and  C_22
REMARK    8  A    between atoms: C_15  and  C_21
REMARK    9  A    between atoms: C_22  and  C_23
REMARK   10  A    between atoms: C_22  and  C_26
REMARK   11  A    between atoms: C_23  and  C_25
REMARK   12  A    between atoms: C_25  and  C_29
REMARK   13  A    between atoms: C_25  and  C_30
REMARK   14  A    between atoms: C_31  and  C_34
REMARK                            x       y       z     vdW  Elec       q    Type
REMARK                         _______ _______ _______ _____ _____    ______ ____
ROOT
ATOM     15  C   UNL     1      -6.837 -10.785  18.881  0.00  0.00    +0.145 C 
ATOM     16  C   UNL     1      -5.078 -10.199  17.150  0.00  0.00    +0.111 C 
ATOM     17  C   UNL     1      -6.568 -10.177  17.504  0.00  0.00    +0.067 C 
ATOM     18  C   UNL     1      -4.472 -11.601  17.274  0.00  0.00    +0.162 C 
ATOM     19  C   UNL     1      -6.251 -12.191  18.988  0.00  0.00    +0.078 C 
ATOM     20  C   UNL     1      -4.760 -12.224  18.644  0.00  0.00    +0.148 C 
ENDROOT
BRANCH  15  21
ATOM      8  O   UNL     1      -8.772 -11.453  20.111  0.00  0.00    -0.273 OA
ATOM     13  N   UNL     1      -9.038 -10.076  18.252  0.00  0.00    -0.302 N 
ATOM     21  C   UNL     1      -8.309 -10.815  19.169  0.00  0.00    +0.245 C 
ATOM     39  H   UNL     1      -8.554  -9.520  17.556  0.00  0.00    +0.150 HD
BRANCH  13  22
ATOM     22  C   UNL     1     -10.479  -9.964  18.295  0.00  0.00    +0.159 C 
BRANCH  22  26
ATOM     11  O   UNL     1     -11.952  -8.370  17.198  0.00  0.00    -0.274 OA
ATOM     14  N   UNL     1      -9.799  -7.727  17.673  0.00  0.00    -0.328 N 
ATOM     26  C   UNL     1     -10.841  -8.632  17.651  0.00  0.00    +0.231 C 
ATOM     40  H   UNL     1      -8.892  -7.949  18.072  0.00  0.00    +0.145 HD
ATOM     41  H   UNL     1      -9.911  -6.795  17.289  0.00  0.00    +0.145 HD
ENDBRANCH  22  26
BRANCH  22  23
ATOM     23  C   UNL     1     -11.173 -11.115  17.558  0.00  0.00    +0.034 C 
BRANCH  23  25
ATOM     25  C   UNL     1     -12.016 -12.044  18.457  0.00  0.00    -0.015 C 
ATOM     29  C   UNL     1     -12.311 -11.347  19.788  0.00  0.00    +0.007 C 
ATOM     30  C   UNL     1     -11.325 -13.384  18.719  0.00  0.00    +0.007 C 
ENDBRANCH  23  25
ENDBRANCH  22  23
ENDBRANCH  13  22
ENDBRANCH  15  21
BRANCH  15   5
ATOM      5  O   UNL     1      -6.279  -9.968  19.903  0.00  0.00    -0.379 OA
ATOM     36  H   UNL     1      -5.664 -10.499  20.435  0.00  0.00    +0.211 HD
ENDBRANCH  15   5
BRANCH  18   6
ATOM      6  O   UNL     1      -3.057 -11.484  17.113  0.00  0.00    -0.388 OA
ATOM     37  H   UNL     1      -2.629 -12.051  17.777  0.00  0.00    +0.210 HD
ENDBRANCH  18   6
BRANCH  20   7
ATOM      7  O   UNL     1      -4.347 -13.591  18.646  0.00  0.00    -0.389 OA
ATOM     38  H   UNL     1      -3.392 -13.608  18.825  0.00  0.00    +0.210 HD
ENDBRANCH  20   7
BRANCH  16  12
ATOM     12  N   UNL     1      -4.918  -9.721  15.748  0.00  0.00    -0.184 NA
ATOM     35  H   UNL     1      -4.543  -8.776  15.609  0.00  0.00    +0.148 HD
BRANCH  12   1
ATOM      1  S   UNL     1      -5.691 -10.549  14.489  0.00  0.00    +0.059 S 
ATOM      9  O   UNL     1      -6.929  -9.872  14.151  0.00  0.00    -0.153 OA
ATOM     10  O   UNL     1      -5.696 -11.965  14.800  0.00  0.00    -0.153 OA
BRANCH   1  24
ATOM     24  C   UNL     1      -4.561 -10.319  13.149  0.00  0.00    +0.106 A 
ATOM     27  C   UNL     1      -4.998  -9.731  11.962  0.00  0.00    +0.041 A 
ATOM     28  C   UNL     1      -3.234 -10.727  13.278  0.00  0.00    +0.028 A 
ATOM     31  C   UNL     1      -4.108  -9.550  10.904  0.00  0.00    +0.057 A 
ATOM     32  C   UNL     1      -2.342 -10.545  12.221  0.00  0.00    +0.002 A 
ATOM     33  C   UNL     1      -2.779  -9.957  11.033  0.00  0.00    +0.012 A 
BRANCH  31  34
ATOM      2  F   UNL     1      -5.315  -7.789   9.825  0.00  0.00    -0.166 F 
ATOM      3  F   UNL     1      -3.556  -8.543   8.805  0.00  0.00    -0.166 F 
ATOM      4  F   UNL     1      -5.361  -9.753   8.893  0.00  0.00    -0.166 F 
ATOM     34  C   UNL     1      -4.574  -8.921   9.635  0.00  0.00    +0.417 C 
ENDBRANCH  31  34
ENDBRANCH   1  24
ENDBRANCH  12   1
ENDBRANCH  16  12
TORSDOF 12
ENDMDL
MODEL 7
REMARK VINA RESULT:      -6.8     27.633     28.966
REMARK  Name = 7134479
REMARK  14 active torsions:
REMARK  status: ('A' for Active; 'I' for Inactive)
REMARK    1  A    between atoms: S_1  and  N_12
REMARK    2  A    between atoms: S_1  and  C_24
REMARK    3  A    between atoms: O_5  and  C_15
REMARK    4  A    between atoms: O_6  and  C_18
REMARK    5  A    between atoms: O_7  and  C_20
REMARK    6  A    between atoms: N_12  and  C_16
REMARK    7  A    between atoms: N_13  and  C_22
REMARK    8  A    between atoms: C_15  and  C_21
REMARK    9  A    between atoms: C_22  and  C_23
REMARK   10  A    between atoms: C_22  and  C_26
REMARK   11  A    between atoms: C_23  and  C_25
REMARK   12  A    between atoms: C_25  and  C_29
REMARK   13  A    between atoms: C_25  and  C_30
REMARK   14  A    between atoms: C_31  and  C_34
REMARK                            x       y       z     vdW  Elec       q    Type
REMARK                         _______ _______ _______ _____ _____    ______ ____
ROOT
ATOM     15  C   UNL     1      -6.499 -10.204  16.376  0.00  0.00    +0.145 C 
ATOM     16  C   UNL     1      -4.344 -10.944  15.261  0.00  0.00    +0.111 C 
ATOM     17  C   UNL     1      -5.871 -10.877  15.155  0.00  0.00    +0.067 C 
ATOM     18  C   UNL     1      -3.881 -11.600  16.566  0.00  0.00    +0.162 C 
ATOM     19  C   UNL     1      -6.052 -10.880  17.671  0.00  0.00    +0.078 C 
ATOM     20  C   UNL     1      -4.528 -10.945  17.791  0.00  0.00    +0.148 C 
ENDROOT
BRANCH  15  21
ATOM      8  O   UNL     1      -8.580 -10.790  15.360  0.00  0.00    -0.273 OA
ATOM     13  N   UNL     1      -8.597  -9.508  17.303  0.00  0.00    -0.302 N 
ATOM     21  C   UNL     1      -7.997 -10.218  16.277  0.00  0.00    +0.245 C 
ATOM     39  H   UNL     1      -8.029  -9.137  18.058  0.00  0.00    +0.150 HD
BRANCH  13  22
ATOM     22  C   UNL     1     -10.029  -9.350  17.423  0.00  0.00    +0.159 C 
BRANCH  22  26
ATOM     11  O   UNL     1     -11.597 -10.114  19.117  0.00  0.00    -0.274 OA
ATOM     14  N   UNL     1      -9.347 -10.324  19.529  0.00  0.00    -0.328 N 
ATOM     26  C   UNL     1     -10.432  -9.945  18.765  0.00  0.00    +0.231 C 
ATOM     40  H   UNL     1      -8.389 -10.200  19.216  0.00  0.00    +0.145 HD
ATOM     41  H   UNL     1      -9.477 -10.748  20.441  0.00  0.00    +0.145 HD
ENDBRANCH  22  26
BRANCH  22  23
ATOM     23  C   UNL     1     -10.460  -7.881  17.343  0.00  0.00    +0.034 C 
BRANCH  23  25
ATOM     25  C   UNL     1     -10.426  -7.272  15.925  0.00  0.00    -0.015 C 
ATOM     29  C   UNL     1     -11.225  -5.966  15.904  0.00  0.00    +0.007 C 
ATOM     30  C   UNL     1     -10.975  -8.230  14.867  0.00  0.00    +0.007 C 
ENDBRANCH  23  25
ENDBRANCH  22  23
ENDBRANCH  13  22
ENDBRANCH  15  21
BRANCH  15   5
ATOM      5  O   UNL     1      -6.147  -8.827  16.422  0.00  0.00    -0.379 OA
ATOM     36  H   UNL     1      -6.629  -8.399  17.148  0.00  0.00    +0.211 HD
ENDBRANCH  15   5
BRANCH  18   6
ATOM      6  O   UNL     1      -2.463 -11.443  16.658  0.00  0.00    -0.388 OA
ATOM     37  H   UNL     1      -2.243 -11.223  17.580  0.00  0.00    +0.210 HD
ENDBRANCH  18   6
BRANCH  20   7
ATOM      7  O   UNL     1      -4.220 -11.705  18.960  0.00  0.00    -0.389 OA
ATOM     38  H   UNL     1      -3.569 -12.382  18.707  0.00  0.00    +0.210 HD
ENDBRANCH  20   7
BRANCH  16  12
ATOM     12  N   UNL     1      -3.824 -11.730  14.108  0.00  0.00    -0.184 NA
ATOM     35  H   UNL     1      -4.093 -12.719  14.048  0.00  0.00    +0.148 HD
BRANCH  12   1
ATOM      1  S   UNL     1      -2.542 -11.116  13.188  0.00  0.00    +0.059 S 
ATOM      9  O   UNL     1      -1.800 -12.213  12.595  0.00  0.00    -0.153 OA
ATOM     10  O   UNL     1      -1.852 -10.108  13.969  0.00  0.00    -0.153 OA
BRANCH   1  24
ATOM     24  C   UNL     1      -3.393 -10.270  11.890  0.00  0.00    +0.106 A 
ATOM     27  C   UNL     1      -4.780 -10.136  11.937  0.00  0.00    +0.041 A 
ATOM     28  C   UNL     1      -2.677  -9.738  10.817  0.00  0.00    +0.028 A 
ATOM     31  C   UNL     1      -5.453  -9.469  10.913  0.00  0.00    +0.057 A 
ATOM     32  C   UNL     1      -3.348  -9.070   9.793  0.00  0.00    +0.002 A 
ATOM     33  C   UNL     1      -4.737  -8.935   9.841  0.00  0.00    +0.012 A 
BRANCH  31  34
ATOM      2  F   UNL     1      -7.415  -9.030  12.209  0.00  0.00    -0.166 F 
ATOM      3  F   UNL     1      -7.417  -8.335  10.155  0.00  0.00    -0.166 F 
ATOM      4  F   UNL     1      -7.588 -10.460  10.581  0.00  0.00    -0.166 F 
ATOM     34  C   UNL     1      -6.935  -9.324  10.964  0.00  0.00    +0.417 C 
ENDBRANCH  31  34
ENDBRANCH   1  24
ENDBRANCH  12   1
ENDBRANCH  16  12
TORSDOF 12
ENDMDL
MODEL 8
REMARK VINA RESULT:      -6.8     26.771     30.145
REMARK  Name = 7134479
REMARK  14 active torsions:
REMARK  status: ('A' for Active; 'I' for Inactive)
REMARK    1  A    between atoms: S_1  and  N_12
REMARK    2  A    between atoms: S_1  and  C_24
REMARK    3  A    between atoms: O_5  and  C_15
REMARK    4  A    between atoms: O_6  and  C_18
REMARK    5  A    between atoms: O_7  and  C_20
REMARK    6  A    between atoms: N_12  and  C_16
REMARK    7  A    between atoms: N_13  and  C_22
REMARK    8  A    between atoms: C_15  and  C_21
REMARK    9  A    between atoms: C_22  and  C_23
REMARK   10  A    between atoms: C_22  and  C_26
REMARK   11  A    between atoms: C_23  and  C_25
REMARK   12  A    between atoms: C_25  and  C_29
REMARK   13  A    between atoms: C_25  and  C_30
REMARK   14  A    between atoms: C_31  and  C_34
REMARK                            x       y       z     vdW  Elec       q    Type
REMARK                         _______ _______ _______ _____ _____    ______ ____
ROOT
ATOM     15  C   UNL     1      -5.926 -10.919  16.357  0.00  0.00    +0.145 C 
ATOM     16  C   UNL     1      -7.967 -10.252  17.708  0.00  0.00    +0.111 C 
ATOM     17  C   UNL     1      -7.076  -9.921  16.507  0.00  0.00    +0.067 C 
ATOM     18  C   UNL     1      -7.165 -10.386  19.006  0.00  0.00    +0.162 C 
ATOM     19  C   UNL     1      -5.118 -11.029  17.648  0.00  0.00    +0.078 C 
ATOM     20  C   UNL     1      -5.997 -11.367  18.853  0.00  0.00    +0.148 C 
ENDROOT
BRANCH  15  21
ATOM      8  O   UNL     1      -5.464  -9.964  14.217  0.00  0.00    -0.273 OA
ATOM     13  N   UNL     1      -3.714 -10.898  15.435  0.00  0.00    -0.302 N 
ATOM     21  C   UNL     1      -5.030 -10.528  15.217  0.00  0.00    +0.245 C 
ATOM     39  H   UNL     1      -3.443 -11.290  16.331  0.00  0.00    +0.150 HD
BRANCH  13  22
ATOM     22  C   UNL     1      -2.657 -10.657  14.479  0.00  0.00    +0.159 C 
BRANCH  22  26
ATOM     11  O   UNL     1      -0.738  -9.243  14.963  0.00  0.00    -0.274 OA
ATOM     14  N   UNL     1      -1.221 -10.968  16.401  0.00  0.00    -0.328 N 
ATOM     26  C   UNL     1      -1.435 -10.207  15.270  0.00  0.00    +0.231 C 
ATOM     40  H   UNL     1      -1.820 -11.748  16.655  0.00  0.00    +0.145 HD
ATOM     41  H   UNL     1      -0.448 -10.766  17.025  0.00  0.00    +0.145 HD
ENDBRANCH  22  26
BRANCH  22  23
ATOM     23  C   UNL     1      -2.325 -11.905  13.653  0.00  0.00    +0.034 C 
BRANCH  23  25
ATOM     25  C   UNL     1      -2.513 -11.743  12.130  0.00  0.00    -0.015 C 
ATOM     29  C   UNL     1      -2.150 -10.316  11.713  0.00  0.00    +0.007 C 
ATOM     30  C   UNL     1      -3.940 -12.063  11.683  0.00  0.00    +0.007 C 
ENDBRANCH  23  25
ENDBRANCH  22  23
ENDBRANCH  13  22
ENDBRANCH  15  21
BRANCH  15   5
ATOM      5  O   UNL     1      -6.425 -12.204  16.008  0.00  0.00    -0.379 OA
ATOM     36  H   UNL     1      -6.624 -12.222  15.058  0.00  0.00    +0.211 HD
ENDBRANCH  15   5
BRANCH  18   6
ATOM      6  O   UNL     1      -8.046 -10.879  20.018  0.00  0.00    -0.388 OA
ATOM     37  H   UNL     1      -7.795 -10.470  20.864  0.00  0.00    +0.210 HD
ENDBRANCH  18   6
BRANCH  20   7
ATOM      7  O   UNL     1      -5.172 -11.316  20.017  0.00  0.00    -0.389 OA
ATOM     38  H   UNL     1      -4.899 -10.391  20.143  0.00  0.00    +0.210 HD
ENDBRANCH  20   7
BRANCH  16  12
ATOM     12  N   UNL     1      -8.971  -9.163  17.866  0.00  0.00    -0.184 NA
ATOM     35  H   UNL     1      -8.656  -8.286  18.295  0.00  0.00    +0.148 HD
BRANCH  12   1
ATOM      1  S   UNL     1     -10.620  -9.517  17.710  0.00  0.00    +0.059 S 
ATOM      9  O   UNL     1     -11.251  -9.476  19.016  0.00  0.00    -0.153 OA
ATOM     10  O   UNL     1     -10.765 -10.689  16.867  0.00  0.00    -0.153 OA
BRANCH   1  24
ATOM     24  C   UNL     1     -11.207  -8.135  16.778  0.00  0.00    +0.106 A 
ATOM     27  C   UNL     1     -12.565  -8.021  16.480  0.00  0.00    +0.041 A 
ATOM     28  C   UNL     1     -10.313  -7.160  16.338  0.00  0.00    +0.028 A 
ATOM     31  C   UNL     1     -13.029  -6.931  15.745  0.00  0.00    +0.057 A 
ATOM     32  C   UNL     1     -10.776  -6.068  15.602  0.00  0.00    +0.002 A 
ATOM     33  C   UNL     1     -12.135  -5.954  15.306  0.00  0.00    +0.012 A 
BRANCH  31  34
ATOM      2  F   UNL     1     -14.771  -5.774  14.583  0.00  0.00    -0.166 F 
ATOM      3  F   UNL     1     -15.005  -7.916  14.826  0.00  0.00    -0.166 F 
ATOM      4  F   UNL     1     -15.246  -6.598  16.538  0.00  0.00    -0.166 F 
ATOM     34  C   UNL     1     -14.481  -6.808  15.428  0.00  0.00    +0.417 C 
ENDBRANCH  31  34
ENDBRANCH   1  24
ENDBRANCH  12   1
ENDBRANCH  16  12
TORSDOF 12
ENDMDL
MODEL 9
REMARK VINA RESULT:      -6.7     27.916     29.317
REMARK  Name = 7134479
REMARK  14 active torsions:
REMARK  status: ('A' for Active; 'I' for Inactive)
REMARK    1  A    between atoms: S_1  and  N_12
REMARK    2  A    between atoms: S_1  and  C_24
REMARK    3  A    between atoms: O_5  and  C_15
REMARK    4  A    between atoms: O_6  and  C_18
REMARK    5  A    between atoms: O_7  and  C_20
REMARK    6  A    between atoms: N_12  and  C_16
REMARK    7  A    between atoms: N_13  and  C_22
REMARK    8  A    between atoms: C_15  and  C_21
REMARK    9  A    between atoms: C_22  and  C_23
REMARK   10  A    between atoms: C_22  and  C_26
REMARK   11  A    between atoms: C_23  and  C_25
REMARK   12  A    between atoms: C_25  and  C_29
REMARK   13  A    between atoms: C_25  and  C_30
REMARK   14  A    between atoms: C_31  and  C_34
REMARK                            x       y       z     vdW  Elec       q    Type
REMARK                         _______ _______ _______ _____ _____    ______ ____
ROOT
ATOM     15  C   UNL     1      -6.100 -10.147  16.357  0.00  0.00    +0.145 C 
ATOM     16  C   UNL     1      -4.365 -11.069  14.753  0.00  0.00    +0.111 C 
ATOM     17  C   UNL     1      -5.857 -10.848  15.020  0.00  0.00    +0.067 C 
ATOM     18  C   UNL     1      -3.671 -11.802  15.907  0.00  0.00    +0.162 C 
ATOM     19  C   UNL     1      -5.426 -10.897  17.505  0.00  0.00    +0.078 C 
ATOM     20  C   UNL     1      -3.933 -11.117  17.253  0.00  0.00    +0.148 C 
ENDROOT
BRANCH  15  21
ATOM      8  O   UNL     1      -8.104 -10.528  17.600  0.00  0.00    -0.273 OA
ATOM     13  N   UNL     1      -8.213  -9.268  15.645  0.00  0.00    -0.302 N 
ATOM     21  C   UNL     1      -7.571 -10.009  16.623  0.00  0.00    +0.245 C 
ATOM     39  H   UNL     1      -7.669  -8.815  14.919  0.00  0.00    +0.150 HD
BRANCH  13  22
ATOM     22  C   UNL     1      -9.635  -9.009  15.657  0.00  0.00    +0.159 C 
BRANCH  22  26
ATOM     11  O   UNL     1     -10.086  -6.620  15.637  0.00  0.00    -0.274 OA
ATOM     14  N   UNL     1      -9.746  -7.657  17.659  0.00  0.00    -0.328 N 
ATOM     26  C   UNL     1      -9.833  -7.635  16.282  0.00  0.00    +0.231 C 
ATOM     40  H   UNL     1      -9.559  -8.507  18.180  0.00  0.00    +0.145 HD
ATOM     41  H   UNL     1      -9.872  -6.809  18.201  0.00  0.00    +0.145 HD
ENDBRANCH  22  26
BRANCH  22  23
ATOM     23  C   UNL     1     -10.243  -9.045  14.250  0.00  0.00    +0.034 C 
BRANCH  23  25
ATOM     25  C   UNL     1     -10.891 -10.390  13.858  0.00  0.00    -0.015 C 
ATOM     29  C   UNL     1     -11.463 -11.071  15.103  0.00  0.00    +0.007 C 
ATOM     30  C   UNL     1      -9.903 -11.331  13.164  0.00  0.00    +0.007 C 
ENDBRANCH  23  25
ENDBRANCH  22  23
ENDBRANCH  13  22
ENDBRANCH  15  21
BRANCH  15   5
ATOM      5  O   UNL     1      -5.606  -8.814  16.318  0.00  0.00    -0.379 OA
ATOM     36  H   UNL     1      -4.879  -8.725  16.954  0.00  0.00    +0.211 HD
ENDBRANCH  15   5
BRANCH  18   6
ATOM      6  O   UNL     1      -2.265 -11.790  15.653  0.00  0.00    -0.388 OA
ATOM     37  H   UNL     1      -2.130 -11.848  14.692  0.00  0.00    +0.210 HD
ENDBRANCH  18   6
BRANCH  20   7
ATOM      7  O   UNL     1      -3.433 -11.934  18.312  0.00  0.00    -0.389 OA
ATOM     38  H   UNL     1      -3.960 -11.740  19.106  0.00  0.00    +0.210 HD
ENDBRANCH  20   7
BRANCH  16  12
ATOM     12  N   UNL     1      -4.221 -11.874  13.509  0.00  0.00    -0.184 NA
ATOM     35  H   UNL     1      -4.677 -12.793  13.483  0.00  0.00    +0.148 HD
BRANCH  12   1
ATOM      1  S   UNL     1      -3.037 -11.454  12.373  0.00  0.00    +0.059 S 
ATOM      9  O   UNL     1      -2.639 -12.632  11.627  0.00  0.00    -0.153 OA
ATOM     10  O   UNL     1      -2.036 -10.634  13.029  0.00  0.00    -0.153 OA
BRANCH   1  24
ATOM     24  C   UNL     1      -3.936 -10.394  11.279  0.00  0.00    +0.106 A 
ATOM     27  C   UNL     1      -5.316 -10.253  11.423  0.00  0.00    +0.041 A 
ATOM     28  C   UNL     1      -3.265  -9.701  10.272  0.00  0.00    +0.028 A 
ATOM     31  C   UNL     1      -6.026  -9.418  10.560  0.00  0.00    +0.057 A 
ATOM     32  C   UNL     1      -3.973  -8.864   9.410  0.00  0.00    +0.002 A 
ATOM     33  C   UNL     1      -5.355  -8.723   9.554  0.00  0.00    +0.012 A 
BRANCH  31  34
ATOM      2  F   UNL     1      -7.895  -9.015  11.998  0.00  0.00    -0.166 F 
ATOM      3  F   UNL     1      -8.026  -8.244   9.975  0.00  0.00    -0.166 F 
ATOM      4  F   UNL     1      -8.187 -10.383  10.334  0.00  0.00    -0.166 F 
ATOM     34  C   UNL     1      -7.501  -9.266  10.714  0.00  0.00    +0.417 C 
ENDBRANCH  31  34
ENDBRANCH   1  24
ENDBRANCH  12   1
ENDBRANCH  16  12
TORSDOF 12
ENDMDL
MODEL 10
REMARK VINA RESULT:      -6.7      4.802      6.224
REMARK  Name = 7134479
REMARK  14 active torsions:
REMARK  status: ('A' for Active; 'I' for Inactive)
REMARK    1  A    between atoms: S_1  and  N_12
REMARK    2  A    between atoms: S_1  and  C_24
REMARK    3  A    between atoms: O_5  and  C_15
REMARK    4  A    between atoms: O_6  and  C_18
REMARK    5  A    between atoms: O_7  and  C_20
REMARK    6  A    between atoms: N_12  and  C_16
REMARK    7  A    between atoms: N_13  and  C_22
REMARK    8  A    between atoms: C_15  and  C_21
REMARK    9  A    between atoms: C_22  and  C_23
REMARK   10  A    between atoms: C_22  and  C_26
REMARK   11  A    between atoms: C_23  and  C_25
REMARK   12  A    between atoms: C_25  and  C_29
REMARK   13  A    between atoms: C_25  and  C_30
REMARK   14  A    between atoms: C_31  and  C_34
REMARK                            x       y       z     vdW  Elec       q    Type
REMARK                         _______ _______ _______ _____ _____    ______ ____
ROOT
ATOM     15  C   UNL     1      13.714   8.187  18.158  0.00  0.00    +0.145 C 
ATOM     16  C   UNL     1      13.491  10.049  16.450  0.00  0.00    +0.111 C 
ATOM     17  C   UNL     1      14.004   9.654  17.838  0.00  0.00    +0.067 C 
ATOM     18  C   UNL     1      12.007   9.715  16.263  0.00  0.00    +0.162 C 
ATOM     19  C   UNL     1      12.229   7.869  17.993  0.00  0.00    +0.078 C 
ATOM     20  C   UNL     1      11.707   8.251  16.606  0.00  0.00    +0.148 C 
ENDROOT
BRANCH  15  21
ATOM      8  O   UNL     1      13.614   6.973  20.213  0.00  0.00    -0.273 OA
ATOM     13  N   UNL     1      15.217   8.644  19.968  0.00  0.00    -0.302 N 
ATOM     21  C   UNL     1      14.163   7.849  19.550  0.00  0.00    +0.245 C 
ATOM     39  H   UNL     1      15.652   9.287  19.315  0.00  0.00    +0.150 HD
BRANCH  13  22
ATOM     22  C   UNL     1      15.818   8.534  21.278  0.00  0.00    +0.159 C 
BRANCH  22  26
ATOM     11  O   UNL     1      17.868   7.355  20.714  0.00  0.00    -0.274 OA
ATOM     14  N   UNL     1      16.249   6.237  21.899  0.00  0.00    -0.328 N 
ATOM     26  C   UNL     1      16.758   7.336  21.238  0.00  0.00    +0.231 C 
ATOM     40  H   UNL     1      15.339   6.243  22.348  0.00  0.00    +0.145 HD
ATOM     41  H   UNL     1      16.781   5.375  21.960  0.00  0.00    +0.145 HD
ENDBRANCH  22  26
BRANCH  22  23
ATOM     23  C   UNL     1      16.589   9.800  21.671  0.00  0.00    +0.034 C 
BRANCH  23  25
ATOM     25  C   UNL     1      16.886  10.766  20.505  0.00  0.00    -0.015 C 
ATOM     29  C   UNL     1      18.377  11.114  20.489  0.00  0.00    +0.007 C 
ATOM     30  C   UNL     1      16.058  12.050  20.588  0.00  0.00    +0.007 C 
ENDBRANCH  23  25
ENDBRANCH  22  23
ENDBRANCH  13  22
ENDBRANCH  15  21
BRANCH  15   5
ATOM      5  O   UNL     1      14.472   7.333  17.310  0.00  0.00    -0.379 OA
ATOM     36  H   UNL     1      15.407   7.379  17.565  0.00  0.00    +0.211 HD
ENDBRANCH  15   5
BRANCH  18   6
ATOM      6  O   UNL     1      11.675   9.940  14.891  0.00  0.00    -0.388 OA
ATOM     37  H   UNL     1      10.741  10.205  14.845  0.00  0.00    +0.210 HD
ENDBRANCH  18   6
BRANCH  20   7
ATOM      7  O   UNL     1      10.296   8.038  16.603  0.00  0.00    -0.389 OA
ATOM     38  H   UNL     1      10.113   7.290  16.008  0.00  0.00    +0.210 HD
ENDBRANCH  20   7
BRANCH  16  12
ATOM     12  N   UNL     1      13.687  11.514  16.272  0.00  0.00    -0.184 NA
ATOM     35  H   UNL     1      13.156  12.142  16.886  0.00  0.00    +0.148 HD
BRANCH  12   1
ATOM      1  S   UNL     1      14.436  12.094  14.868  0.00  0.00    +0.059 S 
ATOM      9  O   UNL     1      13.913  13.408  14.546  0.00  0.00    -0.153 OA
ATOM     10  O   UNL     1      14.427  11.042  13.870  0.00  0.00    -0.153 OA
BRANCH   1  24
ATOM     24  C   UNL     1      16.111  12.289  15.398  0.00  0.00    +0.106 A 
ATOM     27  C   UNL     1      17.158  11.950  14.541  0.00  0.00    +0.041 A 
ATOM     28  C   UNL     1      16.387  12.780  16.674  0.00  0.00    +0.028 A 
ATOM     31  C   UNL     1      18.480  12.103  14.958  0.00  0.00    +0.057 A 
ATOM     32  C   UNL     1      17.708  12.935  17.092  0.00  0.00    +0.002 A 
ATOM     33  C   UNL     1      18.755  12.596  16.234  0.00  0.00    +0.012 A 
BRANCH  31  34
ATOM      2  F   UNL     1      20.704  12.529  14.189  0.00  0.00    -0.166 F 
ATOM      3  F   UNL     1      20.050  10.462  14.207  0.00  0.00    -0.166 F 
ATOM      4  F   UNL     1      19.253  11.840  12.725  0.00  0.00    -0.166 F 
ATOM     34  C   UNL     1      19.599  11.741  14.041  0.00  0.00    +0.417 C 
ENDBRANCH  31  34
ENDBRANCH   1  24
ENDBRANCH  12   1
ENDBRANCH  16  12
TORSDOF 12
ENDMDL
