MODEL 1
REMARK VINA RESULT:      -7.8      0.000      0.000
REMARK  Name = 25390186
REMARK  9 active torsions:
REMARK  status: ('A' for Active; 'I' for Inactive)
REMARK    1  A    between atoms: O_3  and  C_10
REMARK    2  A    between atoms: O_4  and  C_11
REMARK    3  A    between atoms: N_7  and  C_15
REMARK    4  A    between atoms: N_8  and  C_18
REMARK    5  A    between atoms: N_9  and  C_20
REMARK    6  A    between atoms: C_12  and  C_14
REMARK    7  A    between atoms: C_13  and  C_15
REMARK    8  A    between atoms: C_14  and  C_16
REMARK    9  A    between atoms: C_18  and  C_19
REMARK                            x       y       z     vdW  Elec       q    Type
REMARK                         _______ _______ _______ _____ _____    ______ ____
ROOT
ATOM      2  O   UNL     1      12.566  10.466  21.928  0.00  0.00    -0.366 OA
ATOM     10  C   UNL     1      11.258  11.299  23.704  0.00  0.00    +0.175 C 
ATOM     11  C   UNL     1      12.277  12.360  23.339  0.00  0.00    +0.176 C 
ATOM     12  C   UNL     1      11.220  10.464  22.436  0.00  0.00    +0.158 C 
ATOM     13  C   UNL     1      13.295  11.558  22.535  0.00  0.00    +0.167 C 
ENDROOT
BRANCH  10   3
ATOM      3  O   UNL     1       9.991  11.829  24.028  0.00  0.00    -0.387 OA
ATOM     31  H   UNL     1      10.096  12.369  24.830  0.00  0.00    +0.210 HD
ENDBRANCH  10   3
BRANCH  11   4
ATOM      4  O   UNL     1      11.691  13.330  22.470  0.00  0.00    -0.387 OA
ATOM     32  H   UNL     1      10.818  13.556  22.835  0.00  0.00    +0.210 HD
ENDBRANCH  11   4
BRANCH  12  14
ATOM     14  C   UNL     1      10.765   9.034  22.670  0.00  0.00    +0.130 C 
BRANCH  14  16
ATOM      5  O   UNL     1      10.858   6.945  21.455  0.00  0.00    -0.276 OA
ATOM      8  N   UNL     1      11.042   8.945  20.285  0.00  0.00    -0.311 N 
ATOM     16  C   UNL     1      10.890   8.172  21.427  0.00  0.00    +0.216 C 
ATOM     34  H   UNL     1      11.037   9.957  20.368  0.00  0.00    +0.149 HD
BRANCH   8  18
ATOM     18  C   UNL     1      11.184   8.379  18.963  0.00  0.00    +0.139 C 
BRANCH  18  19
ATOM      1  F   UNL     1      15.438  10.719  16.112  0.00  0.00    -0.205 F 
ATOM     19  C   UNL     1      12.318   9.003  18.203  0.00  0.00    -0.030 A 
ATOM     21  C   UNL     1      13.510   9.312  18.858  0.00  0.00    +0.008 A 
ATOM     22  C   UNL     1      12.180   9.274  16.841  0.00  0.00    +0.008 A 
ATOM     23  C   UNL     1      14.564   9.892  18.152  0.00  0.00    +0.038 A 
ATOM     24  C   UNL     1      13.234   9.853  16.135  0.00  0.00    +0.038 A 
ATOM     27  C   UNL     1      14.426  10.163  16.791  0.00  0.00    +0.123 A 
ENDBRANCH  18  19
ENDBRANCH   8  18
ENDBRANCH  14  16
ENDBRANCH  12  14
BRANCH  13  15
ATOM     15  C   UNL     1      14.398  10.960  23.397  0.00  0.00    +0.140 C 
BRANCH  15   7
ATOM      6  O   UNL     1      16.259  10.096  21.399  0.00  0.00    -0.253 OA
ATOM      7  N   UNL     1      14.677   9.608  23.015  0.00  0.00    -0.297 N 
ATOM      9  N   UNL     1      15.668   7.873  21.866  0.00  0.00    -0.269 N 
ATOM     17  C   UNL     1      15.608   9.260  22.022  0.00  0.00    +0.304 C 
ATOM     33  H   UNL     1      14.184   8.862  23.496  0.00  0.00    +0.150 HD
ATOM     35  H   UNL     1      15.059   7.320  22.463  0.00  0.00    +0.156 HD
BRANCH   9  20
ATOM     20  C   UNL     1      16.477   7.134  20.971  0.00  0.00    +0.035 A 
ATOM     25  C   UNL     1      15.928   6.620  19.797  0.00  0.00    +0.023 A 
ATOM     26  C   UNL     1      17.824   6.917  21.265  0.00  0.00    +0.023 A 
ATOM     28  C   UNL     1      16.726   5.891  18.915  0.00  0.00    +0.002 A 
ATOM     29  C   UNL     1      18.621   6.187  20.383  0.00  0.00    +0.002 A 
ATOM     30  C   UNL     1      18.072   5.674  19.208  0.00  0.00    +0.000 A 
ENDBRANCH   9  20
ENDBRANCH  15   7
ENDBRANCH  13  15
TORSDOF 9
ENDMDL
MODEL 2
REMARK VINA RESULT:      -7.1      1.548      1.871
REMARK  Name = 25390186
REMARK  9 active torsions:
REMARK  status: ('A' for Active; 'I' for Inactive)
REMARK    1  A    between atoms: O_3  and  C_10
REMARK    2  A    between atoms: O_4  and  C_11
REMARK    3  A    between atoms: N_7  and  C_15
REMARK    4  A    between atoms: N_8  and  C_18
REMARK    5  A    between atoms: N_9  and  C_20
REMARK    6  A    between atoms: C_12  and  C_14
REMARK    7  A    between atoms: C_13  and  C_15
REMARK    8  A    between atoms: C_14  and  C_16
REMARK    9  A    between atoms: C_18  and  C_19
REMARK                            x       y       z     vdW  Elec       q    Type
REMARK                         _______ _______ _______ _____ _____    ______ ____
ROOT
ATOM      2  O   UNL     1      11.149  11.176  21.793  0.00  0.00    -0.366 OA
ATOM     10  C   UNL     1      11.604  11.052  24.103  0.00  0.00    +0.175 C 
ATOM     11  C   UNL     1      11.245  12.487  23.777  0.00  0.00    +0.176 C 
ATOM     12  C   UNL     1      10.989  10.309  22.930  0.00  0.00    +0.158 C 
ATOM     13  C   UNL     1      11.414  12.519  22.261  0.00  0.00    +0.167 C 
ENDROOT
BRANCH  10   3
ATOM      3  O   UNL     1      11.085  10.613  25.340  0.00  0.00    -0.387 OA
ATOM     31  H   UNL     1      10.334  10.026  25.150  0.00  0.00    +0.210 HD
ENDBRANCH  10   3
BRANCH  11   4
ATOM      4  O   UNL     1       9.871  12.733  24.075  0.00  0.00    -0.387 OA
ATOM     32  H   UNL     1       9.508  11.918  24.464  0.00  0.00    +0.210 HD
ENDBRANCH  11   4
BRANCH  12  14
ATOM     14  C   UNL     1      11.652   8.972  22.650  0.00  0.00    +0.130 C 
BRANCH  14  16
ATOM      5  O   UNL     1      10.378   7.224  21.565  0.00  0.00    -0.276 OA
ATOM      8  N   UNL     1      11.319   8.911  20.271  0.00  0.00    -0.311 N 
ATOM     16  C   UNL     1      11.038   8.255  21.461  0.00  0.00    +0.216 C 
ATOM     34  H   UNL     1      11.860   9.770  20.295  0.00  0.00    +0.149 HD
BRANCH   8  18
ATOM     18  C   UNL     1      10.856   8.443  18.984  0.00  0.00    +0.139 C 
BRANCH  18  19
ATOM      1  F   UNL     1      14.923   8.599  15.095  0.00  0.00    -0.205 F 
ATOM     19  C   UNL     1      11.941   8.485  17.947  0.00  0.00    -0.030 A 
ATOM     21  C   UNL     1      13.120   7.768  18.143  0.00  0.00    +0.008 A 
ATOM     22  C   UNL     1      11.768   9.241  16.788  0.00  0.00    +0.008 A 
ATOM     23  C   UNL     1      14.129   7.806  17.180  0.00  0.00    +0.038 A 
ATOM     24  C   UNL     1      12.776   9.279  15.824  0.00  0.00    +0.038 A 
ATOM     27  C   UNL     1      13.957   8.562  16.020  0.00  0.00    +0.123 A 
ENDBRANCH  18  19
ENDBRANCH   8  18
ENDBRANCH  14  16
ENDBRANCH  12  14
BRANCH  13  15
ATOM     15  C   UNL     1      12.823  12.894  21.826  0.00  0.00    +0.140 C 
BRANCH  15   7
ATOM      6  O   UNL     1      14.767  11.038  22.816  0.00  0.00    -0.253 OA
ATOM      7  N   UNL     1      13.440  11.828  21.094  0.00  0.00    -0.297 N 
ATOM      9  N   UNL     1      14.813  10.019  20.702  0.00  0.00    -0.269 N 
ATOM     17  C   UNL     1      14.389  10.954  21.649  0.00  0.00    +0.304 C 
ATOM     33  H   UNL     1      13.167  11.692  20.125  0.00  0.00    +0.150 HD
ATOM     35  H   UNL     1      14.400  10.088  19.775  0.00  0.00    +0.156 HD
BRANCH   9  20
ATOM     20  C   UNL     1      15.756   8.978  20.871  0.00  0.00    +0.035 A 
ATOM     25  C   UNL     1      15.320   7.666  21.057  0.00  0.00    +0.023 A 
ATOM     26  C   UNL     1      17.121   9.263  20.853  0.00  0.00    +0.023 A 
ATOM     28  C   UNL     1      16.249   6.639  21.223  0.00  0.00    +0.002 A 
ATOM     29  C   UNL     1      18.051   8.236  21.020  0.00  0.00    +0.002 A 
ATOM     30  C   UNL     1      17.614   6.924  21.205  0.00  0.00    +0.000 A 
ENDBRANCH   9  20
ENDBRANCH  15   7
ENDBRANCH  13  15
TORSDOF 9
ENDMDL
MODEL 3
REMARK VINA RESULT:      -7.0      2.591      7.291
REMARK  Name = 25390186
REMARK  9 active torsions:
REMARK  status: ('A' for Active; 'I' for Inactive)
REMARK    1  A    between atoms: O_3  and  C_10
REMARK    2  A    between atoms: O_4  and  C_11
REMARK    3  A    between atoms: N_7  and  C_15
REMARK    4  A    between atoms: N_8  and  C_18
REMARK    5  A    between atoms: N_9  and  C_20
REMARK    6  A    between atoms: C_12  and  C_14
REMARK    7  A    between atoms: C_13  and  C_15
REMARK    8  A    between atoms: C_14  and  C_16
REMARK    9  A    between atoms: C_18  and  C_19
REMARK                            x       y       z     vdW  Elec       q    Type
REMARK                         _______ _______ _______ _____ _____    ______ ____
ROOT
ATOM      2  O   UNL     1      11.108   8.460  20.323  0.00  0.00    -0.366 OA
ATOM     10  C   UNL     1      12.936   7.121  20.972  0.00  0.00    +0.175 C 
ATOM     11  C   UNL     1      11.666   6.409  21.391  0.00  0.00    +0.176 C 
ATOM     12  C   UNL     1      12.420   8.055  19.892  0.00  0.00    +0.158 C 
ATOM     13  C   UNL     1      10.637   7.533  21.328  0.00  0.00    +0.167 C 
ENDROOT
BRANCH  10   3
ATOM      3  O   UNL     1      13.932   6.247  20.486  0.00  0.00    -0.387 OA
ATOM     31  H   UNL     1      13.552   5.352  20.468  0.00  0.00    +0.210 HD
ENDBRANCH  10   3
BRANCH  11   4
ATOM      4  O   UNL     1      11.308   5.425  20.422  0.00  0.00    -0.387 OA
ATOM     32  H   UNL     1      11.897   4.662  20.551  0.00  0.00    +0.210 HD
ENDBRANCH  11   4
BRANCH  12  14
ATOM     14  C   UNL     1      13.292   9.282  19.689  0.00  0.00    +0.130 C 
BRANCH  14  16
ATOM      5  O   UNL     1      13.833  10.103  21.899  0.00  0.00    -0.276 OA
ATOM      8  N   UNL     1      15.493   9.086  20.631  0.00  0.00    -0.311 N 
ATOM     16  C   UNL     1      14.207   9.547  20.870  0.00  0.00    +0.216 C 
ATOM     34  H   UNL     1      15.697   8.622  19.751  0.00  0.00    +0.149 HD
BRANCH   8  18
ATOM     18  C   UNL     1      16.567   9.211  21.590  0.00  0.00    +0.139 C 
BRANCH  18  19
ATOM      1  F   UNL     1      20.801   5.666  20.493  0.00  0.00    -0.205 F 
ATOM     19  C   UNL     1      17.696   8.266  21.297  0.00  0.00    -0.030 A 
ATOM     21  C   UNL     1      19.013   8.658  21.533  0.00  0.00    +0.008 A 
ATOM     22  C   UNL     1      17.428   6.994  20.788  0.00  0.00    +0.008 A 
ATOM     23  C   UNL     1      20.063   7.780  21.261  0.00  0.00    +0.038 A 
ATOM     24  C   UNL     1      18.476   6.116  20.517  0.00  0.00    +0.038 A 
ATOM     27  C   UNL     1      19.794   6.509  20.753  0.00  0.00    +0.123 A 
ENDBRANCH  18  19
ENDBRANCH   8  18
ENDBRANCH  14  16
ENDBRANCH  12  14
BRANCH  13  15
ATOM     15  C   UNL     1      10.505   8.296  22.639  0.00  0.00    +0.140 C 
BRANCH  15   7
ATOM      6  O   UNL     1      11.188  10.340  24.525  0.00  0.00    -0.253 OA
ATOM      7  N   UNL     1      10.482   9.711  22.414  0.00  0.00    -0.297 N 
ATOM      9  N   UNL     1      10.712  11.954  22.889  0.00  0.00    -0.269 N 
ATOM     17  C   UNL     1      10.831  10.656  23.392  0.00  0.00    +0.304 C 
ATOM     33  H   UNL     1      10.207  10.045  21.495  0.00  0.00    +0.150 HD
ATOM     35  H   UNL     1      10.402  12.043  21.925  0.00  0.00    +0.156 HD
BRANCH   9  20
ATOM     20  C   UNL     1      10.971  13.173  23.559  0.00  0.00    +0.035 A 
ATOM     25  C   UNL     1      12.258  13.459  24.013  0.00  0.00    +0.023 A 
ATOM     26  C   UNL     1       9.938  14.087  23.768  0.00  0.00    +0.023 A 
ATOM     28  C   UNL     1      12.513  14.661  24.674  0.00  0.00    +0.002 A 
ATOM     29  C   UNL     1      10.194  15.289  24.429  0.00  0.00    +0.002 A 
ATOM     30  C   UNL     1      11.482  15.576  24.882  0.00  0.00    +0.000 A 
ENDBRANCH   9  20
ENDBRANCH  15   7
ENDBRANCH  13  15
TORSDOF 9
ENDMDL
MODEL 4
REMARK VINA RESULT:      -7.0      2.717      5.957
REMARK  Name = 25390186
REMARK  9 active torsions:
REMARK  status: ('A' for Active; 'I' for Inactive)
REMARK    1  A    between atoms: O_3  and  C_10
REMARK    2  A    between atoms: O_4  and  C_11
REMARK    3  A    between atoms: N_7  and  C_15
REMARK    4  A    between atoms: N_8  and  C_18
REMARK    5  A    between atoms: N_9  and  C_20
REMARK    6  A    between atoms: C_12  and  C_14
REMARK    7  A    between atoms: C_13  and  C_15
REMARK    8  A    between atoms: C_14  and  C_16
REMARK    9  A    between atoms: C_18  and  C_19
REMARK                            x       y       z     vdW  Elec       q    Type
REMARK                         _______ _______ _______ _____ _____    ______ ____
ROOT
ATOM      2  O   UNL     1      13.455   7.525  20.873  0.00  0.00    -0.366 OA
ATOM     10  C   UNL     1      11.174   7.766  21.420  0.00  0.00    +0.175 C 
ATOM     11  C   UNL     1      11.362   6.396  20.802  0.00  0.00    +0.176 C 
ATOM     12  C   UNL     1      12.587   8.094  21.870  0.00  0.00    +0.158 C 
ATOM     13  C   UNL     1      12.715   6.541  20.114  0.00  0.00    +0.167 C 
ENDROOT
BRANCH  10   3
ATOM      3  O   UNL     1      10.260   7.774  22.495  0.00  0.00    -0.387 OA
ATOM     31  H   UNL     1       9.609   7.071  22.330  0.00  0.00    +0.210 HD
ENDBRANCH  10   3
BRANCH  11   4
ATOM      4  O   UNL     1      11.488   5.406  21.823  0.00  0.00    -0.387 OA
ATOM     32  H   UNL     1      12.429   5.355  22.062  0.00  0.00    +0.210 HD
ENDBRANCH  11   4
BRANCH  12  14
ATOM     14  C   UNL     1      12.852   9.585  21.987  0.00  0.00    +0.130 C 
BRANCH  14  16
ATOM      5  O   UNL     1      14.252  10.768  20.408  0.00  0.00    -0.276 OA
ATOM      8  N   UNL     1      15.246   9.385  21.989  0.00  0.00    -0.311 N 
ATOM     16  C   UNL     1      14.171   9.993  21.358  0.00  0.00    +0.216 C 
ATOM     34  H   UNL     1      15.073   8.772  22.781  0.00  0.00    +0.149 HD
BRANCH   8  18
ATOM     18  C   UNL     1      16.618   9.598  21.591  0.00  0.00    +0.139 C 
BRANCH  18  19
ATOM      1  F   UNL     1      19.030   4.866  19.722  0.00  0.00    -0.205 F 
ATOM     19  C   UNL     1      17.262   8.336  21.092  0.00  0.00    -0.030 A 
ATOM     21  C   UNL     1      18.491   7.929  21.609  0.00  0.00    +0.008 A 
ATOM     22  C   UNL     1      16.629   7.570  20.112  0.00  0.00    +0.008 A 
ATOM     23  C   UNL     1      19.090   6.757  21.146  0.00  0.00    +0.038 A 
ATOM     24  C   UNL     1      17.227   6.398  19.650  0.00  0.00    +0.038 A 
ATOM     27  C   UNL     1      18.457   5.991  20.166  0.00  0.00    +0.123 A 
ENDBRANCH  18  19
ENDBRANCH   8  18
ENDBRANCH  14  16
ENDBRANCH  12  14
BRANCH  13  15
ATOM     15  C   UNL     1      12.605   7.045  18.681  0.00  0.00    +0.140 C 
BRANCH  15   7
ATOM      6  O   UNL     1      13.812   8.094  16.306  0.00  0.00    -0.253 OA
ATOM      7  N   UNL     1      13.232   8.325  18.533  0.00  0.00    -0.297 N 
ATOM      9  N   UNL     1      14.341  10.052  17.486  0.00  0.00    -0.269 N 
ATOM     17  C   UNL     1      13.805   8.772  17.331  0.00  0.00    +0.304 C 
ATOM     33  H   UNL     1      13.254   8.944  19.338  0.00  0.00    +0.150 HD
ATOM     35  H   UNL     1      14.252  10.476  18.406  0.00  0.00    +0.156 HD
BRANCH   9  20
ATOM     20  C   UNL     1      14.999  10.842  16.514  0.00  0.00    +0.035 A 
ATOM     25  C   UNL     1      15.681  11.996  16.900  0.00  0.00    +0.023 A 
ATOM     26  C   UNL     1      14.966  10.468  15.171  0.00  0.00    +0.023 A 
ATOM     28  C   UNL     1      16.331  12.775  15.941  0.00  0.00    +0.002 A 
ATOM     29  C   UNL     1      15.615  11.247  14.213  0.00  0.00    +0.002 A 
ATOM     30  C   UNL     1      16.298  12.401  14.599  0.00  0.00    +0.000 A 
ENDBRANCH   9  20
ENDBRANCH  15   7
ENDBRANCH  13  15
TORSDOF 9
ENDMDL
MODEL 5
REMARK VINA RESULT:      -6.9      2.894      7.072
REMARK  Name = 25390186
REMARK  9 active torsions:
REMARK  status: ('A' for Active; 'I' for Inactive)
REMARK    1  A    between atoms: O_3  and  C_10
REMARK    2  A    between atoms: O_4  and  C_11
REMARK    3  A    between atoms: N_7  and  C_15
REMARK    4  A    between atoms: N_8  and  C_18
REMARK    5  A    between atoms: N_9  and  C_20
REMARK    6  A    between atoms: C_12  and  C_14
REMARK    7  A    between atoms: C_13  and  C_15
REMARK    8  A    between atoms: C_14  and  C_16
REMARK    9  A    between atoms: C_18  and  C_19
REMARK                            x       y       z     vdW  Elec       q    Type
REMARK                         _______ _______ _______ _____ _____    ______ ____
ROOT
ATOM      2  O   UNL     1      11.609   8.697  19.976  0.00  0.00    -0.366 OA
ATOM     10  C   UNL     1      12.015   6.829  21.355  0.00  0.00    +0.175 C 
ATOM     11  C   UNL     1      11.160   7.807  22.136  0.00  0.00    +0.176 C 
ATOM     12  C   UNL     1      11.749   7.266  19.925  0.00  0.00    +0.158 C 
ATOM     13  C   UNL     1      11.347   9.095  21.341  0.00  0.00    +0.167 C 
ENDROOT
BRANCH  10   3
ATOM      3  O   UNL     1      11.661   5.480  21.572  0.00  0.00    -0.387 OA
ATOM     31  H   UNL     1      12.104   4.948  20.889  0.00  0.00    +0.210 HD
ENDBRANCH  10   3
BRANCH  11   4
ATOM      4  O   UNL     1       9.785   7.433  22.059  0.00  0.00    -0.387 OA
ATOM     32  H   UNL     1       9.261   8.252  22.071  0.00  0.00    +0.210 HD
ENDBRANCH  11   4
BRANCH  12  14
ATOM     14  C   UNL     1      12.866   6.896  18.965  0.00  0.00    +0.130 C 
BRANCH  14  16
ATOM      5  O   UNL     1      14.202   8.709  18.082  0.00  0.00    -0.276 OA
ATOM      8  N   UNL     1      14.775   7.772  20.130  0.00  0.00    -0.311 N 
ATOM     16  C   UNL     1      14.005   7.898  18.983  0.00  0.00    +0.216 C 
ATOM     34  H   UNL     1      14.518   7.078  20.826  0.00  0.00    +0.149 HD
BRANCH   8  18
ATOM     18  C   UNL     1      15.926   8.602  20.402  0.00  0.00    +0.139 C 
BRANCH  18  19
ATOM      1  F   UNL     1      20.611   5.555  21.083  0.00  0.00    -0.205 F 
ATOM     19  C   UNL     1      17.176   7.790  20.583  0.00  0.00    -0.030 A 
ATOM     21  C   UNL     1      18.161   8.216  21.473  0.00  0.00    +0.008 A 
ATOM     22  C   UNL     1      17.351   6.608  19.862  0.00  0.00    +0.008 A 
ATOM     23  C   UNL     1      19.323   7.461  21.642  0.00  0.00    +0.038 A 
ATOM     24  C   UNL     1      18.511   5.854  20.031  0.00  0.00    +0.038 A 
ATOM     27  C   UNL     1      19.498   6.280  20.921  0.00  0.00    +0.123 A 
ENDBRANCH  18  19
ENDBRANCH   8  18
ENDBRANCH  14  16
ENDBRANCH  12  14
BRANCH  13  15
ATOM     15  C   UNL     1      12.530   9.925  21.819  0.00  0.00    +0.140 C 
BRANCH  15   7
ATOM      6  O   UNL     1      12.560  12.632  22.754  0.00  0.00    -0.253 OA
ATOM      7  N   UNL     1      12.340  10.367  23.169  0.00  0.00    -0.297 N 
ATOM      9  N   UNL     1      12.155  11.845  24.927  0.00  0.00    -0.269 N 
ATOM     17  C   UNL     1      12.369  11.718  23.553  0.00  0.00    +0.304 C 
ATOM     33  H   UNL     1      12.166   9.666  23.883  0.00  0.00    +0.150 HD
ATOM     35  H   UNL     1      12.013  10.983  25.449  0.00  0.00    +0.156 HD
BRANCH   9  20
ATOM     20  C   UNL     1      12.111  13.033  25.694  0.00  0.00    +0.035 A 
ATOM     25  C   UNL     1      10.933  13.777  25.760  0.00  0.00    +0.023 A 
ATOM     26  C   UNL     1      13.247  13.463  26.381  0.00  0.00    +0.023 A 
ATOM     28  C   UNL     1      10.890  14.949  26.516  0.00  0.00    +0.002 A 
ATOM     29  C   UNL     1      13.203  14.635  27.136  0.00  0.00    +0.002 A 
ATOM     30  C   UNL     1      12.025  15.378  27.203  0.00  0.00    +0.000 A 
ENDBRANCH   9  20
ENDBRANCH  15   7
ENDBRANCH  13  15
TORSDOF 9
ENDMDL
MODEL 6
REMARK VINA RESULT:      -6.8     26.225     29.316
REMARK  Name = 25390186
REMARK  9 active torsions:
REMARK  status: ('A' for Active; 'I' for Inactive)
REMARK    1  A    between atoms: O_3  and  C_10
REMARK    2  A    between atoms: O_4  and  C_11
REMARK    3  A    between atoms: N_7  and  C_15
REMARK    4  A    between atoms: N_8  and  C_18
REMARK    5  A    between atoms: N_9  and  C_20
REMARK    6  A    between atoms: C_12  and  C_14
REMARK    7  A    between atoms: C_13  and  C_15
REMARK    8  A    between atoms: C_14  and  C_16
REMARK    9  A    between atoms: C_18  and  C_19
REMARK                            x       y       z     vdW  Elec       q    Type
REMARK                         _______ _______ _______ _____ _____    ______ ____
ROOT
ATOM      2  O   UNL     1     -17.436   5.261  22.814  0.00  0.00    -0.366 OA
ATOM     10  C   UNL     1     -15.169   4.616  22.761  0.00  0.00    +0.175 C 
ATOM     11  C   UNL     1     -15.926   3.589  23.579  0.00  0.00    +0.176 C 
ATOM     12  C   UNL     1     -16.289   5.242  21.947  0.00  0.00    +0.158 C 
ATOM     13  C   UNL     1     -17.219   4.331  23.900  0.00  0.00    +0.167 C 
ENDROOT
BRANCH  10   3
ATOM      3  O   UNL     1     -14.169   4.050  21.941  0.00  0.00    -0.387 OA
ATOM     31  H   UNL     1     -13.467   4.715  21.837  0.00  0.00    +0.210 HD
ENDBRANCH  10   3
BRANCH  11   4
ATOM      4  O   UNL     1     -16.252   2.457  22.773  0.00  0.00    -0.387 OA
ATOM     32  H   UNL     1     -17.204   2.507  22.575  0.00  0.00    +0.210 HD
ENDBRANCH  11   4
BRANCH  12  14
ATOM     14  C   UNL     1     -15.977   6.653  21.480  0.00  0.00    +0.130 C 
BRANCH  14  16
ATOM      5  O   UNL     1     -14.460   7.755  23.009  0.00  0.00    -0.276 OA
ATOM      8  N   UNL     1     -13.615   6.798  21.067  0.00  0.00    -0.311 N 
ATOM     16  C   UNL     1     -14.621   7.139  21.959  0.00  0.00    +0.216 C 
ATOM     34  H   UNL     1     -13.851   6.270  20.232  0.00  0.00    +0.149 HD
BRANCH   8  18
ATOM     18  C   UNL     1     -12.227   7.139  21.276  0.00  0.00    +0.139 C 
BRANCH  18  19
ATOM      1  F   UNL     1      -9.955   9.611  16.757  0.00  0.00    -0.205 F 
ATOM     19  C   UNL     1     -11.621   7.798  20.071  0.00  0.00    -0.030 A 
ATOM     21  C   UNL     1     -11.229   9.135  20.131  0.00  0.00    +0.008 A 
ATOM     22  C   UNL     1     -11.451   7.074  18.891  0.00  0.00    +0.008 A 
ATOM     23  C   UNL     1     -10.666   9.748  19.011  0.00  0.00    +0.038 A 
ATOM     24  C   UNL     1     -10.888   7.686  17.772  0.00  0.00    +0.038 A 
ATOM     27  C   UNL     1     -10.495   9.023  17.831  0.00  0.00    +0.123 A 
ENDBRANCH  18  19
ENDBRANCH   8  18
ENDBRANCH  14  16
ENDBRANCH  12  14
BRANCH  13  15
ATOM     15  C   UNL     1     -17.142   5.133  25.191  0.00  0.00    +0.140 C 
BRANCH  15   7
ATOM      6  O   UNL     1     -17.689   3.654  27.582  0.00  0.00    -0.253 OA
ATOM      7  N   UNL     1     -16.178   4.574  26.092  0.00  0.00    -0.297 N 
ATOM      9  N   UNL     1     -15.379   3.435  27.929  0.00  0.00    -0.269 N 
ATOM     17  C   UNL     1     -16.524   3.857  27.250  0.00  0.00    +0.304 C 
ATOM     33  H   UNL     1     -15.193   4.693  25.874  0.00  0.00    +0.150 HD
ATOM     35  H   UNL     1     -14.484   3.689  27.518  0.00  0.00    +0.156 HD
BRANCH   9  20
ATOM     20  C   UNL     1     -15.306   2.692  29.130  0.00  0.00    +0.035 A 
ATOM     25  C   UNL     1     -15.064   3.343  30.340  0.00  0.00    +0.023 A 
ATOM     26  C   UNL     1     -15.474   1.307  29.106  0.00  0.00    +0.023 A 
ATOM     28  C   UNL     1     -14.992   2.610  31.525  0.00  0.00    +0.002 A 
ATOM     29  C   UNL     1     -15.401   0.574  30.291  0.00  0.00    +0.002 A 
ATOM     30  C   UNL     1     -15.161   1.226  31.500  0.00  0.00    +0.000 A 
ENDBRANCH   9  20
ENDBRANCH  15   7
ENDBRANCH  13  15
TORSDOF 9
ENDMDL
MODEL 7
REMARK VINA RESULT:      -6.8     26.651     28.994
REMARK  Name = 25390186
REMARK  9 active torsions:
REMARK  status: ('A' for Active; 'I' for Inactive)
REMARK    1  A    between atoms: O_3  and  C_10
REMARK    2  A    between atoms: O_4  and  C_11
REMARK    3  A    between atoms: N_7  and  C_15
REMARK    4  A    between atoms: N_8  and  C_18
REMARK    5  A    between atoms: N_9  and  C_20
REMARK    6  A    between atoms: C_12  and  C_14
REMARK    7  A    between atoms: C_13  and  C_15
REMARK    8  A    between atoms: C_14  and  C_16
REMARK    9  A    between atoms: C_18  and  C_19
REMARK                            x       y       z     vdW  Elec       q    Type
REMARK                         _______ _______ _______ _____ _____    ______ ____
ROOT
ATOM      2  O   UNL     1      -5.317 -11.049  16.450  0.00  0.00    -0.366 OA
ATOM     10  C   UNL     1      -4.345 -11.694  18.499  0.00  0.00    +0.175 C 
ATOM     11  C   UNL     1      -5.809 -12.082  18.536  0.00  0.00    +0.176 C 
ATOM     12  C   UNL     1      -4.099 -11.577  17.005  0.00  0.00    +0.158 C 
ATOM     13  C   UNL     1      -6.388 -11.242  17.403  0.00  0.00    +0.167 C 
ENDROOT
BRANCH  10   3
ATOM      3  O   UNL     1      -3.498 -12.648  19.103  0.00  0.00    -0.387 OA
ATOM     31  H   UNL     1      -2.632 -12.227  19.237  0.00  0.00    +0.210 HD
ENDBRANCH  10   3
BRANCH  11   4
ATOM      4  O   UNL     1      -5.965 -13.459  18.193  0.00  0.00    -0.387 OA
ATOM     32  H   UNL     1      -5.341 -13.966  18.740  0.00  0.00    +0.210 HD
ENDBRANCH  11   4
BRANCH  12  14
ATOM     14  C   UNL     1      -2.940 -10.660  16.656  0.00  0.00    +0.130 C 
BRANCH  14  16
ATOM      5  O   UNL     1      -1.133 -11.432  15.246  0.00  0.00    -0.276 OA
ATOM      8  N   UNL     1      -3.154 -10.831  14.270  0.00  0.00    -0.311 N 
ATOM     16  C   UNL     1      -2.287 -11.023  15.335  0.00  0.00    +0.216 C 
ATOM     34  H   UNL     1      -4.098 -10.504  14.452  0.00  0.00    +0.149 HD
BRANCH   8  18
ATOM     18  C   UNL     1      -2.789 -11.098  12.897  0.00  0.00    +0.139 C 
BRANCH  18  19
ATOM      1  F   UNL     1      -5.635  -7.853   9.283  0.00  0.00    -0.205 F 
ATOM     19  C   UNL     1      -3.548 -10.232  11.934  0.00  0.00    -0.030 A 
ATOM     21  C   UNL     1      -2.948  -9.822  10.744  0.00  0.00    +0.008 A 
ATOM     22  C   UNL     1      -4.853  -9.839  12.229  0.00  0.00    +0.008 A 
ATOM     23  C   UNL     1      -3.652  -9.017   9.848  0.00  0.00    +0.038 A 
ATOM     24  C   UNL     1      -5.558  -9.036  11.333  0.00  0.00    +0.038 A 
ATOM     27  C   UNL     1      -4.958  -8.624  10.143  0.00  0.00    +0.123 A 
ENDBRANCH  18  19
ENDBRANCH   8  18
ENDBRANCH  14  16
ENDBRANCH  12  14
BRANCH  13  15
ATOM     15  C   UNL     1      -6.860  -9.868  17.858  0.00  0.00    +0.140 C 
BRANCH  15   7
ATOM      6  O   UNL     1      -9.605  -9.062  17.752  0.00  0.00    -0.253 OA
ATOM      7  N   UNL     1      -7.504  -9.162  16.791  0.00  0.00    -0.297 N 
ATOM      9  N   UNL     1      -9.208  -8.123  15.638  0.00  0.00    -0.269 N 
ATOM     17  C   UNL     1      -8.861  -8.799  16.811  0.00  0.00    +0.304 C 
ATOM     33  H   UNL     1      -6.946  -8.902  15.983  0.00  0.00    +0.150 HD
ATOM     35  H   UNL     1      -8.468  -7.988  14.953  0.00  0.00    +0.156 HD
BRANCH   9  20
ATOM     20  C   UNL     1     -10.472  -7.599  15.280  0.00  0.00    +0.035 A 
ATOM     25  C   UNL     1     -11.407  -8.411  14.639  0.00  0.00    +0.023 A 
ATOM     26  C   UNL     1     -10.782  -6.268  15.564  0.00  0.00    +0.023 A 
ATOM     28  C   UNL     1     -12.654  -7.894  14.285  0.00  0.00    +0.002 A 
ATOM     29  C   UNL     1     -12.028  -5.752  15.209  0.00  0.00    +0.002 A 
ATOM     30  C   UNL     1     -12.964  -6.565  14.570  0.00  0.00    +0.000 A 
ENDBRANCH   9  20
ENDBRANCH  15   7
ENDBRANCH  13  15
TORSDOF 9
ENDMDL
MODEL 8
REMARK VINA RESULT:      -6.6      2.451      4.115
REMARK  Name = 25390186
REMARK  9 active torsions:
REMARK  status: ('A' for Active; 'I' for Inactive)
REMARK    1  A    between atoms: O_3  and  C_10
REMARK    2  A    between atoms: O_4  and  C_11
REMARK    3  A    between atoms: N_7  and  C_15
REMARK    4  A    between atoms: N_8  and  C_18
REMARK    5  A    between atoms: N_9  and  C_20
REMARK    6  A    between atoms: C_12  and  C_14
REMARK    7  A    between atoms: C_13  and  C_15
REMARK    8  A    between atoms: C_14  and  C_16
REMARK    9  A    between atoms: C_18  and  C_19
REMARK                            x       y       z     vdW  Elec       q    Type
REMARK                         _______ _______ _______ _____ _____    ______ ____
ROOT
ATOM      2  O   UNL     1      12.265   9.563  19.727  0.00  0.00    -0.366 OA
ATOM     10  C   UNL     1      12.375   7.232  20.067  0.00  0.00    +0.175 C 
ATOM     11  C   UNL     1      11.472   7.816  21.134  0.00  0.00    +0.176 C 
ATOM     12  C   UNL     1      12.336   8.319  19.007  0.00  0.00    +0.158 C 
ATOM     13  C   UNL     1      11.835   9.296  21.082  0.00  0.00    +0.167 C 
ENDROOT
BRANCH  10   3
ATOM      3  O   UNL     1      11.924   5.991  19.570  0.00  0.00    -0.387 OA
ATOM     31  H   UNL     1      11.463   5.536  20.295  0.00  0.00    +0.210 HD
ENDBRANCH  10   3
BRANCH  11   4
ATOM      4  O   UNL     1      10.103   7.681  20.751  0.00  0.00    -0.387 OA
ATOM     32  H   UNL     1      10.037   7.939  19.815  0.00  0.00    +0.210 HD
ENDBRANCH  11   4
BRANCH  12  14
ATOM     14  C   UNL     1      13.556   8.322  18.102  0.00  0.00    +0.130 C 
BRANCH  14  16
ATOM      5  O   UNL     1      15.141  10.077  18.612  0.00  0.00    -0.276 OA
ATOM      8  N   UNL     1      13.501  10.461  17.010  0.00  0.00    -0.311 N 
ATOM     16  C   UNL     1      14.171   9.702  17.958  0.00  0.00    +0.216 C 
ATOM     34  H   UNL     1      12.719  10.051  16.509  0.00  0.00    +0.149 HD
BRANCH   8  18
ATOM     18  C   UNL     1      13.878  11.815  16.674  0.00  0.00    +0.139 C 
BRANCH  18  19
ATOM      1  F   UNL     1      16.471  12.108  11.686  0.00  0.00    -0.205 F 
ATOM     19  C   UNL     1      14.569  11.894  15.344  0.00  0.00    -0.030 A 
ATOM     21  C   UNL     1      15.927  11.591  15.246  0.00  0.00    +0.008 A 
ATOM     22  C   UNL     1      13.854  12.269  14.207  0.00  0.00    +0.008 A 
ATOM     23  C   UNL     1      16.571  11.664  14.010  0.00  0.00    +0.038 A 
ATOM     24  C   UNL     1      14.497  12.341  12.971  0.00  0.00    +0.038 A 
ATOM     27  C   UNL     1      15.855  12.039  12.872  0.00  0.00    +0.123 A 
ENDBRANCH  18  19
ENDBRANCH   8  18
ENDBRANCH  14  16
ENDBRANCH  12  14
BRANCH  13  15
ATOM     15  C   UNL     1      12.981   9.662  22.015  0.00  0.00    +0.140 C 
BRANCH  15   7
ATOM      6  O   UNL     1      14.918   7.591  22.419  0.00  0.00    -0.253 OA
ATOM      7  N   UNL     1      14.246   9.533  21.356  0.00  0.00    -0.297 N 
ATOM      9  N   UNL     1      16.294   8.621  20.820  0.00  0.00    -0.269 N 
ATOM     17  C   UNL     1      15.147   8.485  21.607  0.00  0.00    +0.304 C 
ATOM     33  H   UNL     1      14.499  10.231  20.663  0.00  0.00    +0.150 HD
ATOM     35  H   UNL     1      16.327   9.423  20.197  0.00  0.00    +0.156 HD
BRANCH   9  20
ATOM     20  C   UNL     1      17.427   7.774  20.782  0.00  0.00    +0.035 A 
ATOM     25  C   UNL     1      17.432   6.653  19.952  0.00  0.00    +0.023 A 
ATOM     26  C   UNL     1      18.538   8.059  21.577  0.00  0.00    +0.023 A 
ATOM     28  C   UNL     1      18.549   5.818  19.915  0.00  0.00    +0.002 A 
ATOM     29  C   UNL     1      19.654   7.223  21.540  0.00  0.00    +0.002 A 
ATOM     30  C   UNL     1      19.660   6.103  20.708  0.00  0.00    +0.000 A 
ENDBRANCH   9  20
ENDBRANCH  15   7
ENDBRANCH  13  15
TORSDOF 9
ENDMDL
MODEL 9
REMARK VINA RESULT:      -6.6     26.606     29.618
REMARK  Name = 25390186
REMARK  9 active torsions:
REMARK  status: ('A' for Active; 'I' for Inactive)
REMARK    1  A    between atoms: O_3  and  C_10
REMARK    2  A    between atoms: O_4  and  C_11
REMARK    3  A    between atoms: N_7  and  C_15
REMARK    4  A    between atoms: N_8  and  C_18
REMARK    5  A    between atoms: N_9  and  C_20
REMARK    6  A    between atoms: C_12  and  C_14
REMARK    7  A    between atoms: C_13  and  C_15
REMARK    8  A    between atoms: C_14  and  C_16
REMARK    9  A    between atoms: C_18  and  C_19
REMARK                            x       y       z     vdW  Elec       q    Type
REMARK                         _______ _______ _______ _____ _____    ______ ____
ROOT
ATOM      2  O   UNL     1      -5.264 -11.229  16.384  0.00  0.00    -0.366 OA
ATOM     10  C   UNL     1      -4.407 -11.685  18.532  0.00  0.00    +0.175 C 
ATOM     11  C   UNL     1      -5.846 -12.159  18.495  0.00  0.00    +0.176 C 
ATOM     12  C   UNL     1      -4.061 -11.645  17.054  0.00  0.00    +0.158 C 
ATOM     13  C   UNL     1      -6.388 -11.428  17.271  0.00  0.00    +0.167 C 
ENDROOT
BRANCH  10   3
ATOM      3  O   UNL     1      -3.553 -12.546  19.254  0.00  0.00    -0.387 OA
ATOM     31  H   UNL     1      -3.781 -12.460  20.196  0.00  0.00    +0.210 HD
ENDBRANCH  10   3
BRANCH  11   4
ATOM      4  O   UNL     1      -5.898 -13.561  18.234  0.00  0.00    -0.387 OA
ATOM     32  H   UNL     1      -6.234 -13.994  19.037  0.00  0.00    +0.210 HD
ENDBRANCH  11   4
BRANCH  12  14
ATOM     14  C   UNL     1      -2.934 -10.682  16.725  0.00  0.00    +0.130 C 
BRANCH  14  16
ATOM      5  O   UNL     1      -1.051 -11.249  15.316  0.00  0.00    -0.276 OA
ATOM      8  N   UNL     1      -3.152 -11.002  14.355  0.00  0.00    -0.311 N 
ATOM     16  C   UNL     1      -2.252 -11.010  15.410  0.00  0.00    +0.216 C 
ATOM     34  H   UNL     1      -4.132 -10.809  14.540  0.00  0.00    +0.149 HD
BRANCH   8  18
ATOM     18  C   UNL     1      -2.770 -11.280  12.989  0.00  0.00    +0.139 C 
BRANCH  18  19
ATOM      1  F   UNL     1      -5.323  -7.836   9.340  0.00  0.00    -0.205 F 
ATOM     19  C   UNL     1      -3.451 -10.362  12.016  0.00  0.00    -0.030 A 
ATOM     21  C   UNL     1      -4.766  -9.959  12.241  0.00  0.00    +0.008 A 
ATOM     22  C   UNL     1      -2.767  -9.911  10.886  0.00  0.00    +0.008 A 
ATOM     23  C   UNL     1      -5.400  -9.106  11.337  0.00  0.00    +0.038 A 
ATOM     24  C   UNL     1      -3.400  -9.058   9.982  0.00  0.00    +0.038 A 
ATOM     27  C   UNL     1      -4.717  -8.656  10.207  0.00  0.00    +0.123 A 
ENDBRANCH  18  19
ENDBRANCH   8  18
ENDBRANCH  14  16
ENDBRANCH  12  14
BRANCH  13  15
ATOM     15  C   UNL     1      -6.969 -10.060  17.602  0.00  0.00    +0.140 C 
BRANCH  15   7
ATOM      6  O   UNL     1      -9.741 -10.780  17.583  0.00  0.00    -0.253 OA
ATOM      7  N   UNL     1      -7.843 -10.129  18.734  0.00  0.00    -0.297 N 
ATOM      9  N   UNL     1      -9.797 -10.470  19.908  0.00  0.00    -0.269 N 
ATOM     17  C   UNL     1      -9.198 -10.492  18.647  0.00  0.00    +0.304 C 
ATOM     33  H   UNL     1      -7.459  -9.914  19.650  0.00  0.00    +0.150 HD
ATOM     35  H   UNL     1      -9.204 -10.207  20.691  0.00  0.00    +0.156 HD
BRANCH   9  20
ATOM     20  C   UNL     1     -11.139 -10.771  20.238  0.00  0.00    +0.035 A 
ATOM     25  C   UNL     1     -12.075  -9.743  20.358  0.00  0.00    +0.023 A 
ATOM     26  C   UNL     1     -11.528 -12.095  20.444  0.00  0.00    +0.023 A 
ATOM     28  C   UNL     1     -13.399 -10.040  20.682  0.00  0.00    +0.002 A 
ATOM     29  C   UNL     1     -12.852 -12.391  20.770  0.00  0.00    +0.002 A 
ATOM     30  C   UNL     1     -13.787 -11.363  20.889  0.00  0.00    +0.000 A 
ENDBRANCH   9  20
ENDBRANCH  15   7
ENDBRANCH  13  15
TORSDOF 9
ENDMDL
MODEL 10
REMARK VINA RESULT:      -6.5      3.299      6.203
REMARK  Name = 25390186
REMARK  9 active torsions:
REMARK  status: ('A' for Active; 'I' for Inactive)
REMARK    1  A    between atoms: O_3  and  C_10
REMARK    2  A    between atoms: O_4  and  C_11
REMARK    3  A    between atoms: N_7  and  C_15
REMARK    4  A    between atoms: N_8  and  C_18
REMARK    5  A    between atoms: N_9  and  C_20
REMARK    6  A    between atoms: C_12  and  C_14
REMARK    7  A    between atoms: C_13  and  C_15
REMARK    8  A    between atoms: C_14  and  C_16
REMARK    9  A    between atoms: C_18  and  C_19
REMARK                            x       y       z     vdW  Elec       q    Type
REMARK                         _______ _______ _______ _____ _____    ______ ____
ROOT
ATOM      2  O   UNL     1      12.547   8.938  20.649  0.00  0.00    -0.366 OA
ATOM     10  C   UNL     1      11.714   6.742  20.853  0.00  0.00    +0.175 C 
ATOM     11  C   UNL     1      12.902   6.703  19.914  0.00  0.00    +0.176 C 
ATOM     12  C   UNL     1      11.962   8.037  21.606  0.00  0.00    +0.158 C 
ATOM     13  C   UNL     1      13.051   8.172  19.531  0.00  0.00    +0.167 C 
ENDROOT
BRANCH  10   3
ATOM      3  O   UNL     1      11.648   5.629  21.718  0.00  0.00    -0.387 OA
ATOM     31  H   UNL     1      11.086   5.878  22.472  0.00  0.00    +0.210 HD
ENDBRANCH  10   3
BRANCH  11   4
ATOM      4  O   UNL     1      14.078   6.308  20.621  0.00  0.00    -0.387 OA
ATOM     32  H   UNL     1      14.405   7.089  21.099  0.00  0.00    +0.210 HD
ENDBRANCH  11   4
BRANCH  12  14
ATOM     14  C   UNL     1      10.698   8.652  22.181  0.00  0.00    +0.130 C 
BRANCH  14  16
ATOM      5  O   UNL     1      11.086  10.250  23.955  0.00  0.00    -0.276 OA
ATOM      8  N   UNL     1      10.950  11.004  21.761  0.00  0.00    -0.311 N 
ATOM     16  C   UNL     1      10.933  10.037  22.755  0.00  0.00    +0.216 C 
ATOM     34  H   UNL     1      10.831  10.721  20.792  0.00  0.00    +0.149 HD
BRANCH   8  18
ATOM     18  C   UNL     1      11.154  12.409  22.030  0.00  0.00    +0.139 C 
BRANCH  18  19
ATOM      1  F   UNL     1      13.451  15.087  17.643  0.00  0.00    -0.205 F 
ATOM     19  C   UNL     1      11.766  13.123  20.860  0.00  0.00    -0.030 A 
ATOM     21  C   UNL     1      11.348  14.412  20.534  0.00  0.00    +0.008 A 
ATOM     22  C   UNL     1      12.754  12.497  20.099  0.00  0.00    +0.008 A 
ATOM     23  C   UNL     1      11.916  15.077  19.446  0.00  0.00    +0.038 A 
ATOM     24  C   UNL     1      13.323  13.160  19.013  0.00  0.00    +0.038 A 
ATOM     27  C   UNL     1      12.904  14.450  18.686  0.00  0.00    +0.123 A 
ENDBRANCH  18  19
ENDBRANCH   8  18
ENDBRANCH  14  16
ENDBRANCH  12  14
BRANCH  13  15
ATOM     15  C   UNL     1      12.239   8.553  18.301  0.00  0.00    +0.140 C 
BRANCH  15   7
ATOM      6  O   UNL     1      12.962   8.828  15.544  0.00  0.00    -0.253 OA
ATOM      7  N   UNL     1      12.774   9.722  17.669  0.00  0.00    -0.297 N 
ATOM      9  N   UNL     1      13.605  11.044  15.974  0.00  0.00    -0.269 N 
ATOM     17  C   UNL     1      13.106   9.782  16.306  0.00  0.00    +0.304 C 
ATOM     33  H   UNL     1      12.910  10.554  18.236  0.00  0.00    +0.150 HD
ATOM     35  H   UNL     1      13.661  11.725  16.727  0.00  0.00    +0.156 HD
BRANCH   9  20
ATOM     20  C   UNL     1      14.047  11.499  14.710  0.00  0.00    +0.035 A 
ATOM     25  C   UNL     1      13.172  12.192  13.873  0.00  0.00    +0.023 A 
ATOM     26  C   UNL     1      15.357  11.252  14.298  0.00  0.00    +0.023 A 
ATOM     28  C   UNL     1      13.608  12.641  12.626  0.00  0.00    +0.002 A 
ATOM     29  C   UNL     1      15.792  11.700  13.051  0.00  0.00    +0.002 A 
ATOM     30  C   UNL     1      14.918  12.395  12.215  0.00  0.00    +0.000 A 
ENDBRANCH   9  20
ENDBRANCH  15   7
ENDBRANCH  13  15
TORSDOF 9
ENDMDL
