REMARK  Name = 51136676
REMARK  11 active torsions:
REMARK  status: ('A' for Active; 'I' for Inactive)
REMARK    1  A    between atoms: S_1  and  N_7
REMARK    2  A    between atoms: S_1  and  C_17
REMARK    3  A    between atoms: O_4  and  C_18
REMARK    4  A    between atoms: O_6  and  C_28
REMARK    5  A    between atoms: O_6  and  C_29
REMARK    6  A    between atoms: C_9  and  C_14
REMARK    7  A    between atoms: C_10  and  C_15
REMARK    8  A    between atoms: C_14  and  C_16
REMARK    9  A    between atoms: C_15  and  C_18
REMARK   10  A    between atoms: C_17  and  C_20
REMARK   11  A    between atoms: C_20  and  C_25
REMARK                            x       y       z     vdW  Elec       q    Type
REMARK                         _______ _______ _______ _____ _____    ______ ____
ROOT
ATOM      7  N   UNL     1      -0.923   1.264  -0.356  0.00  0.00    -0.181 NA
ATOM      9  C   UNL     1      -1.774  -0.833   0.669  0.00  0.00    +0.014 C 
ATOM     10  C   UNL     1      -3.114  -0.630  -0.080  0.00  0.00    +0.006 C 
ATOM     11  C   UNL     1      -1.110   0.528   0.929  0.00  0.00    +0.113 C 
ATOM     12  C   UNL     1      -2.924   0.217  -1.348  0.00  0.00    +0.021 C 
ATOM     13  C   UNL     1      -2.219   1.534  -1.040  0.00  0.00    +0.109 C 
ENDROOT
BRANCH   7   1
ATOM      1  S   UNL     1       0.161   2.590  -0.290  0.00  0.00    +0.032 S 
ATOM      2  O   UNL     1       0.340   3.109  -1.628  0.00  0.00    -0.158 OA
ATOM      3  O   UNL     1       1.285   2.229   0.544  0.00  0.00    -0.158 OA
BRANCH   1  17
ATOM     17  C   UNL     1      -0.849   3.736   0.613  0.00  0.00    +0.185 C 
BRANCH  17  20
ATOM     20  C   UNL     1      -0.127   5.055   0.833  0.00  0.00    +0.021 C 
ATOM     25  C   UNL     1      -0.982   6.030   1.624  0.00  0.00    +0.005 C 
ENDBRANCH  17  20
ENDBRANCH   1  17
ENDBRANCH   7   1
BRANCH   9  14
ATOM     14  C   UNL     1      -0.799  -1.782  -0.040  0.00  0.00    +0.060 C 
BRANCH  14  16
ATOM      8  N   UNL     1       0.346  -2.386   1.983  0.00  0.00    -0.287 NA
ATOM     16  C   UNL     1       0.460  -1.928   0.780  0.00  0.00    +0.044 C 
ATOM     19  C   UNL     1       1.758  -1.536   0.174  0.00  0.00    -0.001 A 
ATOM     21  C   UNL     1       2.824  -1.314   1.055  0.00  0.00    -0.033 A 
ATOM     22  C   UNL     1       1.575  -2.586   2.758  0.00  0.00    +0.146 C 
ATOM     23  C   UNL     1       2.587  -1.471   2.528  0.00  0.00    +0.059 C 
ATOM     24  C   UNL     1       1.931  -1.373  -1.202  0.00  0.00    +0.013 A 
ATOM     26  C   UNL     1       4.061  -0.903   0.551  0.00  0.00    +0.050 A 
ATOM     27  C   UNL     1       3.174  -0.978  -1.696  0.00  0.00    +0.046 A 
ATOM     28  C   UNL     1       4.236  -0.741  -0.823  0.00  0.00    +0.120 A 
BRANCH  28   6
ATOM      6  O   UNL     1       5.444  -0.347  -1.313  0.00  0.00    -0.495 OA
ATOM     29  C   UNL     1       5.552  -0.198  -2.728  0.00  0.00    +0.277 C 
ENDBRANCH  28   6
ENDBRANCH  14  16
ENDBRANCH   9  14
BRANCH  10  15
ATOM     15  C   UNL     1      -3.824  -1.943  -0.410  0.00  0.00    +0.124 C 
BRANCH  15  18
ATOM      5  O   UNL     1      -5.902  -0.678  -0.558  0.00  0.00    -0.251 OA
ATOM     18  C   UNL     1      -5.298  -1.738  -0.623  0.00  0.00    +0.305 C 
BRANCH  18   4
ATOM      4  O   UNL     1      -5.889  -2.927  -0.907  0.00  0.00    -0.481 OA
ATOM     30  H   UNL     1      -6.854  -2.831  -1.053  0.00  0.00    +0.295 HD
ENDBRANCH  18   4
ENDBRANCH  15  18
ENDBRANCH  10  15
TORSDOF 9
