MODEL 1
REMARK VINA RESULT:      -7.3      0.000      0.000
REMARK  Name = 75536134
REMARK  8 active torsions:
REMARK  status: ('A' for Active; 'I' for Inactive)
REMARK    1  A    between atoms: O_4  and  C_12
REMARK    2  A    between atoms: O_5  and  C_14
REMARK    3  A    between atoms: O_7  and  C_21
REMARK    4  A    between atoms: O_7  and  C_25
REMARK    5  A    between atoms: N_8  and  C_11
REMARK    6  A    between atoms: N_9  and  C_22
REMARK    7  A    between atoms: C_10  and  C_15
REMARK    8  A    between atoms: C_28  and  C_29
REMARK                            x       y       z     vdW  Elec       q    Type
REMARK                         _______ _______ _______ _____ _____    ______ ____
ROOT
ATOM     10  C   UNL     1      13.513   9.621  19.712  0.00  0.00    +0.044 C 
ATOM     11  C   UNL     1      14.058   8.219  20.068  0.00  0.00    +0.113 C 
ATOM     12  C   UNL     1      13.144   7.760  21.203  0.00  0.00    +0.164 C 
ATOM     13  C   UNL     1      12.041   9.637  20.197  0.00  0.00    +0.044 C 
ATOM     14  C   UNL     1      11.768   8.241  20.756  0.00  0.00    +0.145 C 
ENDROOT
BRANCH  11   8
ATOM      6  O   UNL     1      15.902   6.026  20.116  0.00  0.00    -0.252 OA
ATOM      8  N   UNL     1      15.440   8.264  20.476  0.00  0.00    -0.293 N 
ATOM      9  N   UNL     1      17.558   7.487  20.914  0.00  0.00    -0.269 N 
ATOM     18  C   UNL     1      16.279   7.142  20.469  0.00  0.00    +0.304 C 
ATOM     30  H   UNL     1      15.845   9.164  20.715  0.00  0.00    +0.151 HD
ATOM     33  H   UNL     1      17.705   8.459  21.171  0.00  0.00    +0.156 HD
BRANCH   9  22
ATOM     22  C   UNL     1      18.686   6.644  21.053  0.00  0.00    +0.035 A 
ATOM     23  C   UNL     1      18.981   5.705  20.064  0.00  0.00    +0.024 A 
ATOM     24  C   UNL     1      19.503   6.753  22.178  0.00  0.00    +0.024 A 
ATOM     26  C   UNL     1      20.093   4.875  20.202  0.00  0.00    +0.014 A 
ATOM     27  C   UNL     1      20.615   5.923  22.315  0.00  0.00    +0.014 A 
ATOM     28  C   UNL     1      20.910   4.983  21.327  0.00  0.00    +0.055 A 
BRANCH  28  29
ATOM      1  F   UNL     1      22.457   3.868  22.772  0.00  0.00    -0.166 F 
ATOM      2  F   UNL     1      23.226   4.585  20.875  0.00  0.00    -0.166 F 
ATOM      3  F   UNL     1      21.903   2.860  20.926  0.00  0.00    -0.166 F 
ATOM     29  C   UNL     1      22.100   4.095  21.473  0.00  0.00    +0.417 C 
ENDBRANCH  28  29
ENDBRANCH   9  22
ENDBRANCH  11   8
BRANCH  10  15
ATOM     15  C   UNL     1      13.692   9.972  18.250  0.00  0.00    -0.042 A 
ATOM     16  C   UNL     1      14.710  10.843  17.861  0.00  0.00    +0.007 A 
ATOM     17  C   UNL     1      12.839   9.426  17.292  0.00  0.00    +0.007 A 
ATOM     19  C   UNL     1      14.875  11.167  16.515  0.00  0.00    +0.046 A 
ATOM     20  C   UNL     1      13.003   9.750  15.946  0.00  0.00    +0.046 A 
ATOM     21  C   UNL     1      14.021  10.621  15.557  0.00  0.00    +0.120 A 
BRANCH  21   7
ATOM      7  O   UNL     1      14.180  10.937  14.243  0.00  0.00    -0.495 OA
ATOM     25  C   UNL     1      15.319  11.725  13.899  0.00  0.00    +0.277 C 
ENDBRANCH  21   7
ENDBRANCH  10  15
BRANCH  12   4
ATOM      4  O   UNL     1      13.163   6.354  21.372  0.00  0.00    -0.387 OA
ATOM     31  H   UNL     1      12.442   5.986  20.835  0.00  0.00    +0.210 HD
ENDBRANCH  12   4
BRANCH  14   5
ATOM      5  O   UNL     1      11.257   7.423  19.709  0.00  0.00    -0.389 OA
ATOM     32  H   UNL     1      10.623   6.802  20.107  0.00  0.00    +0.210 HD
ENDBRANCH  14   5
TORSDOF 7
ENDMDL
MODEL 2
REMARK VINA RESULT:      -7.1      2.851      4.207
REMARK  Name = 75536134
REMARK  8 active torsions:
REMARK  status: ('A' for Active; 'I' for Inactive)
REMARK    1  A    between atoms: O_4  and  C_12
REMARK    2  A    between atoms: O_5  and  C_14
REMARK    3  A    between atoms: O_7  and  C_21
REMARK    4  A    between atoms: O_7  and  C_25
REMARK    5  A    between atoms: N_8  and  C_11
REMARK    6  A    between atoms: N_9  and  C_22
REMARK    7  A    between atoms: C_10  and  C_15
REMARK    8  A    between atoms: C_28  and  C_29
REMARK                            x       y       z     vdW  Elec       q    Type
REMARK                         _______ _______ _______ _____ _____    ______ ____
ROOT
ATOM     10  C   UNL     1      12.743   8.895  21.875  0.00  0.00    +0.044 C 
ATOM     11  C   UNL     1      13.022   8.549  20.395  0.00  0.00    +0.113 C 
ATOM     12  C   UNL     1      12.388   7.169  20.225  0.00  0.00    +0.164 C 
ATOM     13  C   UNL     1      11.516   8.040  22.283  0.00  0.00    +0.044 C 
ATOM     14  C   UNL     1      11.095   7.283  21.025  0.00  0.00    +0.145 C 
ENDROOT
BRANCH  11   8
ATOM      6  O   UNL     1      14.906   6.532  21.163  0.00  0.00    -0.252 OA
ATOM      8  N   UNL     1      14.434   8.531  20.101  0.00  0.00    -0.293 N 
ATOM      9  N   UNL     1      16.597   7.755  20.088  0.00  0.00    -0.269 N 
ATOM     18  C   UNL     1      15.291   7.503  20.515  0.00  0.00    +0.304 C 
ATOM     30  H   UNL     1      14.814   9.263  19.510  0.00  0.00    +0.151 HD
ATOM     33  H   UNL     1      16.747   8.610  19.559  0.00  0.00    +0.156 HD
BRANCH   9  22
ATOM     22  C   UNL     1      17.749   6.962  20.302  0.00  0.00    +0.035 A 
ATOM     23  C   UNL     1      18.636   7.283  21.329  0.00  0.00    +0.024 A 
ATOM     24  C   UNL     1      17.997   5.858  19.486  0.00  0.00    +0.024 A 
ATOM     26  C   UNL     1      19.771   6.502  21.540  0.00  0.00    +0.014 A 
ATOM     27  C   UNL     1      19.133   5.076  19.698  0.00  0.00    +0.014 A 
ATOM     28  C   UNL     1      20.020   5.398  20.724  0.00  0.00    +0.055 A 
BRANCH  28  29
ATOM      1  F   UNL     1      21.023   3.227  20.756  0.00  0.00    -0.166 F 
ATOM      2  F   UNL     1      21.739   4.661  22.217  0.00  0.00    -0.166 F 
ATOM      3  F   UNL     1      22.264   4.895  20.120  0.00  0.00    -0.166 F 
ATOM     29  C   UNL     1      21.234   4.562  20.951  0.00  0.00    +0.417 C 
ENDBRANCH  28  29
ENDBRANCH   9  22
ENDBRANCH  11   8
BRANCH  10  15
ATOM     15  C   UNL     1      12.575  10.381  22.115  0.00  0.00    -0.042 A 
ATOM     16  C   UNL     1      13.571  11.096  22.780  0.00  0.00    +0.007 A 
ATOM     17  C   UNL     1      11.426  11.033  21.672  0.00  0.00    +0.007 A 
ATOM     19  C   UNL     1      13.417  12.465  23.002  0.00  0.00    +0.046 A 
ATOM     20  C   UNL     1      11.272  12.401  21.893  0.00  0.00    +0.046 A 
ATOM     21  C   UNL     1      12.267  13.117  22.558  0.00  0.00    +0.120 A 
BRANCH  21   7
ATOM      7  O   UNL     1      12.115  14.452  22.775  0.00  0.00    -0.495 OA
ATOM     25  C   UNL     1      11.654  14.851  24.066  0.00  0.00    +0.277 C 
ENDBRANCH  21   7
ENDBRANCH  10  15
BRANCH  12   4
ATOM      4  O   UNL     1      12.125   6.863  18.868  0.00  0.00    -0.387 OA
ATOM     31  H   UNL     1      12.827   6.263  18.564  0.00  0.00    +0.210 HD
ENDBRANCH  12   4
BRANCH  14   5
ATOM      5  O   UNL     1      10.130   8.062  20.325  0.00  0.00    -0.389 OA
ATOM     32  H   UNL     1       9.252   7.807  20.658  0.00  0.00    +0.210 HD
ENDBRANCH  14   5
TORSDOF 7
ENDMDL
MODEL 3
REMARK VINA RESULT:      -7.0      3.151      3.949
REMARK  Name = 75536134
REMARK  8 active torsions:
REMARK  status: ('A' for Active; 'I' for Inactive)
REMARK    1  A    between atoms: O_4  and  C_12
REMARK    2  A    between atoms: O_5  and  C_14
REMARK    3  A    between atoms: O_7  and  C_21
REMARK    4  A    between atoms: O_7  and  C_25
REMARK    5  A    between atoms: N_8  and  C_11
REMARK    6  A    between atoms: N_9  and  C_22
REMARK    7  A    between atoms: C_10  and  C_15
REMARK    8  A    between atoms: C_28  and  C_29
REMARK                            x       y       z     vdW  Elec       q    Type
REMARK                         _______ _______ _______ _____ _____    ______ ____
ROOT
ATOM     10  C   UNL     1      11.926   9.280  22.377  0.00  0.00    +0.044 C 
ATOM     11  C   UNL     1      12.891   8.445  21.505  0.00  0.00    +0.113 C 
ATOM     12  C   UNL     1      12.270   7.049  21.523  0.00  0.00    +0.164 C 
ATOM     13  C   UNL     1      10.569   8.530  22.342  0.00  0.00    +0.044 C 
ATOM     14  C   UNL     1      10.776   7.334  21.414  0.00  0.00    +0.145 C 
ENDROOT
BRANCH  11   8
ATOM      6  O   UNL     1      15.280   7.693  20.114  0.00  0.00    -0.252 OA
ATOM      8  N   UNL     1      14.232   8.444  22.034  0.00  0.00    -0.293 N 
ATOM      9  N   UNL     1      16.513   8.160  22.056  0.00  0.00    -0.269 N 
ATOM     18  C   UNL     1      15.352   8.061  21.285  0.00  0.00    +0.304 C 
ATOM     30  H   UNL     1      14.383   8.801  22.972  0.00  0.00    +0.151 HD
ATOM     33  H   UNL     1      16.398   8.481  23.014  0.00  0.00    +0.156 HD
BRANCH   9  22
ATOM     22  C   UNL     1      17.841   7.866  21.669  0.00  0.00    +0.035 A 
ATOM     23  C   UNL     1      18.156   6.606  21.158  0.00  0.00    +0.024 A 
ATOM     24  C   UNL     1      18.835   8.836  21.797  0.00  0.00    +0.024 A 
ATOM     26  C   UNL     1      19.465   6.317  20.776  0.00  0.00    +0.014 A 
ATOM     27  C   UNL     1      20.146   8.545  21.414  0.00  0.00    +0.014 A 
ATOM     28  C   UNL     1      20.460   7.286  20.904  0.00  0.00    +0.055 A 
BRANCH  28  29
ATOM      1  F   UNL     1      21.985   5.794  19.820  0.00  0.00    -0.166 F 
ATOM      2  F   UNL     1      22.730   6.879  21.544  0.00  0.00    -0.166 F 
ATOM      3  F   UNL     1      22.389   7.926  19.669  0.00  0.00    -0.166 F 
ATOM     29  C   UNL     1      21.861   6.976  20.494  0.00  0.00    +0.417 C 
ENDBRANCH  28  29
ENDBRANCH   9  22
ENDBRANCH  11   8
BRANCH  10  15
ATOM     15  C   UNL     1      11.847  10.731  21.951  0.00  0.00    -0.042 A 
ATOM     16  C   UNL     1      12.434  11.139  20.753  0.00  0.00    +0.007 A 
ATOM     17  C   UNL     1      11.189  11.659  22.756  0.00  0.00    +0.007 A 
ATOM     19  C   UNL     1      12.362  12.475  20.360  0.00  0.00    +0.046 A 
ATOM     20  C   UNL     1      11.117  12.996  22.364  0.00  0.00    +0.046 A 
ATOM     21  C   UNL     1      11.704  13.403  21.165  0.00  0.00    +0.120 A 
BRANCH  21   7
ATOM      7  O   UNL     1      11.634  14.708  20.784  0.00  0.00    -0.495 OA
ATOM     25  C   UNL     1      10.396  15.157  20.234  0.00  0.00    +0.277 C 
ENDBRANCH  21   7
ENDBRANCH  10  15
BRANCH  12   4
ATOM      4  O   UNL     1      12.719   6.249  20.445  0.00  0.00    -0.387 OA
ATOM     31  H   UNL     1      13.548   5.825  20.722  0.00  0.00    +0.210 HD
ENDBRANCH  12   4
BRANCH  14   5
ATOM      5  O   UNL     1      10.426   7.719  20.088  0.00  0.00    -0.389 OA
ATOM     32  H   UNL     1      10.935   8.520  19.873  0.00  0.00    +0.210 HD
ENDBRANCH  14   5
TORSDOF 7
ENDMDL
MODEL 4
REMARK VINA RESULT:      -6.9     15.135     17.916
REMARK  Name = 75536134
REMARK  8 active torsions:
REMARK  status: ('A' for Active; 'I' for Inactive)
REMARK    1  A    between atoms: O_4  and  C_12
REMARK    2  A    between atoms: O_5  and  C_14
REMARK    3  A    between atoms: O_7  and  C_21
REMARK    4  A    between atoms: O_7  and  C_25
REMARK    5  A    between atoms: N_8  and  C_11
REMARK    6  A    between atoms: N_9  and  C_22
REMARK    7  A    between atoms: C_10  and  C_15
REMARK    8  A    between atoms: C_28  and  C_29
REMARK                            x       y       z     vdW  Elec       q    Type
REMARK                         _______ _______ _______ _____ _____    ______ ____
ROOT
ATOM     10  C   UNL     1      11.044   6.419   7.066  0.00  0.00    +0.044 C 
ATOM     11  C   UNL     1      10.132   6.373   5.820  0.00  0.00    +0.113 C 
ATOM     12  C   UNL     1       8.732   6.204   6.409  0.00  0.00    +0.164 C 
ATOM     13  C   UNL     1      10.134   6.867   8.239  0.00  0.00    +0.044 C 
ATOM     14  C   UNL     1       8.757   7.120   7.627  0.00  0.00    +0.145 C 
ENDROOT
BRANCH  11   8
ATOM      6  O   UNL     1      10.833   6.576   3.049  0.00  0.00    -0.252 OA
ATOM      8  N   UNL     1      10.478   5.287   4.937  0.00  0.00    -0.293 N 
ATOM      9  N   UNL     1      11.099   4.244   2.986  0.00  0.00    -0.269 N 
ATOM     18  C   UNL     1      10.811   5.471   3.588  0.00  0.00    +0.304 C 
ATOM     30  H   UNL     1      10.551   4.352   5.325  0.00  0.00    +0.151 HD
ATOM     33  H   UNL     1      11.033   3.419   3.575  0.00  0.00    +0.156 HD
BRANCH   9  22
ATOM     22  C   UNL     1      11.475   4.003   1.643  0.00  0.00    +0.035 A 
ATOM     23  C   UNL     1      10.603   4.330   0.605  0.00  0.00    +0.024 A 
ATOM     24  C   UNL     1      12.719   3.439   1.358  0.00  0.00    +0.024 A 
ATOM     26  C   UNL     1      10.973   4.093  -0.718  0.00  0.00    +0.014 A 
ATOM     27  C   UNL     1      13.090   3.202   0.034  0.00  0.00    +0.014 A 
ATOM     28  C   UNL     1      12.217   3.529  -1.004  0.00  0.00    +0.055 A 
BRANCH  28  29
ATOM      1  F   UNL     1      12.463   1.974  -2.805  0.00  0.00    -0.166 F 
ATOM      2  F   UNL     1      13.919   3.577  -2.685  0.00  0.00    -0.166 F 
ATOM      3  F   UNL     1      11.881   4.008  -3.309  0.00  0.00    -0.166 F 
ATOM     29  C   UNL     1      12.613   3.276  -2.420  0.00  0.00    +0.417 C 
ENDBRANCH  28  29
ENDBRANCH   9  22
ENDBRANCH  11   8
BRANCH  10  15
ATOM     15  C   UNL     1      12.275   7.279   6.868  0.00  0.00    -0.042 A 
ATOM     16  C   UNL     1      12.149   8.666   6.781  0.00  0.00    +0.007 A 
ATOM     17  C   UNL     1      13.532   6.686   6.773  0.00  0.00    +0.007 A 
ATOM     19  C   UNL     1      13.282   9.460   6.598  0.00  0.00    +0.046 A 
ATOM     20  C   UNL     1      14.665   7.479   6.590  0.00  0.00    +0.046 A 
ATOM     21  C   UNL     1      14.540   8.866   6.503  0.00  0.00    +0.120 A 
BRANCH  21   7
ATOM      7  O   UNL     1      15.646   9.638   6.323  0.00  0.00    -0.495 OA
ATOM     25  C   UNL     1      16.803   8.999   5.787  0.00  0.00    +0.277 C 
ENDBRANCH  21   7
ENDBRANCH  10  15
BRANCH  12   4
ATOM      4  O   UNL     1       7.718   6.589   5.500  0.00  0.00    -0.387 OA
ATOM     31  H   UNL     1       7.061   7.106   5.997  0.00  0.00    +0.210 HD
ENDBRANCH  12   4
BRANCH  14   5
ATOM      5  O   UNL     1       8.674   8.487   7.239  0.00  0.00    -0.389 OA
ATOM     32  H   UNL     1       9.211   8.596   6.436  0.00  0.00    +0.210 HD
ENDBRANCH  14   5
TORSDOF 7
ENDMDL
MODEL 5
REMARK VINA RESULT:      -6.8     29.665     32.964
REMARK  Name = 75536134
REMARK  8 active torsions:
REMARK  status: ('A' for Active; 'I' for Inactive)
REMARK    1  A    between atoms: O_4  and  C_12
REMARK    2  A    between atoms: O_5  and  C_14
REMARK    3  A    between atoms: O_7  and  C_21
REMARK    4  A    between atoms: O_7  and  C_25
REMARK    5  A    between atoms: N_8  and  C_11
REMARK    6  A    between atoms: N_9  and  C_22
REMARK    7  A    between atoms: C_10  and  C_15
REMARK    8  A    between atoms: C_28  and  C_29
REMARK                            x       y       z     vdW  Elec       q    Type
REMARK                         _______ _______ _______ _____ _____    ______ ____
ROOT
ATOM     10  C   UNL     1     -16.780   5.760  22.475  0.00  0.00    +0.044 C 
ATOM     11  C   UNL     1     -16.951   4.371  23.130  0.00  0.00    +0.113 C 
ATOM     12  C   UNL     1     -18.381   3.977  22.763  0.00  0.00    +0.164 C 
ATOM     13  C   UNL     1     -17.822   5.817  21.329  0.00  0.00    +0.044 C 
ATOM     14  C   UNL     1     -18.511   4.453  21.321  0.00  0.00    +0.145 C 
ENDROOT
BRANCH  11   8
ATOM      6  O   UNL     1     -16.261   2.178  24.840  0.00  0.00    -0.252 OA
ATOM      8  N   UNL     1     -16.756   4.419  24.558  0.00  0.00    -0.293 N 
ATOM      9  N   UNL     1     -16.295   3.645  26.672  0.00  0.00    -0.269 N 
ATOM     18  C   UNL     1     -16.417   3.297  25.325  0.00  0.00    +0.304 C 
ATOM     30  H   UNL     1     -16.799   5.321  25.021  0.00  0.00    +0.151 HD
ATOM     33  H   UNL     1     -16.460   4.620  26.908  0.00  0.00    +0.156 HD
BRANCH   9  22
ATOM     22  C   UNL     1     -15.969   2.803  27.761  0.00  0.00    +0.035 A 
ATOM     23  C   UNL     1     -16.465   1.500  27.809  0.00  0.00    +0.024 A 
ATOM     24  C   UNL     1     -15.149   3.276  28.786  0.00  0.00    +0.024 A 
ATOM     26  C   UNL     1     -16.143   0.670  28.882  0.00  0.00    +0.014 A 
ATOM     27  C   UNL     1     -14.826   2.445  29.860  0.00  0.00    +0.014 A 
ATOM     28  C   UNL     1     -15.324   1.142  29.908  0.00  0.00    +0.055 A 
BRANCH  28  29
ATOM      1  F   UNL     1     -13.693  -0.206  31.023  0.00  0.00    -0.166 F 
ATOM      2  F   UNL     1     -15.755  -0.867  31.132  0.00  0.00    -0.166 F 
ATOM      3  F   UNL     1     -15.115   0.877  32.261  0.00  0.00    -0.166 F 
ATOM     29  C   UNL     1     -14.978   0.254  31.055  0.00  0.00    +0.417 C 
ENDBRANCH  28  29
ENDBRANCH   9  22
ENDBRANCH  11   8
BRANCH  10  15
ATOM     15  C   UNL     1     -15.357   6.038  22.038  0.00  0.00    -0.042 A 
ATOM     16  C   UNL     1     -14.334   5.157  22.390  0.00  0.00    +0.007 A 
ATOM     17  C   UNL     1     -15.068   7.175  21.285  0.00  0.00    +0.007 A 
ATOM     19  C   UNL     1     -13.023   5.412  21.989  0.00  0.00    +0.046 A 
ATOM     20  C   UNL     1     -13.758   7.431  20.883  0.00  0.00    +0.046 A 
ATOM     21  C   UNL     1     -12.735   6.550  21.234  0.00  0.00    +0.120 A 
BRANCH  21   7
ATOM      7  O   UNL     1     -11.456   6.801  20.843  0.00  0.00    -0.495 OA
ATOM     25  C   UNL     1     -11.235   7.978  20.068  0.00  0.00    +0.277 C 
ENDBRANCH  21   7
ENDBRANCH  10  15
BRANCH  12   4
ATOM      4  O   UNL     1     -18.595   2.581  22.863  0.00  0.00    -0.387 OA
ATOM     31  H   UNL     1     -17.737   2.144  22.731  0.00  0.00    +0.210 HD
ENDBRANCH  12   4
BRANCH  14   5
ATOM      5  O   UNL     1     -17.806   3.591  20.434  0.00  0.00    -0.389 OA
ATOM     32  H   UNL     1     -16.873   3.865  20.439  0.00  0.00    +0.210 HD
ENDBRANCH  14   5
TORSDOF 7
ENDMDL
MODEL 6
REMARK VINA RESULT:      -6.7     28.381     30.555
REMARK  Name = 75536134
REMARK  8 active torsions:
REMARK  status: ('A' for Active; 'I' for Inactive)
REMARK    1  A    between atoms: O_4  and  C_12
REMARK    2  A    between atoms: O_5  and  C_14
REMARK    3  A    between atoms: O_7  and  C_21
REMARK    4  A    between atoms: O_7  and  C_25
REMARK    5  A    between atoms: N_8  and  C_11
REMARK    6  A    between atoms: N_9  and  C_22
REMARK    7  A    between atoms: C_10  and  C_15
REMARK    8  A    between atoms: C_28  and  C_29
REMARK                            x       y       z     vdW  Elec       q    Type
REMARK                         _______ _______ _______ _____ _____    ______ ____
ROOT
ATOM     10  C   UNL     1      -9.931  -7.341   8.013  0.00  0.00    +0.044 C 
ATOM     11  C   UNL     1      -8.791  -6.811   7.114  0.00  0.00    +0.113 C 
ATOM     12  C   UNL     1      -8.836  -7.735   5.899  0.00  0.00    +0.164 C 
ATOM     13  C   UNL     1     -10.903  -8.088   7.064  0.00  0.00    +0.044 C 
ATOM     14  C   UNL     1     -10.330  -7.917   5.658  0.00  0.00    +0.145 C 
ENDROOT
BRANCH  11   8
ATOM      6  O   UNL     1      -7.837  -8.887   8.843  0.00  0.00    -0.252 OA
ATOM      8  N   UNL     1      -7.512  -6.859   7.779  0.00  0.00    -0.293 N 
ATOM      9  N   UNL     1      -5.837  -7.689   9.115  0.00  0.00    -0.269 N 
ATOM     18  C   UNL     1      -7.121  -7.915   8.612  0.00  0.00    +0.304 C 
ATOM     30  H   UNL     1      -6.837  -6.127   7.583  0.00  0.00    +0.151 HD
ATOM     33  H   UNL     1      -5.377  -6.830   8.825  0.00  0.00    +0.156 HD
BRANCH   9  22
ATOM     22  C   UNL     1      -5.087  -8.514   9.986  0.00  0.00    +0.035 A 
ATOM     23  C   UNL     1      -3.814  -8.946   9.616  0.00  0.00    +0.024 A 
ATOM     24  C   UNL     1      -5.622  -8.894  11.217  0.00  0.00    +0.024 A 
ATOM     26  C   UNL     1      -3.076  -9.758  10.475  0.00  0.00    +0.014 A 
ATOM     27  C   UNL     1      -4.883  -9.707  12.078  0.00  0.00    +0.014 A 
ATOM     28  C   UNL     1      -3.610 -10.140  11.706  0.00  0.00    +0.055 A 
BRANCH  28  29
ATOM      1  F   UNL     1      -1.789 -11.661  12.010  0.00  0.00    -0.166 F 
ATOM      2  F   UNL     1      -3.558 -11.991  13.221  0.00  0.00    -0.166 F 
ATOM      3  F   UNL     1      -2.250 -10.308  13.649  0.00  0.00    -0.166 F 
ATOM     29  C   UNL     1      -2.819 -11.008  12.626  0.00  0.00    +0.417 C 
ENDBRANCH  28  29
ENDBRANCH   9  22
ENDBRANCH  11   8
BRANCH  10  15
ATOM     15  C   UNL     1     -10.583  -6.256   8.844  0.00  0.00    -0.042 A 
ATOM     16  C   UNL     1     -11.496  -6.596   9.843  0.00  0.00    +0.007 A 
ATOM     17  C   UNL     1     -10.273  -4.917   8.610  0.00  0.00    +0.007 A 
ATOM     19  C   UNL     1     -12.098  -5.598  10.608  0.00  0.00    +0.046 A 
ATOM     20  C   UNL     1     -10.874  -3.918   9.376  0.00  0.00    +0.046 A 
ATOM     21  C   UNL     1     -11.787  -4.258  10.375  0.00  0.00    +0.120 A 
BRANCH  21   7
ATOM      7  O   UNL     1     -12.374  -3.283  11.120  0.00  0.00    -0.495 OA
ATOM     25  C   UNL     1     -12.531  -3.539  12.515  0.00  0.00    +0.277 C 
ENDBRANCH  21   7
ENDBRANCH  10  15
BRANCH  12   4
ATOM      4  O   UNL     1      -8.201  -7.167   4.768  0.00  0.00    -0.387 OA
ATOM     31  H   UNL     1      -8.619  -7.546   3.977  0.00  0.00    +0.210 HD
ENDBRANCH  12   4
BRANCH  14   5
ATOM      5  O   UNL     1     -10.898  -6.749   5.073  0.00  0.00    -0.389 OA
ATOM     32  H   UNL     1     -11.690  -7.024   4.581  0.00  0.00    +0.210 HD
ENDBRANCH  14   5
TORSDOF 7
ENDMDL
MODEL 7
REMARK VINA RESULT:      -6.7     28.904     30.033
REMARK  Name = 75536134
REMARK  8 active torsions:
REMARK  status: ('A' for Active; 'I' for Inactive)
REMARK    1  A    between atoms: O_4  and  C_12
REMARK    2  A    between atoms: O_5  and  C_14
REMARK    3  A    between atoms: O_7  and  C_21
REMARK    4  A    between atoms: O_7  and  C_25
REMARK    5  A    between atoms: N_8  and  C_11
REMARK    6  A    between atoms: N_9  and  C_22
REMARK    7  A    between atoms: C_10  and  C_15
REMARK    8  A    between atoms: C_28  and  C_29
REMARK                            x       y       z     vdW  Elec       q    Type
REMARK                         _______ _______ _______ _____ _____    ______ ____
ROOT
ATOM     10  C   UNL     1     -12.020   9.808  20.355  0.00  0.00    +0.044 C 
ATOM     11  C   UNL     1     -12.679  10.998  21.089  0.00  0.00    +0.113 C 
ATOM     12  C   UNL     1     -12.605  12.131  20.067  0.00  0.00    +0.164 C 
ATOM     13  C   UNL     1     -12.153  10.119  18.842  0.00  0.00    +0.044 C 
ATOM     14  C   UNL     1     -12.927  11.433  18.751  0.00  0.00    +0.145 C 
ENDROOT
BRANCH  11   8
ATOM      6  O   UNL     1     -13.396  10.177  23.738  0.00  0.00    -0.252 OA
ATOM      8  N   UNL     1     -11.988  11.329  22.310  0.00  0.00    -0.293 N 
ATOM      9  N   UNL     1     -11.546  11.361  24.565  0.00  0.00    -0.269 N 
ATOM     18  C   UNL     1     -12.405  10.885  23.572  0.00  0.00    +0.304 C 
ATOM     30  H   UNL     1     -11.121  11.852  22.248  0.00  0.00    +0.151 HD
ATOM     33  H   UNL     1     -10.768  11.940  24.257  0.00  0.00    +0.156 HD
BRANCH   9  22
ATOM     22  C   UNL     1     -11.622  11.139  25.960  0.00  0.00    +0.035 A 
ATOM     23  C   UNL     1     -12.471  11.918  26.745  0.00  0.00    +0.024 A 
ATOM     24  C   UNL     1     -10.850  10.138  26.549  0.00  0.00    +0.024 A 
ATOM     26  C   UNL     1     -12.547  11.698  28.120  0.00  0.00    +0.014 A 
ATOM     27  C   UNL     1     -10.926   9.918  27.925  0.00  0.00    +0.014 A 
ATOM     28  C   UNL     1     -11.774  10.698  28.710  0.00  0.00    +0.055 A 
BRANCH  28  29
ATOM      1  F   UNL     1     -11.610   9.169  30.542  0.00  0.00    -0.166 F 
ATOM      2  F   UNL     1     -13.079  10.755  30.715  0.00  0.00    -0.166 F 
ATOM      3  F   UNL     1     -10.961  11.216  30.884  0.00  0.00    -0.166 F 
ATOM     29  C   UNL     1     -11.856  10.463  30.181  0.00  0.00    +0.417 C 
ENDBRANCH  28  29
ENDBRANCH   9  22
ENDBRANCH  11   8
BRANCH  10  15
ATOM     15  C   UNL     1     -12.591   8.468  20.769  0.00  0.00    -0.042 A 
ATOM     16  C   UNL     1     -13.960   8.335  21.002  0.00  0.00    +0.007 A 
ATOM     17  C   UNL     1     -11.749   7.367  20.917  0.00  0.00    +0.007 A 
ATOM     19  C   UNL     1     -14.487   7.101  21.383  0.00  0.00    +0.046 A 
ATOM     20  C   UNL     1     -12.276   6.133  21.298  0.00  0.00    +0.046 A 
ATOM     21  C   UNL     1     -13.645   6.000  21.531  0.00  0.00    +0.120 A 
BRANCH  21   7
ATOM      7  O   UNL     1     -14.157   4.796  21.904  0.00  0.00    -0.495 OA
ATOM     25  C   UNL     1     -14.694   4.700  23.223  0.00  0.00    +0.277 C 
ENDBRANCH  21   7
ENDBRANCH  10  15
BRANCH  12   4
ATOM      4  O   UNL     1     -13.535  13.163  20.340  0.00  0.00    -0.387 OA
ATOM     31  H   UNL     1     -14.091  12.865  21.080  0.00  0.00    +0.210 HD
ENDBRANCH  12   4
BRANCH  14   5
ATOM      5  O   UNL     1     -14.317  11.137  18.658  0.00  0.00    -0.389 OA
ATOM     32  H   UNL     1     -14.638  10.956  19.558  0.00  0.00    +0.210 HD
ENDBRANCH  14   5
TORSDOF 7
ENDMDL
MODEL 8
REMARK VINA RESULT:      -6.7     27.869     29.985
REMARK  Name = 75536134
REMARK  8 active torsions:
REMARK  status: ('A' for Active; 'I' for Inactive)
REMARK    1  A    between atoms: O_4  and  C_12
REMARK    2  A    between atoms: O_5  and  C_14
REMARK    3  A    between atoms: O_7  and  C_21
REMARK    4  A    between atoms: O_7  and  C_25
REMARK    5  A    between atoms: N_8  and  C_11
REMARK    6  A    between atoms: N_9  and  C_22
REMARK    7  A    between atoms: C_10  and  C_15
REMARK    8  A    between atoms: C_28  and  C_29
REMARK                            x       y       z     vdW  Elec       q    Type
REMARK                         _______ _______ _______ _____ _____    ______ ____
ROOT
ATOM     10  C   UNL     1      -9.260  -8.310   8.066  0.00  0.00    +0.044 C 
ATOM     11  C   UNL     1      -7.768  -8.492   8.427  0.00  0.00    +0.113 C 
ATOM     12  C   UNL     1      -7.214  -9.298   7.254  0.00  0.00    +0.164 C 
ATOM     13  C   UNL     1      -9.344  -8.469   6.526  0.00  0.00    +0.044 C 
ATOM     14  C   UNL     1      -7.908  -8.676   6.048  0.00  0.00    +0.145 C 
ENDROOT
BRANCH  11   8
ATOM      6  O   UNL     1      -5.390  -8.573  10.025  0.00  0.00    -0.252 OA
ATOM      8  N   UNL     1      -7.596  -9.180   9.682  0.00  0.00    -0.293 N 
ATOM      9  N   UNL     1      -6.526  -9.920  11.576  0.00  0.00    -0.269 N 
ATOM     18  C   UNL     1      -6.396  -9.170  10.405  0.00  0.00    +0.304 C 
ATOM     30  H   UNL     1      -8.401  -9.638  10.097  0.00  0.00    +0.151 HD
ATOM     33  H   UNL     1      -7.430 -10.354  11.743  0.00  0.00    +0.156 HD
BRANCH   9  22
ATOM     22  C   UNL     1      -5.546 -10.155  12.570  0.00  0.00    +0.035 A 
ATOM     23  C   UNL     1      -5.889 -10.074  13.920  0.00  0.00    +0.024 A 
ATOM     24  C   UNL     1      -4.239 -10.471  12.200  0.00  0.00    +0.024 A 
ATOM     26  C   UNL     1      -4.924 -10.306  14.899  0.00  0.00    +0.014 A 
ATOM     27  C   UNL     1      -3.274 -10.704  13.180  0.00  0.00    +0.014 A 
ATOM     28  C   UNL     1      -3.616 -10.621  14.529  0.00  0.00    +0.055 A 
BRANCH  28  29
ATOM      1  F   UNL     1      -3.109 -11.136  16.810  0.00  0.00    -0.166 F 
ATOM      2  F   UNL     1      -1.736  -9.817  15.772  0.00  0.00    -0.166 F 
ATOM      3  F   UNL     1      -1.783 -11.935  15.282  0.00  0.00    -0.166 F 
ATOM     29  C   UNL     1      -2.584 -10.870  15.577  0.00  0.00    +0.417 C 
ENDBRANCH  28  29
ENDBRANCH   9  22
ENDBRANCH  11   8
BRANCH  10  15
ATOM     15  C   UNL     1      -9.843  -7.014   8.591  0.00  0.00    -0.042 A 
ATOM     16  C   UNL     1      -9.246  -5.797   8.262  0.00  0.00    +0.007 A 
ATOM     17  C   UNL     1     -10.975  -7.038   9.404  0.00  0.00    +0.007 A 
ATOM     19  C   UNL     1      -9.781  -4.604   8.746  0.00  0.00    +0.046 A 
ATOM     20  C   UNL     1     -11.511  -5.845   9.887  0.00  0.00    +0.046 A 
ATOM     21  C   UNL     1     -10.914  -4.628   9.558  0.00  0.00    +0.120 A 
BRANCH  21   7
ATOM      7  O   UNL     1     -11.438  -3.464  10.032  0.00  0.00    -0.495 OA
ATOM     25  C   UNL     1     -12.197  -3.538  11.238  0.00  0.00    +0.277 C 
ENDBRANCH  21   7
ENDBRANCH  10  15
BRANCH  12   4
ATOM      4  O   UNL     1      -5.806  -9.190   7.146  0.00  0.00    -0.387 OA
ATOM     31  H   UNL     1      -5.591  -9.116   6.201  0.00  0.00    +0.210 HD
ENDBRANCH  12   4
BRANCH  14   5
ATOM      5  O   UNL     1      -7.344  -7.406   5.734  0.00  0.00    -0.389 OA
ATOM     32  H   UNL     1      -8.023  -6.894   5.263  0.00  0.00    +0.210 HD
ENDBRANCH  14   5
TORSDOF 7
ENDMDL
MODEL 9
REMARK VINA RESULT:      -6.6     13.470     15.572
REMARK  Name = 75536134
REMARK  8 active torsions:
REMARK  status: ('A' for Active; 'I' for Inactive)
REMARK    1  A    between atoms: O_4  and  C_12
REMARK    2  A    between atoms: O_5  and  C_14
REMARK    3  A    between atoms: O_7  and  C_21
REMARK    4  A    between atoms: O_7  and  C_25
REMARK    5  A    between atoms: N_8  and  C_11
REMARK    6  A    between atoms: N_9  and  C_22
REMARK    7  A    between atoms: C_10  and  C_15
REMARK    8  A    between atoms: C_28  and  C_29
REMARK                            x       y       z     vdW  Elec       q    Type
REMARK                         _______ _______ _______ _____ _____    ______ ____
ROOT
ATOM     10  C   UNL     1      10.118   6.337   4.973  0.00  0.00    +0.044 C 
ATOM     11  C   UNL     1      11.422   6.301   5.801  0.00  0.00    +0.113 C 
ATOM     12  C   UNL     1      10.926   6.191   7.242  0.00  0.00    +0.164 C 
ATOM     13  C   UNL     1       9.036   5.669   5.860  0.00  0.00    +0.044 C 
ATOM     14  C   UNL     1       9.755   5.221   7.132  0.00  0.00    +0.145 C 
ENDROOT
BRANCH  11   8
ATOM      6  O   UNL     1      14.142   6.686   6.616  0.00  0.00    -0.252 OA
ATOM      8  N   UNL     1      12.224   7.481   5.596  0.00  0.00    -0.293 N 
ATOM      9  N   UNL     1      14.073   8.843   5.692  0.00  0.00    -0.269 N 
ATOM     18  C   UNL     1      13.553   7.590   6.027  0.00  0.00    +0.304 C 
ATOM     30  H   UNL     1      11.831   8.245   5.055  0.00  0.00    +0.151 HD
ATOM     33  H   UNL     1      13.450   9.480   5.203  0.00  0.00    +0.156 HD
BRANCH   9  22
ATOM     22  C   UNL     1      15.371   9.342   5.950  0.00  0.00    +0.035 A 
ATOM     23  C   UNL     1      15.533  10.607   6.514  0.00  0.00    +0.024 A 
ATOM     24  C   UNL     1      16.490   8.567   5.643  0.00  0.00    +0.024 A 
ATOM     26  C   UNL     1      16.812  11.099   6.769  0.00  0.00    +0.014 A 
ATOM     27  C   UNL     1      17.770   9.059   5.899  0.00  0.00    +0.014 A 
ATOM     28  C   UNL     1      17.931  10.325   6.461  0.00  0.00    +0.055 A 
BRANCH  28  29
ATOM      1  F   UNL     1      20.124  10.826   5.646  0.00  0.00    -0.166 F 
ATOM      2  F   UNL     1      19.970  10.157   7.703  0.00  0.00    -0.166 F 
ATOM      3  F   UNL     1      19.289  12.148   7.157  0.00  0.00    -0.166 F 
ATOM     29  C   UNL     1      19.300  10.851   6.735  0.00  0.00    +0.417 C 
ENDBRANCH  28  29
ENDBRANCH   9  22
ENDBRANCH  11   8
BRANCH  10  15
ATOM     15  C   UNL     1      10.270   5.713   3.601  0.00  0.00    -0.042 A 
ATOM     16  C   UNL     1       9.882   6.424   2.465  0.00  0.00    +0.007 A 
ATOM     17  C   UNL     1      10.796   4.429   3.473  0.00  0.00    +0.007 A 
ATOM     19  C   UNL     1      10.020   5.851   1.201  0.00  0.00    +0.046 A 
ATOM     20  C   UNL     1      10.935   3.855   2.209  0.00  0.00    +0.046 A 
ATOM     21  C   UNL     1      10.547   4.566   1.073  0.00  0.00    +0.120 A 
BRANCH  21   7
ATOM      7  O   UNL     1      10.682   4.005  -0.159  0.00  0.00    -0.495 OA
ATOM     25  C   UNL     1      12.012   3.789  -0.631  0.00  0.00    +0.277 C 
ENDBRANCH  21   7
ENDBRANCH  10  15
BRANCH  12   4
ATOM      4  O   UNL     1      11.923   5.693   8.116  0.00  0.00    -0.387 OA
ATOM     31  H   UNL     1      11.655   4.798   8.383  0.00  0.00    +0.210 HD
ENDBRANCH  12   4
BRANCH  14   5
ATOM      5  O   UNL     1      10.215   3.886   6.950  0.00  0.00    -0.389 OA
ATOM     32  H   UNL     1      10.629   3.603   7.783  0.00  0.00    +0.210 HD
ENDBRANCH  14   5
TORSDOF 7
ENDMDL
MODEL 10
REMARK VINA RESULT:      -6.6     15.191     18.203
REMARK  Name = 75536134
REMARK  8 active torsions:
REMARK  status: ('A' for Active; 'I' for Inactive)
REMARK    1  A    between atoms: O_4  and  C_12
REMARK    2  A    between atoms: O_5  and  C_14
REMARK    3  A    between atoms: O_7  and  C_21
REMARK    4  A    between atoms: O_7  and  C_25
REMARK    5  A    between atoms: N_8  and  C_11
REMARK    6  A    between atoms: N_9  and  C_22
REMARK    7  A    between atoms: C_10  and  C_15
REMARK    8  A    between atoms: C_28  and  C_29
REMARK                            x       y       z     vdW  Elec       q    Type
REMARK                         _______ _______ _______ _____ _____    ______ ____
ROOT
ATOM     10  C   UNL     1      10.395   7.615   6.520  0.00  0.00    +0.044 C 
ATOM     11  C   UNL     1      10.383   6.113   6.154  0.00  0.00    +0.113 C 
ATOM     12  C   UNL     1      10.766   5.425   7.463  0.00  0.00    +0.164 C 
ATOM     13  C   UNL     1      10.189   7.677   8.055  0.00  0.00    +0.044 C 
ATOM     14  C   UNL     1      10.008   6.230   8.512  0.00  0.00    +0.145 C 
ENDROOT
BRANCH  11   8
ATOM      6  O   UNL     1       9.767   4.889   3.637  0.00  0.00    -0.252 OA
ATOM      8  N   UNL     1      11.311   5.808   5.094  0.00  0.00    -0.293 N 
ATOM      9  N   UNL     1      12.037   5.034   3.056  0.00  0.00    -0.269 N 
ATOM     18  C   UNL     1      10.928   5.207   3.888  0.00  0.00    +0.304 C 
ATOM     30  H   UNL     1      12.277   6.104   5.197  0.00  0.00    +0.151 HD
ATOM     33  H   UNL     1      12.933   5.351   3.417  0.00  0.00    +0.156 HD
BRANCH   9  22
ATOM     22  C   UNL     1      12.071   4.465   1.761  0.00  0.00    +0.035 A 
ATOM     23  C   UNL     1      13.067   3.548   1.427  0.00  0.00    +0.024 A 
ATOM     24  C   UNL     1      11.106   4.821   0.818  0.00  0.00    +0.024 A 
ATOM     26  C   UNL     1      13.100   2.987   0.151  0.00  0.00    +0.014 A 
ATOM     27  C   UNL     1      11.139   4.260  -0.459  0.00  0.00    +0.014 A 
ATOM     28  C   UNL     1      12.136   3.344  -0.793  0.00  0.00    +0.055 A 
BRANCH  28  29
ATOM      1  F   UNL     1      13.267   3.106  -2.887  0.00  0.00    -0.166 F 
ATOM      2  F   UNL     1      11.099   3.083  -2.933  0.00  0.00    -0.166 F 
ATOM      3  F   UNL     1      12.184   1.379  -2.131  0.00  0.00    -0.166 F 
ATOM     29  C   UNL     1      12.171   2.743  -2.158  0.00  0.00    +0.417 C 
ENDBRANCH  28  29
ENDBRANCH   9  22
ENDBRANCH  11   8
BRANCH  10  15
ATOM     15  C   UNL     1       9.394   8.427   5.724  0.00  0.00    -0.042 A 
ATOM     16  C   UNL     1       9.352   9.814   5.865  0.00  0.00    +0.007 A 
ATOM     17  C   UNL     1       8.515   7.788   4.851  0.00  0.00    +0.007 A 
ATOM     19  C   UNL     1       8.430  10.562   5.133  0.00  0.00    +0.046 A 
ATOM     20  C   UNL     1       7.594   8.536   4.118  0.00  0.00    +0.046 A 
ATOM     21  C   UNL     1       7.551   9.923   4.260  0.00  0.00    +0.120 A 
BRANCH  21   7
ATOM      7  O   UNL     1       6.650  10.652   3.546  0.00  0.00    -0.495 OA
ATOM     25  C   UNL     1       5.397  10.927   4.171  0.00  0.00    +0.277 C 
ENDBRANCH  21   7
ENDBRANCH  10  15
BRANCH  12   4
ATOM      4  O   UNL     1      10.380   4.063   7.486  0.00  0.00    -0.387 OA
ATOM     31  H   UNL     1       9.500   4.003   7.077  0.00  0.00    +0.210 HD
ENDBRANCH  12   4
BRANCH  14   5
ATOM      5  O   UNL     1       8.619   5.916   8.491  0.00  0.00    -0.389 OA
ATOM     32  H   UNL     1       8.157   6.600   9.005  0.00  0.00    +0.210 HD
ENDBRANCH  14   5
TORSDOF 7
ENDMDL
