MODEL 1
REMARK VINA RESULT:      -6.6      0.000      0.000
REMARK  Name = 26742295
REMARK  5 active torsions:
REMARK  status: ('A' for Active; 'I' for Inactive)
REMARK    1  A    between atoms: O_4  and  C_27
REMARK    2  A    between atoms: O_4  and  C_33
REMARK    3  A    between atoms: C_14  and  C_19
REMARK    4  A    between atoms: C_16  and  C_20
REMARK    5  A    between atoms: C_21  and  C_24
REMARK                            x       y       z     vdW  Elec       q    Type
REMARK                         _______ _______ _______ _____ _____    ______ ____
ROOT
ATOM      2  O   UNL     1     -14.711  11.574  15.636  0.00  0.00    -0.268 OA
ATOM      3  O   UNL     1     -11.448   7.709  16.748  0.00  0.00    -0.270 OA
ATOM      5  N   UNL     1     -10.748   9.595  17.943  0.00  0.00    -0.297 N 
ATOM      6  N   UNL     1     -13.022  11.703  17.254  0.00  0.00    -0.311 N 
ATOM      7  C   UNL     1     -10.543  11.677  16.599  0.00  0.00    +0.027 C 
ATOM      8  C   UNL     1     -11.187  11.811  18.967  0.00  0.00    +0.054 C 
ATOM      9  C   UNL     1     -10.351  12.479  17.876  0.00  0.00    +0.018 C 
ATOM     10  C   UNL     1     -10.093  10.219  16.795  0.00  0.00    +0.113 C 
ATOM     11  C   UNL     1     -12.013  11.779  16.189  0.00  0.00    +0.130 C 
ATOM     12  C   UNL     1     -10.680  10.372  19.191  0.00  0.00    +0.117 C 
ATOM     13  C   UNL     1     -12.680  11.788  18.621  0.00  0.00    +0.034 A 
ATOM     14  C   UNL     1     -13.651  11.813  19.572  0.00  0.00    -0.005 A 
ATOM     15  C   UNL     1     -14.355  11.635  16.813  0.00  0.00    +0.252 A 
ATOM     16  C   UNL     1     -11.388   8.363  17.787  0.00  0.00    +0.247 C 
ATOM     17  C   UNL     1     -15.039  11.749  19.142  0.00  0.00    +0.015 A 
ATOM     18  C   UNL     1     -15.397  11.655  17.862  0.00  0.00    +0.071 A 
ENDROOT
BRANCH  16  20
ATOM     20  C   UNL     1     -12.071   7.793  18.953  0.00  0.00    +0.037 A 
ATOM     22  C   UNL     1     -11.351   7.052  19.890  0.00  0.00    +0.016 A 
ATOM     23  C   UNL     1     -13.441   7.992  19.125  0.00  0.00    +0.016 A 
ATOM     25  C   UNL     1     -12.001   6.510  20.999  0.00  0.00    +0.046 A 
ATOM     26  C   UNL     1     -14.091   7.450  20.234  0.00  0.00    +0.046 A 
ATOM     27  C   UNL     1     -13.370   6.709  21.171  0.00  0.00    +0.120 A 
BRANCH  27   4
ATOM      4  O   UNL     1     -14.005   6.178  22.253  0.00  0.00    -0.495 OA
ATOM     33  C   UNL     1     -15.112   6.908  22.779  0.00  0.00    +0.277 C 
ENDBRANCH  27   4
ENDBRANCH  16  20
BRANCH  14  19
ATOM     19  C   UNL     1     -13.362  11.866  20.996  0.00  0.00    +0.010 C 
ATOM     21  C   UNL     1     -13.386  10.783  21.771  0.00  0.00    +0.008 C 
BRANCH  21  24
ATOM      1 CL   UNL     1     -12.261  10.805  27.648  0.00  0.00    -0.084 Cl
ATOM     24  C   UNL     1     -13.109  10.788  23.217  0.00  0.00    -0.025 A 
ATOM     28  C   UNL     1     -11.921  11.341  23.699  0.00  0.00    +0.009 A 
ATOM     29  C   UNL     1     -14.033  10.241  24.107  0.00  0.00    +0.009 A 
ATOM     30  C   UNL     1     -11.659  11.347  25.069  0.00  0.00    +0.020 A 
ATOM     31  C   UNL     1     -13.771  10.245  25.477  0.00  0.00    +0.020 A 
ATOM     32  C   UNL     1     -12.584  10.799  25.958  0.00  0.00    +0.041 A 
ENDBRANCH  21  24
ENDBRANCH  14  19
TORSDOF 4
ENDMDL
MODEL 2
REMARK VINA RESULT:      -6.6     25.647     29.370
REMARK  Name = 26742295
REMARK  5 active torsions:
REMARK  status: ('A' for Active; 'I' for Inactive)
REMARK    1  A    between atoms: O_4  and  C_27
REMARK    2  A    between atoms: O_4  and  C_33
REMARK    3  A    between atoms: C_14  and  C_19
REMARK    4  A    between atoms: C_16  and  C_20
REMARK    5  A    between atoms: C_21  and  C_24
REMARK                            x       y       z     vdW  Elec       q    Type
REMARK                         _______ _______ _______ _____ _____    ______ ____
ROOT
ATOM      2  O   UNL     1      10.888   5.578   8.671  0.00  0.00    -0.268 OA
ATOM      3  O   UNL     1      10.630  10.520   7.143  0.00  0.00    -0.270 OA
ATOM      5  N   UNL     1      11.941   9.364   5.588  0.00  0.00    -0.297 N 
ATOM      6  N   UNL     1      11.741   6.373   6.639  0.00  0.00    -0.311 N 
ATOM      7  C   UNL     1      13.750   7.965   6.568  0.00  0.00    +0.027 C 
ATOM      8  C   UNL     1      12.661   7.265   4.478  0.00  0.00    +0.054 C 
ATOM      9  C   UNL     1      14.004   7.344   5.204  0.00  0.00    +0.018 C 
ATOM     10  C   UNL     1      13.140   9.371   6.424  0.00  0.00    +0.113 C 
ATOM     11  C   UNL     1      12.845   7.021   7.360  0.00  0.00    +0.130 C 
ATOM     12  C   UNL     1      12.098   8.688   4.290  0.00  0.00    +0.117 C 
ATOM     13  C   UNL     1      11.646   6.400   5.231  0.00  0.00    +0.034 A 
ATOM     14  C   UNL     1      10.664   5.704   4.596  0.00  0.00    -0.005 A 
ATOM     15  C   UNL     1      10.845   5.648   7.442  0.00  0.00    +0.252 A 
ATOM     16  C   UNL     1      10.767   9.954   6.060  0.00  0.00    +0.247 C 
ATOM     17  C   UNL     1       9.725   4.943   5.405  0.00  0.00    +0.015 A 
ATOM     18  C   UNL     1       9.779   4.906   6.735  0.00  0.00    +0.071 A 
ENDROOT
BRANCH  16  20
ATOM     20  C   UNL     1       9.574   9.885   5.209  0.00  0.00    +0.037 A 
ATOM     22  C   UNL     1       8.777   8.742   5.217  0.00  0.00    +0.016 A 
ATOM     23  C   UNL     1       9.238  10.964   4.392  0.00  0.00    +0.016 A 
ATOM     25  C   UNL     1       7.642   8.676   4.408  0.00  0.00    +0.046 A 
ATOM     26  C   UNL     1       8.104  10.900   3.582  0.00  0.00    +0.046 A 
ATOM     27  C   UNL     1       7.306   9.755   3.591  0.00  0.00    +0.120 A 
BRANCH  27   4
ATOM      4  O   UNL     1       6.199   9.691   2.800  0.00  0.00    -0.495 OA
ATOM     33  C   UNL     1       5.093  10.516   3.161  0.00  0.00    +0.277 C 
ENDBRANCH  27   4
ENDBRANCH  16  20
BRANCH  14  19
ATOM     19  C   UNL     1      10.493   5.720   3.152  0.00  0.00    +0.010 C 
ATOM     21  C   UNL     1      10.935   4.737   2.369  0.00  0.00    +0.008 C 
BRANCH  21  24
ATOM      1 CL   UNL     1      10.359   4.640  -3.586  0.00  0.00    -0.084 Cl
ATOM     24  C   UNL     1      10.793   4.713   0.903  0.00  0.00    -0.025 A 
ATOM     28  C   UNL     1       9.823   5.501   0.283  0.00  0.00    +0.009 A 
ATOM     29  C   UNL     1      11.627   3.902   0.135  0.00  0.00    +0.009 A 
ATOM     30  C   UNL     1       9.689   5.479  -1.105  0.00  0.00    +0.020 A 
ATOM     31  C   UNL     1      11.493   3.879  -1.253  0.00  0.00    +0.020 A 
ATOM     32  C   UNL     1      10.524   4.668  -1.873  0.00  0.00    +0.041 A 
ENDBRANCH  21  24
ENDBRANCH  14  19
TORSDOF 4
ENDMDL
MODEL 3
REMARK VINA RESULT:      -6.5     32.494     34.666
REMARK  Name = 26742295
REMARK  5 active torsions:
REMARK  status: ('A' for Active; 'I' for Inactive)
REMARK    1  A    between atoms: O_4  and  C_27
REMARK    2  A    between atoms: O_4  and  C_33
REMARK    3  A    between atoms: C_14  and  C_19
REMARK    4  A    between atoms: C_16  and  C_20
REMARK    5  A    between atoms: C_21  and  C_24
REMARK                            x       y       z     vdW  Elec       q    Type
REMARK                         _______ _______ _______ _____ _____    ______ ____
ROOT
ATOM      2  O   UNL     1      19.787  -5.360  21.715  0.00  0.00    -0.268 OA
ATOM      3  O   UNL     1      20.692  -1.465  25.006  0.00  0.00    -0.270 OA
ATOM      5  N   UNL     1      18.388  -1.874  25.006  0.00  0.00    -0.297 N 
ATOM      6  N   UNL     1      18.160  -4.410  23.107  0.00  0.00    -0.311 N 
ATOM      7  C   UNL     1      17.342  -2.006  22.754  0.00  0.00    +0.027 C 
ATOM      8  C   UNL     1      16.438  -3.353  24.601  0.00  0.00    +0.054 C 
ATOM      9  C   UNL     1      16.054  -2.510  23.385  0.00  0.00    +0.018 C 
ATOM     10  C   UNL     1      18.147  -1.158  23.755  0.00  0.00    +0.113 C 
ATOM     11  C   UNL     1      18.132  -3.215  22.253  0.00  0.00    +0.130 C 
ATOM     12  C   UNL     1      17.190  -2.470  25.618  0.00  0.00    +0.117 C 
ATOM     13  C   UNL     1      17.304  -4.558  24.220  0.00  0.00    +0.034 A 
ATOM     14  C   UNL     1      17.291  -5.720  24.926  0.00  0.00    -0.005 A 
ATOM     15  C   UNL     1      19.030  -5.429  22.684  0.00  0.00    +0.252 A 
ATOM     16  C   UNL     1      19.687  -1.961  25.512  0.00  0.00    +0.247 C 
ATOM     17  C   UNL     1      18.179  -6.793  24.506  0.00  0.00    +0.015 A 
ATOM     18  C   UNL     1      19.008  -6.682  23.469  0.00  0.00    +0.071 A 
ENDROOT
BRANCH  16  20
ATOM     20  C   UNL     1      19.893  -2.726  26.747  0.00  0.00    +0.037 A 
ATOM     22  C   UNL     1      20.198  -4.085  26.682  0.00  0.00    +0.016 A 
ATOM     23  C   UNL     1      19.784  -2.094  27.985  0.00  0.00    +0.016 A 
ATOM     25  C   UNL     1      20.394  -4.813  27.856  0.00  0.00    +0.046 A 
ATOM     26  C   UNL     1      19.979  -2.821  29.159  0.00  0.00    +0.046 A 
ATOM     27  C   UNL     1      20.285  -4.181  29.094  0.00  0.00    +0.120 A 
BRANCH  27   4
ATOM      4  O   UNL     1      20.474  -4.891  30.240  0.00  0.00    -0.495 OA
ATOM     33  C   UNL     1      19.730  -4.484  31.387  0.00  0.00    +0.277 C 
ENDBRANCH  27   4
ENDBRANCH  16  20
BRANCH  14  19
ATOM     19  C   UNL     1      16.458  -5.922  26.101  0.00  0.00    +0.010 C 
ATOM     21  C   UNL     1      16.928  -5.801  27.341  0.00  0.00    +0.008 C 
BRANCH  21  24
ATOM      1 CL   UNL     1      13.668  -6.628  32.291  0.00  0.00    -0.084 Cl
ATOM     24  C   UNL     1      16.126  -6.004  28.559  0.00  0.00    -0.025 A 
ATOM     28  C   UNL     1      15.032  -6.871  28.538  0.00  0.00    +0.009 A 
ATOM     29  C   UNL     1      16.458  -5.331  29.734  0.00  0.00    +0.009 A 
ATOM     30  C   UNL     1      14.273  -7.064  29.692  0.00  0.00    +0.020 A 
ATOM     31  C   UNL     1      15.698  -5.523  30.888  0.00  0.00    +0.020 A 
ATOM     32  C   UNL     1      14.606  -6.390  30.867  0.00  0.00    +0.041 A 
ENDBRANCH  21  24
ENDBRANCH  14  19
TORSDOF 4
ENDMDL
MODEL 4
REMARK VINA RESULT:      -6.5     26.156     29.842
REMARK  Name = 26742295
REMARK  5 active torsions:
REMARK  status: ('A' for Active; 'I' for Inactive)
REMARK    1  A    between atoms: O_4  and  C_27
REMARK    2  A    between atoms: O_4  and  C_33
REMARK    3  A    between atoms: C_14  and  C_19
REMARK    4  A    between atoms: C_16  and  C_20
REMARK    5  A    between atoms: C_21  and  C_24
REMARK                            x       y       z     vdW  Elec       q    Type
REMARK                         _______ _______ _______ _____ _____    ______ ____
ROOT
ATOM      2  O   UNL     1      13.665   2.994   1.713  0.00  0.00    -0.268 OA
ATOM      3  O   UNL     1      15.418   6.946   4.565  0.00  0.00    -0.270 OA
ATOM      5  N   UNL     1      14.196   7.844   2.783  0.00  0.00    -0.297 N 
ATOM      6  N   UNL     1      13.076   5.234   1.360  0.00  0.00    -0.311 N 
ATOM      7  C   UNL     1      14.795   6.951   0.540  0.00  0.00    +0.027 C 
ATOM      8  C   UNL     1      12.484   7.649   0.999  0.00  0.00    +0.054 C 
ATOM      9  C   UNL     1      13.587   7.653  -0.058  0.00  0.00    +0.018 C 
ATOM     10  C   UNL     1      15.275   7.675   1.811  0.00  0.00    +0.113 C 
ATOM     11  C   UNL     1      14.414   5.495   0.812  0.00  0.00    +0.130 C 
ATOM     12  C   UNL     1      12.961   8.431   2.239  0.00  0.00    +0.117 C 
ATOM     13  C   UNL     1      12.076   6.229   1.406  0.00  0.00    +0.034 A 
ATOM     14  C   UNL     1      10.821   5.921   1.828  0.00  0.00    -0.005 A 
ATOM     15  C   UNL     1      12.836   3.904   1.745  0.00  0.00    +0.252 A 
ATOM     16  C   UNL     1      14.389   7.437   4.105  0.00  0.00    +0.247 C 
ATOM     17  C   UNL     1      10.544   4.551   2.229  0.00  0.00    +0.015 A 
ATOM     18  C   UNL     1      11.468   3.591   2.210  0.00  0.00    +0.071 A 
ENDROOT
BRANCH  16  20
ATOM     20  C   UNL     1      13.266   7.583   5.038  0.00  0.00    +0.037 A 
ATOM     22  C   UNL     1      12.304   6.578   5.133  0.00  0.00    +0.016 A 
ATOM     23  C   UNL     1      13.162   8.727   5.830  0.00  0.00    +0.016 A 
ATOM     25  C   UNL     1      11.236   6.717   6.021  0.00  0.00    +0.046 A 
ATOM     26  C   UNL     1      12.094   8.866   6.717  0.00  0.00    +0.046 A 
ATOM     27  C   UNL     1      11.132   7.860   6.813  0.00  0.00    +0.120 A 
BRANCH  27   4
ATOM      4  O   UNL     1      10.089   7.996   7.678  0.00  0.00    -0.495 OA
ATOM     33  C   UNL     1       9.111   6.958   7.684  0.00  0.00    +0.277 C 
ENDBRANCH  27   4
ENDBRANCH  16  20
BRANCH  14  19
ATOM     19  C   UNL     1       9.757   6.908   1.930  0.00  0.00    +0.010 C 
ATOM     21  C   UNL     1       9.369   7.424   3.095  0.00  0.00    +0.008 C 
BRANCH  21  24
ATOM      1 CL   UNL     1       4.997  11.462   3.719  0.00  0.00    -0.084 Cl
ATOM     24  C   UNL     1       8.293   8.417   3.249  0.00  0.00    -0.025 A 
ATOM     28  C   UNL     1       7.918   8.848   4.522  0.00  0.00    +0.009 A 
ATOM     29  C   UNL     1       7.649   8.928   2.123  0.00  0.00    +0.009 A 
ATOM     30  C   UNL     1       6.898   9.790   4.667  0.00  0.00    +0.020 A 
ATOM     31  C   UNL     1       6.629   9.869   2.268  0.00  0.00    +0.020 A 
ATOM     32  C   UNL     1       6.255  10.300   3.540  0.00  0.00    +0.041 A 
ENDBRANCH  21  24
ENDBRANCH  14  19
TORSDOF 4
ENDMDL
MODEL 5
REMARK VINA RESULT:      -6.5     19.001     22.271
REMARK  Name = 26742295
REMARK  5 active torsions:
REMARK  status: ('A' for Active; 'I' for Inactive)
REMARK    1  A    between atoms: O_4  and  C_27
REMARK    2  A    between atoms: O_4  and  C_33
REMARK    3  A    between atoms: C_14  and  C_19
REMARK    4  A    between atoms: C_16  and  C_20
REMARK    5  A    between atoms: C_21  and  C_24
REMARK                            x       y       z     vdW  Elec       q    Type
REMARK                         _______ _______ _______ _____ _____    ______ ____
ROOT
ATOM      2  O   UNL     1      -3.416 -11.466  17.814  0.00  0.00    -0.268 OA
ATOM      3  O   UNL     1      -6.573 -10.407  13.847  0.00  0.00    -0.270 OA
ATOM      5  N   UNL     1      -7.493 -12.206  15.026  0.00  0.00    -0.297 N 
ATOM      6  N   UNL     1      -5.501 -12.483  17.484  0.00  0.00    -0.311 N 
ATOM      7  C   UNL     1      -5.914 -14.066  15.510  0.00  0.00    +0.027 C 
ATOM      8  C   UNL     1      -7.732 -13.566  17.087  0.00  0.00    +0.054 C 
ATOM      9  C   UNL     1      -6.947 -14.700  16.427  0.00  0.00    +0.018 C 
ATOM     10  C   UNL     1      -6.595 -13.197  14.437  0.00  0.00    +0.113 C 
ATOM     11  C   UNL     1      -4.940 -13.263  16.372  0.00  0.00    +0.130 C 
ATOM     12  C   UNL     1      -8.456 -12.746  15.999  0.00  0.00    +0.117 C 
ATOM     13  C   UNL     1      -6.833 -12.646  17.919  0.00  0.00    +0.034 A 
ATOM     14  C   UNL     1      -7.285 -11.978  19.014  0.00  0.00    -0.005 A 
ATOM     15  C   UNL     1      -4.591 -11.636  18.141  0.00  0.00    +0.252 A 
ATOM     16  C   UNL     1      -7.374 -10.864  14.660  0.00  0.00    +0.247 C 
ATOM     17  C   UNL     1      -6.362 -11.098  19.714  0.00  0.00    +0.015 A 
ATOM     18  C   UNL     1      -5.102 -10.912  19.324  0.00  0.00    +0.071 A 
ENDROOT
BRANCH  16  20
ATOM     20  C   UNL     1      -8.265  -9.895  15.307  0.00  0.00    +0.037 A 
ATOM     22  C   UNL     1      -7.945  -9.387  16.566  0.00  0.00    +0.016 A 
ATOM     23  C   UNL     1      -9.431  -9.481  14.664  0.00  0.00    +0.016 A 
ATOM     25  C   UNL     1      -8.792  -8.465  17.182  0.00  0.00    +0.046 A 
ATOM     26  C   UNL     1     -10.279  -8.560  15.279  0.00  0.00    +0.046 A 
ATOM     27  C   UNL     1      -9.958  -8.051  16.538  0.00  0.00    +0.120 A 
BRANCH  27   4
ATOM      4  O   UNL     1     -10.786  -7.153  17.140  0.00  0.00    -0.495 OA
ATOM     33  C   UNL     1     -11.314  -6.108  16.325  0.00  0.00    +0.277 C 
ENDBRANCH  27   4
ENDBRANCH  16  20
BRANCH  14  19
ATOM     19  C   UNL     1      -8.655 -12.078  19.491  0.00  0.00    +0.010 C 
ATOM     21  C   UNL     1      -9.449 -11.016  19.612  0.00  0.00    +0.008 C 
BRANCH  21  24
ATOM      1 CL   UNL     1     -15.094 -11.221  21.588  0.00  0.00    -0.084 Cl
ATOM     24  C   UNL     1     -10.838 -11.067  20.099  0.00  0.00    -0.025 A 
ATOM     28  C   UNL     1     -11.602  -9.900  20.153  0.00  0.00    +0.009 A 
ATOM     29  C   UNL     1     -11.392 -12.280  20.505  0.00  0.00    +0.009 A 
ATOM     30  C   UNL     1     -12.918  -9.947  20.613  0.00  0.00    +0.020 A 
ATOM     31  C   UNL     1     -12.708 -12.328  20.966  0.00  0.00    +0.020 A 
ATOM     32  C   UNL     1     -13.471 -11.162  21.019  0.00  0.00    +0.041 A 
ENDBRANCH  21  24
ENDBRANCH  14  19
TORSDOF 4
ENDMDL
MODEL 6
REMARK VINA RESULT:      -6.4     25.862     28.332
REMARK  Name = 26742295
REMARK  5 active torsions:
REMARK  status: ('A' for Active; 'I' for Inactive)
REMARK    1  A    between atoms: O_4  and  C_27
REMARK    2  A    between atoms: O_4  and  C_33
REMARK    3  A    between atoms: C_14  and  C_19
REMARK    4  A    between atoms: C_16  and  C_20
REMARK    5  A    between atoms: C_21  and  C_24
REMARK                            x       y       z     vdW  Elec       q    Type
REMARK                         _______ _______ _______ _____ _____    ______ ____
ROOT
ATOM      2  O   UNL     1      10.165   9.002  22.181  0.00  0.00    -0.268 OA
ATOM      3  O   UNL     1      11.925  13.342  19.969  0.00  0.00    -0.270 OA
ATOM      5  N   UNL     1      13.619  12.514  21.354  0.00  0.00    -0.297 N 
ATOM      6  N   UNL     1      12.365   9.783  22.382  0.00  0.00    -0.311 N 
ATOM      7  C   UNL     1      12.903  11.937  23.665  0.00  0.00    +0.027 C 
ATOM      8  C   UNL     1      14.710  10.662  22.592  0.00  0.00    +0.054 C 
ATOM      9  C   UNL     1      14.249  11.276  23.914  0.00  0.00    +0.018 C 
ATOM     10  C   UNL     1      13.019  13.027  22.584  0.00  0.00    +0.113 C 
ATOM     11  C   UNL     1      11.901  10.848  23.282  0.00  0.00    +0.130 C 
ATOM     12  C   UNL     1      14.879  11.778  21.542  0.00  0.00    +0.117 C 
ATOM     13  C   UNL     1      13.730   9.604  22.073  0.00  0.00    +0.034 A 
ATOM     14  C   UNL     1      14.130   8.547  21.316  0.00  0.00    -0.005 A 
ATOM     15  C   UNL     1      11.367   8.903  21.931  0.00  0.00    +0.252 A 
ATOM     16  C   UNL     1      12.977  12.728  20.132  0.00  0.00    +0.247 C 
ATOM     17  C   UNL     1      13.117   7.618  20.839  0.00  0.00    +0.015 A 
ATOM     18  C   UNL     1      11.819   7.764  21.103  0.00  0.00    +0.071 A 
ENDROOT
BRANCH  16  20
ATOM     20  C   UNL     1      13.589  12.158  18.927  0.00  0.00    +0.037 A 
ATOM     22  C   UNL     1      13.320  10.838  18.566  0.00  0.00    +0.016 A 
ATOM     23  C   UNL     1      14.439  12.937  18.142  0.00  0.00    +0.016 A 
ATOM     25  C   UNL     1      13.902  10.296  17.419  0.00  0.00    +0.046 A 
ATOM     26  C   UNL     1      15.021  12.396  16.995  0.00  0.00    +0.046 A 
ATOM     27  C   UNL     1      14.752  11.075  16.634  0.00  0.00    +0.120 A 
BRANCH  27   4
ATOM      4  O   UNL     1      15.321  10.546  15.516  0.00  0.00    -0.495 OA
ATOM     33  C   UNL     1      15.667  11.453  14.472  0.00  0.00    +0.277 C 
ENDBRANCH  27   4
ENDBRANCH  16  20
BRANCH  14  19
ATOM     19  C   UNL     1      15.516   8.327  20.935  0.00  0.00    +0.010 C 
ATOM     21  C   UNL     1      16.331   7.533  21.629  0.00  0.00    +0.008 C 
BRANCH  21  24
ATOM      1 CL   UNL     1      22.066   6.533  20.245  0.00  0.00    -0.084 Cl
ATOM     24  C   UNL     1      17.742   7.287  21.288  0.00  0.00    -0.025 A 
ATOM     28  C   UNL     1      18.730   8.169  21.728  0.00  0.00    +0.009 A 
ATOM     29  C   UNL     1      18.092   6.174  20.526  0.00  0.00    +0.009 A 
ATOM     30  C   UNL     1      20.067   7.936  21.406  0.00  0.00    +0.020 A 
ATOM     31  C   UNL     1      19.429   5.940  20.202  0.00  0.00    +0.020 A 
ATOM     32  C   UNL     1      20.417   6.821  20.643  0.00  0.00    +0.041 A 
ENDBRANCH  21  24
ENDBRANCH  14  19
TORSDOF 4
ENDMDL
MODEL 7
REMARK VINA RESULT:      -6.3     19.737     22.891
REMARK  Name = 26742295
REMARK  5 active torsions:
REMARK  status: ('A' for Active; 'I' for Inactive)
REMARK    1  A    between atoms: O_4  and  C_27
REMARK    2  A    between atoms: O_4  and  C_33
REMARK    3  A    between atoms: C_14  and  C_19
REMARK    4  A    between atoms: C_16  and  C_20
REMARK    5  A    between atoms: C_21  and  C_24
REMARK                            x       y       z     vdW  Elec       q    Type
REMARK                         _______ _______ _______ _____ _____    ______ ____
ROOT
ATOM      2  O   UNL     1      -4.169 -15.352  14.618  0.00  0.00    -0.268 OA
ATOM      3  O   UNL     1      -3.312 -12.327  18.734  0.00  0.00    -0.270 OA
ATOM      5  N   UNL     1      -3.775 -10.933  16.913  0.00  0.00    -0.297 N 
ATOM      6  N   UNL     1      -4.469 -13.029  14.628  0.00  0.00    -0.311 N 
ATOM      7  C   UNL     1      -2.477 -11.428  14.850  0.00  0.00    +0.027 C 
ATOM      8  C   UNL     1      -4.760 -10.533  14.671  0.00  0.00    +0.054 C 
ATOM      9  C   UNL     1      -3.356 -10.465  14.069  0.00  0.00    +0.018 C 
ATOM     10  C   UNL     1      -2.436 -11.047  16.340  0.00  0.00    +0.113 C 
ATOM     11  C   UNL     1      -3.011 -12.844  14.630  0.00  0.00    +0.130 C 
ATOM     12  C   UNL     1      -4.705 -10.088  16.146  0.00  0.00    +0.117 C 
ATOM     13  C   UNL     1      -5.363 -11.938  14.574  0.00  0.00    +0.034 A 
ATOM     14  C   UNL     1      -6.702 -12.153  14.473  0.00  0.00    -0.005 A 
ATOM     15  C   UNL     1      -4.904 -14.364  14.588  0.00  0.00    +0.252 A 
ATOM     16  C   UNL     1      -4.084 -11.620  18.089  0.00  0.00    +0.247 C 
ATOM     17  C   UNL     1      -7.179 -13.527  14.426  0.00  0.00    +0.015 A 
ATOM     18  C   UNL     1      -6.363 -14.578  14.487  0.00  0.00    +0.071 A 
ENDROOT
BRANCH  16  20
ATOM     20  C   UNL     1      -5.453 -11.516  18.606  0.00  0.00    +0.037 A 
ATOM     22  C   UNL     1      -5.835 -10.397  19.345  0.00  0.00    +0.016 A 
ATOM     23  C   UNL     1      -6.372 -12.535  18.357  0.00  0.00    +0.016 A 
ATOM     25  C   UNL     1      -7.137 -10.297  19.837  0.00  0.00    +0.046 A 
ATOM     26  C   UNL     1      -7.674 -12.435  18.848  0.00  0.00    +0.046 A 
ATOM     27  C   UNL     1      -8.056 -11.316  19.588  0.00  0.00    +0.120 A 
BRANCH  27   4
ATOM      4  O   UNL     1      -9.326 -11.219  20.069  0.00  0.00    -0.495 OA
ATOM     33  C   UNL     1     -10.106 -12.414  20.089  0.00  0.00    +0.277 C 
ENDBRANCH  27   4
ENDBRANCH  16  20
BRANCH  14  19
ATOM     19  C   UNL     1      -7.676 -11.073  14.448  0.00  0.00    +0.010 C 
ATOM     21  C   UNL     1      -8.227 -10.581  15.556  0.00  0.00    +0.008 C 
BRANCH  21  24
ATOM      1 CL   UNL     1     -12.274  -6.174  15.651  0.00  0.00    -0.084 Cl
ATOM     24  C   UNL     1      -9.223  -9.496  15.579  0.00  0.00    -0.025 A 
ATOM     28  C   UNL     1     -10.062  -9.295  14.482  0.00  0.00    +0.009 A 
ATOM     29  C   UNL     1      -9.329  -8.670  16.697  0.00  0.00    +0.009 A 
ATOM     30  C   UNL     1     -11.005  -8.268  14.504  0.00  0.00    +0.020 A 
ATOM     31  C   UNL     1     -10.272  -7.642  16.720  0.00  0.00    +0.020 A 
ATOM     32  C   UNL     1     -11.110  -7.442  15.623  0.00  0.00    +0.041 A 
ENDBRANCH  21  24
ENDBRANCH  14  19
TORSDOF 4
ENDMDL
MODEL 8
REMARK VINA RESULT:      -6.3     26.303     30.274
REMARK  Name = 26742295
REMARK  5 active torsions:
REMARK  status: ('A' for Active; 'I' for Inactive)
REMARK    1  A    between atoms: O_4  and  C_27
REMARK    2  A    between atoms: O_4  and  C_33
REMARK    3  A    between atoms: C_14  and  C_19
REMARK    4  A    between atoms: C_16  and  C_20
REMARK    5  A    between atoms: C_21  and  C_24
REMARK                            x       y       z     vdW  Elec       q    Type
REMARK                         _______ _______ _______ _____ _____    ______ ____
ROOT
ATOM      2  O   UNL     1       8.260  10.652   5.278  0.00  0.00    -0.268 OA
ATOM      3  O   UNL     1      12.702   8.778   7.170  0.00  0.00    -0.270 OA
ATOM      5  N   UNL     1      11.384   6.958   6.520  0.00  0.00    -0.297 N 
ATOM      6  N   UNL     1       8.866   8.390   5.216  0.00  0.00    -0.311 N 
ATOM      7  C   UNL     1       9.044   6.998   7.362  0.00  0.00    +0.027 C 
ATOM      8  C   UNL     1       9.541   5.970   5.185  0.00  0.00    +0.054 C 
ATOM      9  C   UNL     1       8.701   5.829   6.454  0.00  0.00    +0.018 C 
ATOM     10  C   UNL     1      10.542   6.997   7.714  0.00  0.00    +0.113 C 
ATOM     11  C   UNL     1       8.616   8.288   6.660  0.00  0.00    +0.130 C 
ATOM     12  C   UNL     1      11.037   5.904   5.553  0.00  0.00    +0.117 C 
ATOM     13  C   UNL     1       9.246   7.275   4.439  0.00  0.00    +0.034 A 
ATOM     14  C   UNL     1       9.371   7.390   3.089  0.00  0.00    -0.005 A 
ATOM     15  C   UNL     1       8.608   9.651   4.651  0.00  0.00    +0.252 A 
ATOM     16  C   UNL     1      12.407   7.896   6.366  0.00  0.00    +0.247 C 
ATOM     17  C   UNL     1       9.106   8.683   2.479  0.00  0.00    +0.015 A 
ATOM     18  C   UNL     1       8.757   9.758   3.184  0.00  0.00    +0.071 A 
ENDROOT
BRANCH  16  20
ATOM     20  C   UNL     1      13.200   7.851   5.132  0.00  0.00    +0.037 A 
ATOM     22  C   UNL     1      12.660   8.331   3.940  0.00  0.00    +0.016 A 
ATOM     23  C   UNL     1      14.493   7.329   5.153  0.00  0.00    +0.016 A 
ATOM     25  C   UNL     1      13.414   8.289   2.766  0.00  0.00    +0.046 A 
ATOM     26  C   UNL     1      15.247   7.286   3.980  0.00  0.00    +0.046 A 
ATOM     27  C   UNL     1      14.707   7.766   2.787  0.00  0.00    +0.120 A 
BRANCH  27   4
ATOM      4  O   UNL     1      15.442   7.723   1.641  0.00  0.00    -0.495 OA
ATOM     33  C   UNL     1      15.374   6.524   0.871  0.00  0.00    +0.277 C 
ENDBRANCH  27   4
ENDBRANCH  16  20
BRANCH  14  19
ATOM     19  C   UNL     1       9.792   6.288   2.239  0.00  0.00    +0.010 C 
ATOM     21  C   UNL     1      10.454   6.477   1.098  0.00  0.00    +0.008 C 
BRANCH  21  24
ATOM      1 CL   UNL     1      12.236   2.079  -2.548  0.00  0.00    -0.084 Cl
ATOM     24  C   UNL     1      10.893   5.395   0.201  0.00  0.00    -0.025 A 
ATOM     28  C   UNL     1      11.990   4.604   0.545  0.00  0.00    +0.009 A 
ATOM     29  C   UNL     1      10.212   5.160  -0.993  0.00  0.00    +0.009 A 
ATOM     30  C   UNL     1      12.405   3.579  -0.304  0.00  0.00    +0.020 A 
ATOM     31  C   UNL     1      10.628   4.135  -1.844  0.00  0.00    +0.020 A 
ATOM     32  C   UNL     1      11.723   3.344  -1.499  0.00  0.00    +0.041 A 
ENDBRANCH  21  24
ENDBRANCH  14  19
TORSDOF 4
ENDMDL
MODEL 9
REMARK VINA RESULT:      -6.3     21.074     24.079
REMARK  Name = 26742295
REMARK  5 active torsions:
REMARK  status: ('A' for Active; 'I' for Inactive)
REMARK    1  A    between atoms: O_4  and  C_27
REMARK    2  A    between atoms: O_4  and  C_33
REMARK    3  A    between atoms: C_14  and  C_19
REMARK    4  A    between atoms: C_16  and  C_20
REMARK    5  A    between atoms: C_21  and  C_24
REMARK                            x       y       z     vdW  Elec       q    Type
REMARK                         _______ _______ _______ _____ _____    ______ ____
ROOT
ATOM      2  O   UNL     1      -6.133 -11.644  20.697  0.00  0.00    -0.268 OA
ATOM      3  O   UNL     1      -9.045 -14.676  17.672  0.00  0.00    -0.270 OA
ATOM      5  N   UNL     1      -9.233 -12.485  16.872  0.00  0.00    -0.297 N 
ATOM      6  N   UNL     1      -7.204 -10.915  18.745  0.00  0.00    -0.311 N 
ATOM      7  C   UNL     1      -9.760 -10.775  18.600  0.00  0.00    +0.027 C 
ATOM      8  C   UNL     1      -8.383 -10.165  16.657  0.00  0.00    +0.054 C 
ATOM      9  C   UNL     1      -9.493  -9.674  17.587  0.00  0.00    +0.018 C 
ATOM     10  C   UNL     1     -10.192 -12.074  17.896  0.00  0.00    +0.113 C 
ATOM     11  C   UNL     1      -8.497 -10.966  19.440  0.00  0.00    +0.130 C 
ATOM     12  C   UNL     1      -8.859 -11.430  15.917  0.00  0.00    +0.117 C 
ATOM     13  C   UNL     1      -7.084 -10.463  17.414  0.00  0.00    +0.034 A 
ATOM     14  C   UNL     1      -5.858 -10.337  16.838  0.00  0.00    -0.005 A 
ATOM     15  C   UNL     1      -6.088 -11.258  19.528  0.00  0.00    +0.252 A 
ATOM     16  C   UNL     1      -8.736 -13.791  16.877  0.00  0.00    +0.247 C 
ATOM     17  C   UNL     1      -4.687 -10.682  17.629  0.00  0.00    +0.015 A 
ATOM     18  C   UNL     1      -4.765 -11.123  18.884  0.00  0.00    +0.071 A 
ENDROOT
BRANCH  16  20
ATOM     20  C   UNL     1      -7.742 -14.150  15.859  0.00  0.00    +0.037 A 
ATOM     22  C   UNL     1      -8.152 -14.719  14.655  0.00  0.00    +0.016 A 
ATOM     23  C   UNL     1      -6.387 -13.921  16.098  0.00  0.00    +0.016 A 
ATOM     25  C   UNL     1      -7.207 -15.060  13.687  0.00  0.00    +0.046 A 
ATOM     26  C   UNL     1      -5.441 -14.262  15.130  0.00  0.00    +0.046 A 
ATOM     27  C   UNL     1      -5.852 -14.832  13.925  0.00  0.00    +0.120 A 
BRANCH  27   4
ATOM      4  O   UNL     1      -4.929 -15.166  12.981  0.00  0.00    -0.495 OA
ATOM     33  C   UNL     1      -3.757 -14.357  12.903  0.00  0.00    +0.277 C 
ENDBRANCH  27   4
ENDBRANCH  16  20
BRANCH  14  19
ATOM     19  C   UNL     1      -5.672  -9.909  15.461  0.00  0.00    +0.010 C 
ATOM     21  C   UNL     1      -4.987 -10.630  14.575  0.00  0.00    +0.008 C 
BRANCH  21  24
ATOM      1 CL   UNL     1      -4.081  -9.020   8.883  0.00  0.00    -0.084 Cl
ATOM     24  C   UNL     1      -4.764 -10.234  13.174  0.00  0.00    -0.025 A 
ATOM     28  C   UNL     1      -5.795  -9.641  12.444  0.00  0.00    +0.009 A 
ATOM     29  C   UNL     1      -3.523 -10.451  12.576  0.00  0.00    +0.009 A 
ATOM     30  C   UNL     1      -5.584  -9.265  11.117  0.00  0.00    +0.020 A 
ATOM     31  C   UNL     1      -3.312 -10.076  11.249  0.00  0.00    +0.020 A 
ATOM     32  C   UNL     1      -4.342  -9.483  10.520  0.00  0.00    +0.041 A 
ENDBRANCH  21  24
ENDBRANCH  14  19
TORSDOF 4
ENDMDL
MODEL 10
REMARK VINA RESULT:      -6.2     22.609     25.939
REMARK  Name = 26742295
REMARK  5 active torsions:
REMARK  status: ('A' for Active; 'I' for Inactive)
REMARK    1  A    between atoms: O_4  and  C_27
REMARK    2  A    between atoms: O_4  and  C_33
REMARK    3  A    between atoms: C_14  and  C_19
REMARK    4  A    between atoms: C_16  and  C_20
REMARK    5  A    between atoms: C_21  and  C_24
REMARK                            x       y       z     vdW  Elec       q    Type
REMARK                         _______ _______ _______ _____ _____    ______ ____
ROOT
ATOM      2  O   UNL     1      -1.549 -10.753  17.040  0.00  0.00    -0.268 OA
ATOM      3  O   UNL     1      -4.654 -14.824  16.260  0.00  0.00    -0.270 OA
ATOM      5  N   UNL     1      -5.686 -12.951  15.308  0.00  0.00    -0.297 N 
ATOM      6  N   UNL     1      -3.492 -10.694  15.733  0.00  0.00    -0.311 N 
ATOM      7  C   UNL     1      -5.815 -10.955  16.786  0.00  0.00    +0.027 C 
ATOM      8  C   UNL     1      -5.593 -10.663  14.356  0.00  0.00    +0.054 C 
ATOM      9  C   UNL     1      -6.280 -10.117  15.607  0.00  0.00    +0.018 C 
ATOM     10  C   UNL     1      -6.181 -12.436  16.583  0.00  0.00    +0.113 C 
ATOM     11  C   UNL     1      -4.309 -10.750  16.953  0.00  0.00    +0.130 C 
ATOM     12  C   UNL     1      -6.022 -12.128  14.136  0.00  0.00    +0.117 C 
ATOM     13  C   UNL     1      -4.066 -10.577  14.449  0.00  0.00    +0.034 A 
ATOM     14  C   UNL     1      -3.274 -10.428  13.354  0.00  0.00    -0.005 A 
ATOM     15  C   UNL     1      -2.103 -10.669  15.944  0.00  0.00    +0.252 A 
ATOM     16  C   UNL     1      -4.938 -14.131  15.285  0.00  0.00    +0.247 C 
ATOM     17  C   UNL     1      -1.832 -10.396  13.545  0.00  0.00    +0.015 A 
ATOM     18  C   UNL     1      -1.257 -10.515  14.741  0.00  0.00    +0.071 A 
ENDROOT
BRANCH  16  20
ATOM     20  C   UNL     1      -4.421 -14.590  13.991  0.00  0.00    +0.037 A 
ATOM     22  C   UNL     1      -5.179 -15.458  13.206  0.00  0.00    +0.016 A 
ATOM     23  C   UNL     1      -3.171 -14.157  13.546  0.00  0.00    +0.016 A 
ATOM     25  C   UNL     1      -4.687 -15.894  11.975  0.00  0.00    +0.046 A 
ATOM     26  C   UNL     1      -2.679 -14.593  12.316  0.00  0.00    +0.046 A 
ATOM     27  C   UNL     1      -3.438 -15.462  11.530  0.00  0.00    +0.120 A 
BRANCH  27   4
ATOM      4  O   UNL     1      -2.958 -15.889  10.330  0.00  0.00    -0.495 OA
ATOM     33  C   UNL     1      -1.792 -16.711  10.352  0.00  0.00    +0.277 C 
ENDBRANCH  27   4
ENDBRANCH  16  20
BRANCH  14  19
ATOM     19  C   UNL     1      -3.803 -10.336  12.003  0.00  0.00    +0.010 C 
ATOM     21  C   UNL     1      -3.565 -11.264  11.077  0.00  0.00    +0.008 C 
BRANCH  21  24
ATOM      1 CL   UNL     1      -5.623 -11.047   5.462  0.00  0.00    -0.084 Cl
ATOM     24  C   UNL     1      -4.071 -11.211   9.695  0.00  0.00    -0.025 A 
ATOM     28  C   UNL     1      -4.084 -12.365   8.911  0.00  0.00    +0.009 A 
ATOM     29  C   UNL     1      -4.539 -10.007   9.169  0.00  0.00    +0.009 A 
ATOM     30  C   UNL     1      -4.564 -12.315   7.602  0.00  0.00    +0.020 A 
ATOM     31  C   UNL     1      -5.018  -9.956   7.860  0.00  0.00    +0.020 A 
ATOM     32  C   UNL     1      -5.031 -11.110   7.077  0.00  0.00    +0.041 A 
ENDBRANCH  21  24
ENDBRANCH  14  19
TORSDOF 4
ENDMDL
