MODEL 1
REMARK VINA RESULT:      -8.0      0.000      0.000
REMARK  Name = 26744916
REMARK  5 active torsions:
REMARK  status: ('A' for Active; 'I' for Inactive)
REMARK    1  A    between atoms: N_3  and  C_13
REMARK    2  A    between atoms: C_8  and  C_14
REMARK    3  A    between atoms: C_13  and  C_15
REMARK    4  A    between atoms: C_17  and  C_20
REMARK    5  A    between atoms: C_20  and  C_23
REMARK                            x       y       z     vdW  Elec       q    Type
REMARK                         _______ _______ _______ _____ _____    ______ ____
ROOT
ATOM      3  N   UNL     1      14.325   7.527  19.283  0.00  0.00    -0.281 NA
ATOM      4  N   UNL     1      11.848   6.523  21.914  0.00  0.00    -0.347 N 
ATOM      5  N   UNL     1      10.455   7.905  20.842  0.00  0.00    -0.240 NA
ATOM      8  C   UNL     1      13.267   7.831  18.258  0.00  0.00    +0.152 C 
ATOM      9  C   UNL     1      11.980   8.468  18.895  0.00  0.00    +0.086 C 
ATOM     10  C   UNL     1      13.848   6.566  20.319  0.00  0.00    +0.140 C 
ATOM     11  C   UNL     1      12.503   6.942  20.795  0.00  0.00    +0.053 A 
ATOM     12  C   UNL     1      11.629   7.780  20.153  0.00  0.00    +0.065 A 
ATOM     16  C   UNL     1      10.616   7.131  21.897  0.00  0.00    +0.197 A 
ATOM     30  H   UNL     1      12.193   5.885  22.618  0.00  0.00    +0.167 HD
ENDROOT
BRANCH   8  14
ATOM      2  O   UNL     1      13.978   8.168  15.934  0.00  0.00    -0.336 OA
ATOM      6  N   UNL     1      13.951  10.043  17.158  0.00  0.00    -0.194 NA
ATOM      7  N   UNL     1      14.394   9.197  15.079  0.00  0.00    -0.061 NA
ATOM     14  C   UNL     1      13.738   8.751  17.137  0.00  0.00    +0.245 A 
ATOM     17  C   UNL     1      14.352  10.270  15.874  0.00  0.00    +0.176 A 
BRANCH  17  20
ATOM     20  C   UNL     1      14.717  11.607  15.393  0.00  0.00    +0.114 C 
BRANCH  20  23
ATOM     23  C   UNL     1      16.189  11.971  15.570  0.00  0.00    -0.040 A 
ATOM     25  C   UNL     1      17.117  11.618  14.591  0.00  0.00    +0.004 A 
ATOM     26  C   UNL     1      16.604  12.658  16.710  0.00  0.00    +0.004 A 
ATOM     27  C   UNL     1      18.461  11.951  14.753  0.00  0.00    +0.000 A 
ATOM     28  C   UNL     1      17.949  12.991  16.873  0.00  0.00    +0.000 A 
ATOM     29  C   UNL     1      18.878  12.637  15.894  0.00  0.00    +0.000 A 
ENDBRANCH  20  23
ENDBRANCH  17  20
ENDBRANCH   8  14
BRANCH   3  13
ATOM     13  C   UNL     1      15.546   6.980  18.678  0.00  0.00    +0.120 C 
BRANCH  13  15
ATOM      1  F   UNL     1      19.915   7.182  22.232  0.00  0.00    -0.205 F 
ATOM     15  C   UNL     1      16.714   7.033  19.627  0.00  0.00    -0.033 A 
ATOM     18  C   UNL     1      16.816   8.076  20.549  0.00  0.00    +0.008 A 
ATOM     19  C   UNL     1      17.694   6.042  19.585  0.00  0.00    +0.008 A 
ATOM     21  C   UNL     1      17.898   8.126  21.428  0.00  0.00    +0.038 A 
ATOM     22  C   UNL     1      18.775   6.092  20.464  0.00  0.00    +0.038 A 
ATOM     24  C   UNL     1      18.877   7.134  21.386  0.00  0.00    +0.123 A 
ENDBRANCH  13  15
ENDBRANCH   3  13
TORSDOF 5
ENDMDL
MODEL 2
REMARK VINA RESULT:      -7.7      4.096      7.535
REMARK  Name = 26744916
REMARK  5 active torsions:
REMARK  status: ('A' for Active; 'I' for Inactive)
REMARK    1  A    between atoms: N_3  and  C_13
REMARK    2  A    between atoms: C_8  and  C_14
REMARK    3  A    between atoms: C_13  and  C_15
REMARK    4  A    between atoms: C_17  and  C_20
REMARK    5  A    between atoms: C_20  and  C_23
REMARK                            x       y       z     vdW  Elec       q    Type
REMARK                         _______ _______ _______ _____ _____    ______ ____
ROOT
ATOM      3  N   UNL     1      15.271   7.315  19.623  0.00  0.00    -0.281 NA
ATOM      4  N   UNL     1      18.796   6.049  19.809  0.00  0.00    -0.347 N 
ATOM      5  N   UNL     1      19.028   7.535  21.463  0.00  0.00    -0.240 NA
ATOM      8  C   UNL     1      15.233   7.725  21.069  0.00  0.00    +0.152 C 
ATOM      9  C   UNL     1      16.610   8.294  21.568  0.00  0.00    +0.086 C 
ATOM     10  C   UNL     1      16.284   6.253  19.362  0.00  0.00    +0.140 C 
ATOM     11  C   UNL     1      17.561   6.580  20.028  0.00  0.00    +0.053 A 
ATOM     12  C   UNL     1      17.727   7.481  21.048  0.00  0.00    +0.065 A 
ATOM     16  C   UNL     1      19.647   6.657  20.699  0.00  0.00    +0.197 A 
ATOM     30  H   UNL     1      19.042   5.341  19.130  0.00  0.00    +0.167 HD
ENDROOT
BRANCH   8  14
ATOM      2  O   UNL     1      14.509  10.060  21.271  0.00  0.00    -0.336 OA
ATOM      6  N   UNL     1      12.920   8.568  21.781  0.00  0.00    -0.194 NA
ATOM      7  N   UNL     1      13.374  10.804  21.619  0.00  0.00    -0.061 NA
ATOM     14  C   UNL     1      14.157   8.754  21.394  0.00  0.00    +0.245 A 
ATOM     17  C   UNL     1      12.480   9.853  21.907  0.00  0.00    +0.176 A 
BRANCH  17  20
ATOM     20  C   UNL     1      11.114  10.175  22.331  0.00  0.00    +0.114 C 
BRANCH  20  23
ATOM     23  C   UNL     1      10.996  11.406  23.226  0.00  0.00    -0.040 A 
ATOM     25  C   UNL     1      11.074  11.271  24.612  0.00  0.00    +0.004 A 
ATOM     26  C   UNL     1      10.810  12.665  22.657  0.00  0.00    +0.004 A 
ATOM     27  C   UNL     1      10.967  12.396  25.429  0.00  0.00    +0.000 A 
ATOM     28  C   UNL     1      10.702  13.791  23.473  0.00  0.00    +0.000 A 
ATOM     29  C   UNL     1      10.780  13.656  24.859  0.00  0.00    +0.000 A 
ENDBRANCH  20  23
ENDBRANCH  17  20
ENDBRANCH   8  14
BRANCH   3  13
ATOM     13  C   UNL     1      13.968   6.831  19.146  0.00  0.00    +0.120 C 
BRANCH  13  15
ATOM      1  F   UNL     1      11.959  10.012  14.952  0.00  0.00    -0.205 F 
ATOM     15  C   UNL     1      13.430   7.682  18.026  0.00  0.00    -0.033 A 
ATOM     18  C   UNL     1      14.263   8.050  16.969  0.00  0.00    +0.008 A 
ATOM     19  C   UNL     1      12.101   8.101  18.044  0.00  0.00    +0.008 A 
ATOM     21  C   UNL     1      13.766   8.838  15.931  0.00  0.00    +0.038 A 
ATOM     22  C   UNL     1      11.604   8.889  17.007  0.00  0.00    +0.038 A 
ATOM     24  C   UNL     1      12.437   9.257  15.949  0.00  0.00    +0.123 A 
ENDBRANCH  13  15
ENDBRANCH   3  13
TORSDOF 5
ENDMDL
MODEL 3
REMARK VINA RESULT:      -7.6      4.446      6.813
REMARK  Name = 26744916
REMARK  5 active torsions:
REMARK  status: ('A' for Active; 'I' for Inactive)
REMARK    1  A    between atoms: N_3  and  C_13
REMARK    2  A    between atoms: C_8  and  C_14
REMARK    3  A    between atoms: C_13  and  C_15
REMARK    4  A    between atoms: C_17  and  C_20
REMARK    5  A    between atoms: C_20  and  C_23
REMARK                            x       y       z     vdW  Elec       q    Type
REMARK                         _______ _______ _______ _____ _____    ______ ____
ROOT
ATOM      3  N   UNL     1      12.183  11.082  22.419  0.00  0.00    -0.281 NA
ATOM      4  N   UNL     1      10.249  13.190  24.844  0.00  0.00    -0.347 N 
ATOM      5  N   UNL     1      12.261  13.837  25.574  0.00  0.00    -0.240 NA
ATOM      8  C   UNL     1      13.376  11.996  22.418  0.00  0.00    +0.152 C 
ATOM      9  C   UNL     1      13.651  12.627  23.830  0.00  0.00    +0.086 C 
ATOM     10  C   UNL     1      10.930  11.787  22.815  0.00  0.00    +0.140 C 
ATOM     11  C   UNL     1      11.164  12.630  24.004  0.00  0.00    +0.053 A 
ATOM     12  C   UNL     1      12.386  13.046  24.466  0.00  0.00    +0.065 A 
ATOM     16  C   UNL     1      10.960  13.908  25.775  0.00  0.00    +0.197 A 
ATOM     30  H   UNL     1       9.243  13.102  24.794  0.00  0.00    +0.167 HD
ENDROOT
BRANCH   8  14
ATOM      2  O   UNL     1      15.261  11.875  20.851  0.00  0.00    -0.336 OA
ATOM      6  N   UNL     1      15.296  10.298  22.440  0.00  0.00    -0.194 NA
ATOM      7  N   UNL     1      16.407  11.106  20.610  0.00  0.00    -0.061 NA
ATOM     14  C   UNL     1      14.665  11.333  21.945  0.00  0.00    +0.245 A 
ATOM     17  C   UNL     1      16.357  10.196  21.589  0.00  0.00    +0.176 A 
BRANCH  17  20
ATOM     20  C   UNL     1      17.381   9.156  21.734  0.00  0.00    +0.114 C 
BRANCH  20  23
ATOM     23  C   UNL     1      17.232   7.975  20.779  0.00  0.00    -0.040 A 
ATOM     25  C   UNL     1      18.274   7.060  20.633  0.00  0.00    +0.004 A 
ATOM     26  C   UNL     1      16.052   7.810  20.054  0.00  0.00    +0.004 A 
ATOM     27  C   UNL     1      18.137   5.980  19.761  0.00  0.00    +0.000 A 
ATOM     28  C   UNL     1      15.915   6.730  19.181  0.00  0.00    +0.000 A 
ATOM     29  C   UNL     1      16.957   5.816  19.034  0.00  0.00    +0.000 A 
ENDBRANCH  20  23
ENDBRANCH  17  20
ENDBRANCH   8  14
BRANCH   3  13
ATOM     13  C   UNL     1      11.960  10.454  21.110  0.00  0.00    +0.120 C 
BRANCH  13  15
ATOM      1  F   UNL     1      11.024   4.916  21.570  0.00  0.00    -0.205 F 
ATOM     15  C   UNL     1      11.709   8.974  21.233  0.00  0.00    -0.033 A 
ATOM     18  C   UNL     1      12.599   8.066  20.659  0.00  0.00    +0.008 A 
ATOM     19  C   UNL     1      10.588   8.511  21.921  0.00  0.00    +0.008 A 
ATOM     21  C   UNL     1      12.367   6.695  20.772  0.00  0.00    +0.038 A 
ATOM     22  C   UNL     1      10.356   7.141  22.034  0.00  0.00    +0.038 A 
ATOM     24  C   UNL     1      11.246   6.233  21.460  0.00  0.00    +0.123 A 
ENDBRANCH  13  15
ENDBRANCH   3  13
TORSDOF 5
ENDMDL
MODEL 4
REMARK VINA RESULT:      -7.2     26.708     31.132
REMARK  Name = 26744916
REMARK  5 active torsions:
REMARK  status: ('A' for Active; 'I' for Inactive)
REMARK    1  A    between atoms: N_3  and  C_13
REMARK    2  A    between atoms: C_8  and  C_14
REMARK    3  A    between atoms: C_13  and  C_15
REMARK    4  A    between atoms: C_17  and  C_20
REMARK    5  A    between atoms: C_20  and  C_23
REMARK                            x       y       z     vdW  Elec       q    Type
REMARK                         _______ _______ _______ _____ _____    ______ ____
ROOT
ATOM      3  N   UNL     1      -5.908 -10.929  15.900  0.00  0.00    -0.281 NA
ATOM      4  N   UNL     1      -2.559 -10.259  14.350  0.00  0.00    -0.347 N 
ATOM      5  N   UNL     1      -1.750 -10.741  16.378  0.00  0.00    -0.240 NA
ATOM      8  C   UNL     1      -5.355 -11.874  16.931  0.00  0.00    +0.152 C 
ATOM      9  C   UNL     1      -3.941 -11.434  17.452  0.00  0.00    +0.086 C 
ATOM     10  C   UNL     1      -5.030 -10.826  14.699  0.00  0.00    +0.140 C 
ATOM     11  C   UNL     1      -3.617 -10.673  15.101  0.00  0.00    +0.053 A 
ATOM     12  C   UNL     1      -3.097 -10.968  16.334  0.00  0.00    +0.065 A 
ATOM     16  C   UNL     1      -1.455 -10.317  15.165  0.00  0.00    +0.197 A 
ATOM     30  H   UNL     1      -2.576  -9.970  13.381  0.00  0.00    +0.167 HD
ENDROOT
BRANCH   8  14
ATOM      2  O   UNL     1      -5.943 -11.359  19.257  0.00  0.00    -0.336 OA
ATOM      6  N   UNL     1      -7.318 -12.828  18.275  0.00  0.00    -0.194 NA
ATOM      7  N   UNL     1      -6.902 -11.698  20.220  0.00  0.00    -0.061 NA
ATOM     14  C   UNL     1      -6.261 -12.067  18.142  0.00  0.00    +0.245 A 
ATOM     17  C   UNL     1      -7.676 -12.569  19.565  0.00  0.00    +0.176 A 
BRANCH  17  20
ATOM     20  C   UNL     1      -8.838 -13.204  20.198  0.00  0.00    +0.114 C 
BRANCH  20  23
ATOM     23  C   UNL     1     -10.087 -12.329  20.264  0.00  0.00    -0.040 A 
ATOM     25  C   UNL     1     -11.292 -12.867  20.716  0.00  0.00    +0.004 A 
ATOM     26  C   UNL     1     -10.023 -10.992  19.872  0.00  0.00    +0.004 A 
ATOM     27  C   UNL     1     -12.433 -12.068  20.777  0.00  0.00    +0.000 A 
ATOM     28  C   UNL     1     -11.165 -10.193  19.932  0.00  0.00    +0.000 A 
ATOM     29  C   UNL     1     -12.369 -10.731  20.384  0.00  0.00    +0.000 A 
ENDBRANCH  20  23
ENDBRANCH  17  20
ENDBRANCH   8  14
BRANCH   3  13
ATOM     13  C   UNL     1      -7.252 -11.315  15.452  0.00  0.00    +0.120 C 
BRANCH  13  15
ATOM      1  F   UNL     1     -11.203  -7.797  17.392  0.00  0.00    -0.205 F 
ATOM     15  C   UNL     1      -8.307 -10.374  15.971  0.00  0.00    -0.033 A 
ATOM     18  C   UNL     1      -9.657 -10.646  15.742  0.00  0.00    +0.008 A 
ATOM     19  C   UNL     1      -7.936  -9.232  16.679  0.00  0.00    +0.008 A 
ATOM     21  C   UNL     1     -10.635  -9.775  16.222  0.00  0.00    +0.038 A 
ATOM     22  C   UNL     1      -8.914  -8.360  17.159  0.00  0.00    +0.038 A 
ATOM     24  C   UNL     1     -10.264  -8.632  16.930  0.00  0.00    +0.123 A 
ENDBRANCH  13  15
ENDBRANCH   3  13
TORSDOF 5
ENDMDL
MODEL 5
REMARK VINA RESULT:      -7.0     14.385     16.742
REMARK  Name = 26744916
REMARK  5 active torsions:
REMARK  status: ('A' for Active; 'I' for Inactive)
REMARK    1  A    between atoms: N_3  and  C_13
REMARK    2  A    between atoms: C_8  and  C_14
REMARK    3  A    between atoms: C_13  and  C_15
REMARK    4  A    between atoms: C_17  and  C_20
REMARK    5  A    between atoms: C_20  and  C_23
REMARK                            x       y       z     vdW  Elec       q    Type
REMARK                         _______ _______ _______ _____ _____    ______ ____
ROOT
ATOM      3  N   UNL     1      10.215   5.479   4.496  0.00  0.00    -0.281 NA
ATOM      4  N   UNL     1      10.124   3.952   7.921  0.00  0.00    -0.347 N 
ATOM      5  N   UNL     1       9.365   5.952   8.571  0.00  0.00    -0.240 NA
ATOM      8  C   UNL     1       9.117   6.462   4.794  0.00  0.00    +0.152 C 
ATOM      9  C   UNL     1       9.174   6.999   6.269  0.00  0.00    +0.086 C 
ATOM     10  C   UNL     1      10.159   4.282   5.383  0.00  0.00    +0.140 C 
ATOM     11  C   UNL     1       9.945   4.686   6.787  0.00  0.00    +0.053 A 
ATOM     12  C   UNL     1       9.474   5.901   7.210  0.00  0.00    +0.065 A 
ATOM     16  C   UNL     1       9.761   4.760   8.971  0.00  0.00    +0.197 A 
ATOM     30  H   UNL     1      10.454   2.999   7.982  0.00  0.00    +0.167 HD
ENDROOT
BRANCH   8  14
ATOM      2  O   UNL     1      10.164   8.498   3.912  0.00  0.00    -0.336 OA
ATOM      6  N   UNL     1       8.177   8.027   2.995  0.00  0.00    -0.194 NA
ATOM      7  N   UNL     1       9.916   9.513   2.980  0.00  0.00    -0.061 NA
ATOM     14  C   UNL     1       9.092   7.665   3.859  0.00  0.00    +0.245 A 
ATOM     17  C   UNL     1       8.725   9.165   2.481  0.00  0.00    +0.176 A 
BRANCH  17  20
ATOM     20  C   UNL     1       8.054   9.960   1.447  0.00  0.00    +0.114 C 
BRANCH  20  23
ATOM     23  C   UNL     1       6.534  10.017   1.570  0.00  0.00    -0.040 A 
ATOM     25  C   UNL     1       5.732   9.485   0.561  0.00  0.00    +0.004 A 
ATOM     26  C   UNL     1       5.948  10.601   2.693  0.00  0.00    +0.004 A 
ATOM     27  C   UNL     1       4.343   9.537   0.675  0.00  0.00    +0.000 A 
ATOM     28  C   UNL     1       4.558  10.654   2.806  0.00  0.00    +0.000 A 
ATOM     29  C   UNL     1       3.756  10.122   1.797  0.00  0.00    +0.000 A 
ENDBRANCH  20  23
ENDBRANCH  17  20
ENDBRANCH   8  14
BRANCH   3  13
ATOM     13  C   UNL     1      10.190   5.019   3.102  0.00  0.00    +0.120 C 
BRANCH  13  15
ATOM      1  F   UNL     1      15.378   4.128   1.093  0.00  0.00    -0.205 F 
ATOM     15  C   UNL     1      11.576   4.780   2.565  0.00  0.00    -0.033 A 
ATOM     18  C   UNL     1      12.490   5.832   2.502  0.00  0.00    +0.008 A 
ATOM     19  C   UNL     1      11.946   3.507   2.130  0.00  0.00    +0.008 A 
ATOM     21  C   UNL     1      13.774   5.612   2.004  0.00  0.00    +0.038 A 
ATOM     22  C   UNL     1      13.230   3.287   1.632  0.00  0.00    +0.038 A 
ATOM     24  C   UNL     1      14.144   4.340   1.569  0.00  0.00    +0.123 A 
ENDBRANCH  13  15
ENDBRANCH   3  13
TORSDOF 5
ENDMDL
MODEL 6
REMARK VINA RESULT:      -6.8     30.698     33.427
REMARK  Name = 26744916
REMARK  5 active torsions:
REMARK  status: ('A' for Active; 'I' for Inactive)
REMARK    1  A    between atoms: N_3  and  C_13
REMARK    2  A    between atoms: C_8  and  C_14
REMARK    3  A    between atoms: C_13  and  C_15
REMARK    4  A    between atoms: C_17  and  C_20
REMARK    5  A    between atoms: C_20  and  C_23
REMARK                            x       y       z     vdW  Elec       q    Type
REMARK                         _______ _______ _______ _____ _____    ______ ____
ROOT
ATOM      3  N   UNL     1     -16.035   3.539  30.587  0.00  0.00    -0.281 NA
ATOM      4  N   UNL     1     -15.188   0.210  29.081  0.00  0.00    -0.347 N 
ATOM      5  N   UNL     1     -13.415   0.274  30.441  0.00  0.00    -0.240 NA
ATOM      8  C   UNL     1     -15.331   3.246  31.883  0.00  0.00    +0.152 C 
ATOM      9  C   UNL     1     -14.022   2.403  31.678  0.00  0.00    +0.086 C 
ATOM     10  C   UNL     1     -16.443   2.296  29.872  0.00  0.00    +0.140 C 
ATOM     11  C   UNL     1     -15.337   1.318  29.860  0.00  0.00    +0.053 A 
ATOM     12  C   UNL     1     -14.245   1.331  30.687  0.00  0.00    +0.065 A 
ATOM     16  C   UNL     1     -14.013  -0.386  29.470  0.00  0.00    +0.197 A 
ATOM     30  H   UNL     1     -15.819  -0.117  28.362  0.00  0.00    +0.167 HD
ENDROOT
BRANCH   8  14
ATOM      2  O   UNL     1     -15.823   4.851  33.673  0.00  0.00    -0.336 OA
ATOM      6  N   UNL     1     -13.930   5.283  32.559  0.00  0.00    -0.194 NA
ATOM      7  N   UNL     1     -15.284   6.006  34.255  0.00  0.00    -0.061 NA
ATOM     14  C   UNL     1     -14.965   4.491  32.683  0.00  0.00    +0.245 A 
ATOM     17  C   UNL     1     -14.169   6.196  33.543  0.00  0.00    +0.176 A 
BRANCH  17  20
ATOM     20  C   UNL     1     -13.262   7.319  33.806  0.00  0.00    +0.114 C 
BRANCH  20  23
ATOM     23  C   UNL     1     -13.047   8.258  32.622  0.00  0.00    -0.040 A 
ATOM     25  C   UNL     1     -14.135   8.904  32.038  0.00  0.00    +0.004 A 
ATOM     26  C   UNL     1     -11.761   8.470  32.127  0.00  0.00    +0.004 A 
ATOM     27  C   UNL     1     -13.938   9.763  30.956  0.00  0.00    +0.000 A 
ATOM     28  C   UNL     1     -11.563   9.328  31.044  0.00  0.00    +0.000 A 
ATOM     29  C   UNL     1     -12.651   9.974  30.460  0.00  0.00    +0.000 A 
ENDBRANCH  20  23
ENDBRANCH  17  20
ENDBRANCH   8  14
BRANCH   3  13
ATOM     13  C   UNL     1     -17.230   4.371  30.776  0.00  0.00    +0.120 C 
BRANCH  13  15
ATOM      1  F   UNL     1     -17.155   8.935  27.471  0.00  0.00    -0.205 F 
ATOM     15  C   UNL     1     -17.211   5.590  29.892  0.00  0.00    -0.033 A 
ATOM     18  C   UNL     1     -16.799   6.819  30.409  0.00  0.00    +0.008 A 
ATOM     19  C   UNL     1     -17.604   5.491  28.558  0.00  0.00    +0.008 A 
ATOM     21  C   UNL     1     -16.781   7.949  29.591  0.00  0.00    +0.038 A 
ATOM     22  C   UNL     1     -17.586   6.621  27.740  0.00  0.00    +0.038 A 
ATOM     24  C   UNL     1     -17.174   7.850  28.257  0.00  0.00    +0.123 A 
ENDBRANCH  13  15
ENDBRANCH   3  13
TORSDOF 5
ENDMDL
MODEL 7
REMARK VINA RESULT:      -6.8     14.005     16.406
REMARK  Name = 26744916
REMARK  5 active torsions:
REMARK  status: ('A' for Active; 'I' for Inactive)
REMARK    1  A    between atoms: N_3  and  C_13
REMARK    2  A    between atoms: C_8  and  C_14
REMARK    3  A    between atoms: C_13  and  C_15
REMARK    4  A    between atoms: C_17  and  C_20
REMARK    5  A    between atoms: C_20  and  C_23
REMARK                            x       y       z     vdW  Elec       q    Type
REMARK                         _______ _______ _______ _____ _____    ______ ____
ROOT
ATOM      3  N   UNL     1       9.835   6.319   5.078  0.00  0.00    -0.281 NA
ATOM      4  N   UNL     1      10.199   3.944   7.957  0.00  0.00    -0.347 N 
ATOM      5  N   UNL     1       9.327   5.604   9.174  0.00  0.00    -0.240 NA
ATOM      8  C   UNL     1       8.685   7.060   5.702  0.00  0.00    +0.152 C 
ATOM      9  C   UNL     1       8.830   7.192   7.260  0.00  0.00    +0.086 C 
ATOM     10  C   UNL     1       9.968   4.932   5.608  0.00  0.00    +0.140 C 
ATOM     11  C   UNL     1       9.850   4.925   7.079  0.00  0.00    +0.053 A 
ATOM     12  C   UNL     1       9.313   5.926   7.846  0.00  0.00    +0.065 A 
ATOM     16  C   UNL     1       9.864   4.400   9.208  0.00  0.00    +0.197 A 
ATOM     30  H   UNL     1      10.618   3.050   7.736  0.00  0.00    +0.167 HD
ENDROOT
BRANCH   8  14
ATOM      2  O   UNL     1       9.477   9.348   5.303  0.00  0.00    -0.336 OA
ATOM      6  N   UNL     1       7.430   8.939   4.493  0.00  0.00    -0.194 NA
ATOM      7  N   UNL     1       9.049  10.541   4.707  0.00  0.00    -0.061 NA
ATOM     14  C   UNL     1       8.466   8.457   5.132  0.00  0.00    +0.245 A 
ATOM     17  C   UNL     1       7.834  10.220   4.253  0.00  0.00    +0.176 A 
BRANCH  17  20
ATOM     20  C   UNL     1       6.990  11.187   3.542  0.00  0.00    +0.114 C 
BRANCH  20  23
ATOM     23  C   UNL     1       6.093  10.582   2.465  0.00  0.00    -0.040 A 
ATOM     25  C   UNL     1       6.647  10.131   1.268  0.00  0.00    +0.004 A 
ATOM     26  C   UNL     1       4.719  10.480   2.680  0.00  0.00    +0.004 A 
ATOM     27  C   UNL     1       5.827   9.578   0.284  0.00  0.00    +0.000 A 
ATOM     28  C   UNL     1       3.898   9.928   1.696  0.00  0.00    +0.000 A 
ATOM     29  C   UNL     1       4.452   9.477   0.499  0.00  0.00    +0.000 A 
ENDBRANCH  20  23
ENDBRANCH  17  20
ENDBRANCH   8  14
BRANCH   3  13
ATOM     13  C   UNL     1       9.722   6.242   3.616  0.00  0.00    +0.120 C 
BRANCH  13  15
ATOM      1  F   UNL     1      14.226   3.782   1.290  0.00  0.00    -0.205 F 
ATOM     15  C   UNL     1      10.925   5.584   2.994  0.00  0.00    -0.033 A 
ATOM     18  C   UNL     1      12.111   6.302   2.842  0.00  0.00    +0.008 A 
ATOM     19  C   UNL     1      10.853   4.258   2.570  0.00  0.00    +0.008 A 
ATOM     21  C   UNL     1      13.226   5.693   2.266  0.00  0.00    +0.038 A 
ATOM     22  C   UNL     1      11.968   3.649   1.993  0.00  0.00    +0.038 A 
ATOM     24  C   UNL     1      13.155   4.367   1.842  0.00  0.00    +0.123 A 
ENDBRANCH  13  15
ENDBRANCH   3  13
TORSDOF 5
ENDMDL
MODEL 8
REMARK VINA RESULT:      -6.7     13.127     15.776
REMARK  Name = 26744916
REMARK  5 active torsions:
REMARK  status: ('A' for Active; 'I' for Inactive)
REMARK    1  A    between atoms: N_3  and  C_13
REMARK    2  A    between atoms: C_8  and  C_14
REMARK    3  A    between atoms: C_13  and  C_15
REMARK    4  A    between atoms: C_17  and  C_20
REMARK    5  A    between atoms: C_20  and  C_23
REMARK                            x       y       z     vdW  Elec       q    Type
REMARK                         _______ _______ _______ _____ _____    ______ ____
ROOT
ATOM      3  N   UNL     1       9.672   7.639   6.745  0.00  0.00    -0.281 NA
ATOM      4  N   UNL     1       8.451   5.607   9.650  0.00  0.00    -0.347 N 
ATOM      5  N   UNL     1      10.224   4.311   9.228  0.00  0.00    -0.240 NA
ATOM      8  C   UNL     1      11.108   7.232   6.932  0.00  0.00    +0.152 C 
ATOM      9  C   UNL     1      11.253   5.741   7.404  0.00  0.00    +0.086 C 
ATOM     10  C   UNL     1       8.881   7.517   8.002  0.00  0.00    +0.140 C 
ATOM     11  C   UNL     1       9.160   6.229   8.668  0.00  0.00    +0.053 A 
ATOM     12  C   UNL     1      10.243   5.421   8.432  0.00  0.00    +0.065 A 
ATOM     16  C   UNL     1       9.133   4.454   9.955  0.00  0.00    +0.197 A 
ATOM     30  H   UNL     1       7.594   5.929  10.079  0.00  0.00    +0.167 HD
ENDROOT
BRANCH   8  14
ATOM      2  O   UNL     1      12.808   8.485   5.683  0.00  0.00    -0.336 OA
ATOM      6  N   UNL     1      12.028   6.685   4.603  0.00  0.00    -0.194 NA
ATOM      7  N   UNL     1      13.483   8.444   4.456  0.00  0.00    -0.061 NA
ATOM     14  C   UNL     1      11.971   7.415   5.689  0.00  0.00    +0.245 A 
ATOM     17  C   UNL     1      12.968   7.355   3.877  0.00  0.00    +0.176 A 
BRANCH  17  20
ATOM     20  C   UNL     1      13.390   6.911   2.544  0.00  0.00    +0.114 C 
BRANCH  20  23
ATOM     23  C   UNL     1      12.328   6.147   1.759  0.00  0.00    -0.040 A 
ATOM     25  C   UNL     1      11.233   6.825   1.223  0.00  0.00    +0.004 A 
ATOM     26  C   UNL     1      12.453   4.770   1.577  0.00  0.00    +0.004 A 
ATOM     27  C   UNL     1      10.263   6.126   0.505  0.00  0.00    +0.000 A 
ATOM     28  C   UNL     1      11.482   4.070   0.859  0.00  0.00    +0.000 A 
ATOM     29  C   UNL     1      10.387   4.748   0.324  0.00  0.00    +0.000 A 
ENDBRANCH  20  23
ENDBRANCH  17  20
ENDBRANCH   8  14
BRANCH   3  13
ATOM     13  C   UNL     1       9.542   9.018   6.254  0.00  0.00    +0.120 C 
BRANCH  13  15
ATOM      1  F   UNL     1       6.358   9.304   1.614  0.00  0.00    -0.205 F 
ATOM     15  C   UNL     1       8.692   9.093   5.014  0.00  0.00    -0.033 A 
ATOM     18  C   UNL     1       7.546   9.890   5.002  0.00  0.00    +0.008 A 
ATOM     19  C   UNL     1       9.049   8.368   3.877  0.00  0.00    +0.008 A 
ATOM     21  C   UNL     1       6.758   9.960   3.854  0.00  0.00    +0.038 A 
ATOM     22  C   UNL     1       8.260   8.438   2.729  0.00  0.00    +0.038 A 
ATOM     24  C   UNL     1       7.115   9.235   2.717  0.00  0.00    +0.123 A 
ENDBRANCH  13  15
ENDBRANCH   3  13
TORSDOF 5
ENDMDL
MODEL 9
REMARK VINA RESULT:      -6.7     22.110     24.712
REMARK  Name = 26744916
REMARK  5 active torsions:
REMARK  status: ('A' for Active; 'I' for Inactive)
REMARK    1  A    between atoms: N_3  and  C_13
REMARK    2  A    between atoms: C_8  and  C_14
REMARK    3  A    between atoms: C_13  and  C_15
REMARK    4  A    between atoms: C_17  and  C_20
REMARK    5  A    between atoms: C_20  and  C_23
REMARK                            x       y       z     vdW  Elec       q    Type
REMARK                         _______ _______ _______ _____ _____    ______ ____
ROOT
ATOM      3  N   UNL     1      -1.074  11.061   3.664  0.00  0.00    -0.281 NA
ATOM      4  N   UNL     1       2.008  12.549   5.198  0.00  0.00    -0.347 N 
ATOM      5  N   UNL     1       2.981  12.032   3.252  0.00  0.00    -0.240 NA
ATOM      8  C   UNL     1      -0.647  11.372   2.256  0.00  0.00    +0.152 C 
ATOM      9  C   UNL     1       0.902  11.216   2.050  0.00  0.00    +0.086 C 
ATOM     10  C   UNL     1      -0.423  11.956   4.663  0.00  0.00    +0.140 C 
ATOM     11  C   UNL     1       1.021  12.083   4.383  0.00  0.00    +0.053 A 
ATOM     12  C   UNL     1       1.639  11.780   3.198  0.00  0.00    +0.065 A 
ATOM     16  C   UNL     1       3.172  12.498   4.471  0.00  0.00    +0.197 A 
ATOM     30  H   UNL     1       1.908  12.875   6.150  0.00  0.00    +0.167 HD
ENDROOT
BRANCH   8  14
ATOM      2  O   UNL     1      -0.772   9.338   0.891  0.00  0.00    -0.336 OA
ATOM      6  N   UNL     1      -2.440  10.785   0.521  0.00  0.00    -0.194 NA
ATOM      7  N   UNL     1      -1.582   8.756  -0.093  0.00  0.00    -0.061 NA
ATOM     14  C   UNL     1      -1.347  10.530   1.196  0.00  0.00    +0.245 A 
ATOM     17  C   UNL     1      -2.544   9.670  -0.256  0.00  0.00    +0.176 A 
BRANCH  17  20
ATOM     20  C   UNL     1      -3.639   9.482  -1.214  0.00  0.00    +0.114 C 
BRANCH  20  23
ATOM     23  C   UNL     1      -3.501  10.278  -2.508  0.00  0.00    -0.040 A 
ATOM     25  C   UNL     1      -4.640  10.708  -3.188  0.00  0.00    +0.004 A 
ATOM     26  C   UNL     1      -2.235  10.577  -3.011  0.00  0.00    +0.004 A 
ATOM     27  C   UNL     1      -4.514  11.436  -4.370  0.00  0.00    +0.000 A 
ATOM     28  C   UNL     1      -2.108  11.305  -4.194  0.00  0.00    +0.000 A 
ATOM     29  C   UNL     1      -3.247  11.734  -4.874  0.00  0.00    +0.000 A 
ENDBRANCH  20  23
ENDBRANCH  17  20
ENDBRANCH   8  14
BRANCH   3  13
ATOM     13  C   UNL     1      -2.528  11.158   3.841  0.00  0.00    +0.120 C 
BRANCH  13  15
ATOM      1  F   UNL     1      -4.803   6.201   5.257  0.00  0.00    -0.205 F 
ATOM     15  C   UNL     1      -3.137   9.833   4.219  0.00  0.00    -0.033 A 
ATOM     18  C   UNL     1      -2.393   8.908   4.952  0.00  0.00    +0.008 A 
ATOM     19  C   UNL     1      -4.443   9.531   3.836  0.00  0.00    +0.008 A 
ATOM     21  C   UNL     1      -2.955   7.681   5.301  0.00  0.00    +0.038 A 
ATOM     22  C   UNL     1      -5.006   8.304   4.186  0.00  0.00    +0.038 A 
ATOM     24  C   UNL     1      -4.262   7.379   4.919  0.00  0.00    +0.123 A 
ENDBRANCH  13  15
ENDBRANCH   3  13
TORSDOF 5
ENDMDL
MODEL 10
REMARK VINA RESULT:      -6.7     12.561     14.894
REMARK  Name = 26744916
REMARK  5 active torsions:
REMARK  status: ('A' for Active; 'I' for Inactive)
REMARK    1  A    between atoms: N_3  and  C_13
REMARK    2  A    between atoms: C_8  and  C_14
REMARK    3  A    between atoms: C_13  and  C_15
REMARK    4  A    between atoms: C_17  and  C_20
REMARK    5  A    between atoms: C_20  and  C_23
REMARK                            x       y       z     vdW  Elec       q    Type
REMARK                         _______ _______ _______ _____ _____    ______ ____
ROOT
ATOM      3  N   UNL     1      10.795   5.683   4.934  0.00  0.00    -0.281 NA
ATOM      4  N   UNL     1       9.697   3.701   7.922  0.00  0.00    -0.347 N 
ATOM      5  N   UNL     1      10.185   5.552   9.076  0.00  0.00    -0.240 NA
ATOM      8  C   UNL     1      10.441   7.006   5.554  0.00  0.00    +0.152 C 
ATOM      9  C   UNL     1      10.729   7.043   7.097  0.00  0.00    +0.086 C 
ATOM     10  C   UNL     1      10.026   4.554   5.532  0.00  0.00    +0.140 C 
ATOM     11  C   UNL     1      10.018   4.655   7.005  0.00  0.00    +0.053 A 
ATOM     12  C   UNL     1      10.306   5.779   7.734  0.00  0.00    +0.065 A 
ATOM     16  C   UNL     1       9.813   4.290   9.157  0.00  0.00    +0.197 A 
ATOM     30  H   UNL     1       9.421   2.746   7.735  0.00  0.00    +0.167 HD
ENDROOT
BRANCH   8  14
ATOM      2  O   UNL     1      10.366   9.079   4.242  0.00  0.00    -0.336 OA
ATOM      6  N   UNL     1      12.421   8.506   4.922  0.00  0.00    -0.194 NA
ATOM      7  N   UNL     1      11.228  10.069   3.753  0.00  0.00    -0.061 NA
ATOM     14  C   UNL     1      11.149   8.197   4.918  0.00  0.00    +0.245 A 
ATOM     17  C   UNL     1      12.421   9.660   4.196  0.00  0.00    +0.176 A 
BRANCH  17  20
ATOM     20  C   UNL     1      13.652  10.409   3.916  0.00  0.00    +0.114 C 
BRANCH  20  23
ATOM     23  C   UNL     1      14.935   9.588   4.012  0.00  0.00    -0.040 A 
ATOM     25  C   UNL     1      15.332   8.787   2.942  0.00  0.00    +0.004 A 
ATOM     26  C   UNL     1      15.710   9.640   5.170  0.00  0.00    +0.004 A 
ATOM     27  C   UNL     1      16.506   8.038   3.029  0.00  0.00    +0.000 A 
ATOM     28  C   UNL     1      16.884   8.891   5.258  0.00  0.00    +0.000 A 
ATOM     29  C   UNL     1      17.281   8.090   4.188  0.00  0.00    +0.000 A 
ENDBRANCH  20  23
ENDBRANCH  17  20
ENDBRANCH   8  14
BRANCH   3  13
ATOM     13  C   UNL     1      10.573   5.670   3.482  0.00  0.00    +0.120 C 
BRANCH  13  15
ATOM      1  F   UNL     1      14.979   3.516   0.707  0.00  0.00    -0.205 F 
ATOM     15  C   UNL     1      11.750   5.093   2.740  0.00  0.00    -0.033 A 
ATOM     18  C   UNL     1      12.876   5.882   2.499  0.00  0.00    +0.008 A 
ATOM     19  C   UNL     1      11.715   3.773   2.294  0.00  0.00    +0.008 A 
ATOM     21  C   UNL     1      13.966   5.349   1.812  0.00  0.00    +0.038 A 
ATOM     22  C   UNL     1      12.805   3.240   1.606  0.00  0.00    +0.038 A 
ATOM     24  C   UNL     1      13.931   4.028   1.365  0.00  0.00    +0.123 A 
ENDBRANCH  13  15
ENDBRANCH   3  13
TORSDOF 5
ENDMDL
