REMARK  Name = 38030964
REMARK  12 active torsions:
REMARK  status: ('A' for Active; 'I' for Inactive)
REMARK    1  A    between atoms: N_4  and  C_15
REMARK    2  A    between atoms: N_4  and  C_21
REMARK    3  A    between atoms: N_7  and  C_30
REMARK    4  A    between atoms: C_8  and  C_12
REMARK    5  A    between atoms: C_9  and  C_15
REMARK    6  A    between atoms: C_11  and  C_16
REMARK    7  A    between atoms: C_12  and  C_17
REMARK    8  A    between atoms: C_12  and  C_18
REMARK    9  A    between atoms: C_13  and  C_19
REMARK   10  A    between atoms: C_16  and  C_20
REMARK   11  A    between atoms: C_21  and  C_23
REMARK   12  A    between atoms: C_22  and  C_24
REMARK                            x       y       z     vdW  Elec       q    Type
REMARK                         _______ _______ _______ _____ _____    ______ ____
ROOT
ATOM      8  C   UNL     1       2.292  -0.042  -1.342  0.00  0.00    +0.000 C 
ATOM      9  C   UNL     1       3.836  -0.165  -1.378  0.00  0.00    +0.029 C 
ATOM     10  C   UNL     1       1.875   1.434  -1.243  0.00  0.00    +0.012 C 
ATOM     11  C   UNL     1       2.449   2.119   0.012  0.00  0.00    +0.024 C 
ATOM     13  C   UNL     1       3.923   1.819   0.192  0.00  0.00    -0.073 C 
ATOM     14  C   UNL     1       4.529   0.803  -0.448  0.00  0.00    -0.023 C 
ATOM     19  C   UNL     1       4.697   2.744   1.090  0.00  0.00    +0.039 C 
ENDROOT
BRANCH   8  12
ATOM     12  C   UNL     1       1.642  -0.683  -2.572  0.00  0.00    -0.013 C 
ATOM     17  C   UNL     1       0.204  -1.090  -2.262  0.00  0.00    +0.007 C 
ATOM     18  C   UNL     1       1.690   0.273  -3.759  0.00  0.00    +0.007 C 
ENDBRANCH   8  12
BRANCH   9  15
ATOM     15  C   UNL     1       4.285  -1.595  -1.054  0.00  0.00    +0.089 C 
BRANCH  15   4
ATOM      4  N   UNL     1       3.927  -1.947   0.309  0.00  0.00    -0.305 NA
ATOM     31  H   UNL     1       4.370  -1.304   0.965  0.00  0.00    +0.123 HD
BRANCH   4  21
ATOM     21  C   UNL     1       4.340  -3.310   0.624  0.00  0.00    +0.170 C 
BRANCH  21  23
ATOM     23  C   UNL     1       3.964  -3.667   1.995  0.00  0.00    -0.090 C 
ATOM     27  C   UNL     1       3.658  -3.966   3.117  0.00  0.00    +0.005 C 
ENDBRANCH  21  23
ENDBRANCH   4  21
ENDBRANCH  15   4
ENDBRANCH   9  15
BRANCH  11  16
ATOM     16  C   UNL     1       1.653   1.733   1.264  0.00  0.00    +0.105 C 
BRANCH  16  20
ATOM      1  O   UNL     1      -0.644   1.016   0.857  0.00  0.00    -0.420 OA
ATOM      5  N   UNL     1      -0.415   3.218   1.180  0.00  0.00    -0.112 NA
ATOM      6  N   UNL     1      -1.755   2.955   0.964  0.00  0.00    -0.107 NA
ATOM     20  C   UNL     1       0.195   2.058   1.109  0.00  0.00    +0.218 A 
ATOM     22  C   UNL     1      -1.841   1.659   0.780  0.00  0.00    +0.248 A 
BRANCH  22  24
ATOM     24  C   UNL     1      -2.982   0.830   0.515  0.00  0.00    +0.039 A 
ATOM     25  C   UNL     1      -4.251   1.401   0.419  0.00  0.00    +0.015 A 
ATOM     26  C   UNL     1      -2.822  -0.546   0.355  0.00  0.00    +0.015 A 
ATOM     28  C   UNL     1      -5.360   0.594   0.163  0.00  0.00    +0.033 A 
ATOM     29  C   UNL     1      -3.931  -1.353   0.100  0.00  0.00    +0.033 A 
ATOM     30  C   UNL     1      -5.200  -0.782   0.004  0.00  0.00    +0.126 A 
BRANCH  30   7
ATOM      2  O   UNL     1      -7.462  -1.069  -0.340  0.00  0.00    -0.126 OA
ATOM      3  O   UNL     1      -6.164  -2.838  -0.397  0.00  0.00    -0.126 OA
ATOM      7  N   UNL     1      -6.330  -1.603  -0.257  0.00  0.00    +0.056 N 
ENDBRANCH  30   7
ENDBRANCH  22  24
ENDBRANCH  16  20
ENDBRANCH  11  16
TORSDOF 9
