MODEL 1
REMARK VINA RESULT:      -6.7      0.000      0.000
REMARK  Name = 45783810
REMARK  7 active torsions:
REMARK  status: ('A' for Active; 'I' for Inactive)
REMARK    1  A    between atoms: N_2  and  C_8
REMARK    2  A    between atoms: N_3  and  C_18
REMARK    3  A    between atoms: N_7  and  C_24
REMARK    4  A    between atoms: N_7  and  C_25
REMARK    5  A    between atoms: N_7  and  C_26
REMARK    6  A    between atoms: C_9  and  C_17
REMARK    7  A    between atoms: C_19  and  C_20
REMARK                            x       y       z     vdW  Elec       q    Type
REMARK                         _______ _______ _______ _____ _____    ______ ____
ROOT
ATOM      1  O   UNL     1      16.089   6.090  18.788  0.00  0.00    -0.336 OA
ATOM      4  N   UNL     1      16.905   7.032  20.649  0.00  0.00    -0.190 NA
ATOM      5  N   UNL     1      17.366   5.545  18.972  0.00  0.00    -0.056 NA
ATOM     17  C   UNL     1      15.897   6.955  19.818  0.00  0.00    +0.245 A 
ATOM     19  C   UNL     1      17.782   6.149  20.088  0.00  0.00    +0.204 A 
ENDROOT
BRANCH  19  20
ATOM      6  N   UNL     1      20.699   6.399  22.383  0.00  0.00    -0.240 NA
ATOM     20  C   UNL     1      19.069   5.894  20.670  0.00  0.00    +0.041 A 
ATOM     21  C   UNL     1      19.922   4.937  20.131  0.00  0.00    +0.016 A 
ATOM     22  C   UNL     1      19.500   6.591  21.786  0.00  0.00    +0.124 A 
ATOM     23  C   UNL     1      21.163   4.710  20.717  0.00  0.00    +0.044 A 
ATOM     24  C   UNL     1      21.500   5.462  21.831  0.00  0.00    +0.121 A 
BRANCH  24   7
ATOM      7  N   UNL     1      22.768   5.219  22.416  0.00  0.00    -0.321 N 
ATOM     25  C   UNL     1      23.052   5.687  23.755  0.00  0.00    +0.130 C 
ATOM     26  C   UNL     1      23.787   4.508  21.677  0.00  0.00    +0.130 C 
ENDBRANCH  24   7
ENDBRANCH  19  20
BRANCH  17   9
ATOM      2  N   UNL     1      13.913   7.721  18.527  0.00  0.00    -0.288 NA
ATOM      9  C   UNL     1      14.570   7.684  19.848  0.00  0.00    +0.146 C 
ATOM     10  C   UNL     1      12.473   7.768  18.782  0.00  0.00    +0.085 C 
ATOM     13  C   UNL     1      13.543   7.011  20.777  0.00  0.00    +0.030 C 
ATOM     14  C   UNL     1      12.320   6.761  19.906  0.00  0.00    +0.017 C 
BRANCH   2   8
ATOM      3  N   UNL     1      13.743  10.935  15.750  0.00  0.00    -0.305 NA
ATOM      8  C   UNL     1      14.360   8.834  17.692  0.00  0.00    +0.060 C 
ATOM     11  C   UNL     1      14.129   8.533  16.208  0.00  0.00    +0.034 C 
ATOM     12  C   UNL     1      13.626  10.119  18.085  0.00  0.00    +0.034 C 
ATOM     15  C   UNL     1      14.495   9.740  15.341  0.00  0.00    +0.085 C 
ATOM     16  C   UNL     1      14.009  11.274  17.156  0.00  0.00    +0.085 C 
ATOM     18  C   UNL     1      14.066  12.066  14.881  0.00  0.00    +0.104 C 
ENDBRANCH   2   8
ENDBRANCH  17   9
TORSDOF 4
ENDMDL
MODEL 2
REMARK VINA RESULT:      -6.7      1.455      1.910
REMARK  Name = 45783810
REMARK  7 active torsions:
REMARK  status: ('A' for Active; 'I' for Inactive)
REMARK    1  A    between atoms: N_2  and  C_8
REMARK    2  A    between atoms: N_3  and  C_18
REMARK    3  A    between atoms: N_7  and  C_24
REMARK    4  A    between atoms: N_7  and  C_25
REMARK    5  A    between atoms: N_7  and  C_26
REMARK    6  A    between atoms: C_9  and  C_17
REMARK    7  A    between atoms: C_19  and  C_20
REMARK                            x       y       z     vdW  Elec       q    Type
REMARK                         _______ _______ _______ _____ _____    ______ ____
ROOT
ATOM      1  O   UNL     1      14.438   6.606  19.698  0.00  0.00    -0.336 OA
ATOM      4  N   UNL     1      15.671   8.038  20.901  0.00  0.00    -0.190 NA
ATOM      5  N   UNL     1      15.738   6.086  19.709  0.00  0.00    -0.056 NA
ATOM     17  C   UNL     1      14.486   7.755  20.422  0.00  0.00    +0.245 A 
ATOM     19  C   UNL     1      16.406   6.986  20.437  0.00  0.00    +0.204 A 
ENDROOT
BRANCH  19  20
ATOM      6  N   UNL     1      19.767   7.708  21.856  0.00  0.00    -0.240 NA
ATOM     20  C   UNL     1      17.807   6.863  20.720  0.00  0.00    +0.041 A 
ATOM     21  C   UNL     1      18.562   5.832  20.170  0.00  0.00    +0.016 A 
ATOM     22  C   UNL     1      18.451   7.767  21.549  0.00  0.00    +0.124 A 
ATOM     23  C   UNL     1      19.918   5.739  20.463  0.00  0.00    +0.044 A 
ATOM     24  C   UNL     1      20.467   6.694  21.303  0.00  0.00    +0.121 A 
BRANCH  24   7
ATOM      7  N   UNL     1      21.850   6.584  21.592  0.00  0.00    -0.321 N 
ATOM     25  C   UNL     1      22.445   7.406  22.623  0.00  0.00    +0.130 C 
ATOM     26  C   UNL     1      22.677   5.655  20.853  0.00  0.00    +0.130 C 
ENDBRANCH  24   7
ENDBRANCH  19  20
BRANCH  17   9
ATOM      2  N   UNL     1      12.278   8.309  19.418  0.00  0.00    -0.288 NA
ATOM      9  C   UNL     1      13.186   8.518  20.563  0.00  0.00    +0.146 C 
ATOM     10  C   UNL     1      10.918   8.454  19.936  0.00  0.00    +0.085 C 
ATOM     13  C   UNL     1      12.370   8.080  21.793  0.00  0.00    +0.030 C 
ATOM     14  C   UNL     1      11.000   7.701  21.249  0.00  0.00    +0.017 C 
BRANCH   2   8
ATOM      3  N   UNL     1      14.431  10.405  16.411  0.00  0.00    -0.305 NA
ATOM      8  C   UNL     1      12.541   9.216  18.302  0.00  0.00    +0.060 C 
ATOM     11  C   UNL     1      13.519  10.320  18.710  0.00  0.00    +0.034 C 
ATOM     12  C   UNL     1      13.100   8.438  17.108  0.00  0.00    +0.034 C 
ATOM     15  C   UNL     1      13.879  11.204  17.514  0.00  0.00    +0.085 C 
ATOM     16  C   UNL     1      13.473   9.383  15.963  0.00  0.00    +0.085 C 
ATOM     18  C   UNL     1      14.817  11.268  15.295  0.00  0.00    +0.104 C 
ENDBRANCH   2   8
ENDBRANCH  17   9
TORSDOF 4
ENDMDL
MODEL 3
REMARK VINA RESULT:      -6.6      5.915      8.009
REMARK  Name = 45783810
REMARK  7 active torsions:
REMARK  status: ('A' for Active; 'I' for Inactive)
REMARK    1  A    between atoms: N_2  and  C_8
REMARK    2  A    between atoms: N_3  and  C_18
REMARK    3  A    between atoms: N_7  and  C_24
REMARK    4  A    between atoms: N_7  and  C_25
REMARK    5  A    between atoms: N_7  and  C_26
REMARK    6  A    between atoms: C_9  and  C_17
REMARK    7  A    between atoms: C_19  and  C_20
REMARK                            x       y       z     vdW  Elec       q    Type
REMARK                         _______ _______ _______ _____ _____    ______ ____
ROOT
ATOM      1  O   UNL     1      12.193   7.281  18.520  0.00  0.00    -0.336 OA
ATOM      4  N   UNL     1      13.410   9.129  18.865  0.00  0.00    -0.190 NA
ATOM      5  N   UNL     1      12.618   7.709  17.256  0.00  0.00    -0.056 NA
ATOM     17  C   UNL     1      12.703   8.172  19.410  0.00  0.00    +0.245 A 
ATOM     19  C   UNL     1      13.329   8.803  17.543  0.00  0.00    +0.204 A 
ENDROOT
BRANCH  19  20
ATOM      6  N   UNL     1      15.115   9.692  14.404  0.00  0.00    -0.240 NA
ATOM     20  C   UNL     1      13.971   9.593  16.531  0.00  0.00    +0.041 A 
ATOM     21  C   UNL     1      14.083  10.973  16.663  0.00  0.00    +0.016 A 
ATOM     22  C   UNL     1      14.498   9.006  15.393  0.00  0.00    +0.124 A 
ATOM     23  C   UNL     1      14.710  11.713  15.667  0.00  0.00    +0.044 A 
ATOM     24  C   UNL     1      15.205  11.030  14.567  0.00  0.00    +0.121 A 
BRANCH  24   7
ATOM      7  N   UNL     1      15.841  11.798  13.560  0.00  0.00    -0.321 N 
ATOM     25  C   UNL     1      17.211  12.230  13.731  0.00  0.00    +0.130 C 
ATOM     26  C   UNL     1      15.122  12.161  12.359  0.00  0.00    +0.130 C 
ENDBRANCH  24   7
ENDBRANCH  19  20
BRANCH  17   9
ATOM      2  N   UNL     1      11.326   8.822  21.377  0.00  0.00    -0.288 NA
ATOM      9  C   UNL     1      12.382   7.926  20.869  0.00  0.00    +0.146 C 
ATOM     10  C   UNL     1      10.638   8.090  22.440  0.00  0.00    +0.085 C 
ATOM     13  C   UNL     1      11.849   6.505  21.129  0.00  0.00    +0.030 C 
ATOM     14  C   UNL     1      10.517   6.703  21.839  0.00  0.00    +0.017 C 
BRANCH   2   8
ATOM      3  N   UNL     1      12.868  11.784  24.007  0.00  0.00    -0.305 NA
ATOM      8  C   UNL     1      11.836  10.111  21.839  0.00  0.00    +0.060 C 
ATOM     11  C   UNL     1      10.925  10.708  22.915  0.00  0.00    +0.034 C 
ATOM     12  C   UNL     1      13.257   9.953  22.386  0.00  0.00    +0.034 C 
ATOM     15  C   UNL     1      11.515  12.003  23.477  0.00  0.00    +0.085 C 
ATOM     16  C   UNL     1      13.771  11.274  22.965  0.00  0.00    +0.085 C 
ATOM     18  C   UNL     1      13.399  13.018  24.585  0.00  0.00    +0.104 C 
ENDBRANCH   2   8
ENDBRANCH  17   9
TORSDOF 4
ENDMDL
MODEL 4
REMARK VINA RESULT:      -6.6      2.863      4.134
REMARK  Name = 45783810
REMARK  7 active torsions:
REMARK  status: ('A' for Active; 'I' for Inactive)
REMARK    1  A    between atoms: N_2  and  C_8
REMARK    2  A    between atoms: N_3  and  C_18
REMARK    3  A    between atoms: N_7  and  C_24
REMARK    4  A    between atoms: N_7  and  C_25
REMARK    5  A    between atoms: N_7  and  C_26
REMARK    6  A    between atoms: C_9  and  C_17
REMARK    7  A    between atoms: C_19  and  C_20
REMARK                            x       y       z     vdW  Elec       q    Type
REMARK                         _______ _______ _______ _____ _____    ______ ____
ROOT
ATOM      1  O   UNL     1      15.539   8.852  20.350  0.00  0.00    -0.336 OA
ATOM      4  N   UNL     1      15.821   6.643  20.598  0.00  0.00    -0.190 NA
ATOM      5  N   UNL     1      16.918   8.648  20.485  0.00  0.00    -0.056 NA
ATOM     17  C   UNL     1      14.967   7.621  20.428  0.00  0.00    +0.245 A 
ATOM     19  C   UNL     1      17.004   7.322  20.627  0.00  0.00    +0.204 A 
ENDROOT
BRANCH  19  20
ATOM      6  N   UNL     1      20.317   6.396  22.041  0.00  0.00    -0.240 NA
ATOM     20  C   UNL     1      18.257   6.644  20.801  0.00  0.00    +0.041 A 
ATOM     21  C   UNL     1      18.638   5.613  19.948  0.00  0.00    +0.016 A 
ATOM     22  C   UNL     1      19.124   6.994  21.822  0.00  0.00    +0.124 A 
ATOM     23  C   UNL     1      19.858   4.974  20.141  0.00  0.00    +0.044 A 
ATOM     24  C   UNL     1      20.654   5.400  21.192  0.00  0.00    +0.121 A 
BRANCH  24   7
ATOM      7  N   UNL     1      21.893   4.738  21.376  0.00  0.00    -0.321 N 
ATOM     25  C   UNL     1      23.037   5.098  20.566  0.00  0.00    +0.130 C 
ATOM     26  C   UNL     1      22.020   3.693  22.368  0.00  0.00    +0.130 C 
ENDBRANCH  24   7
ENDBRANCH  19  20
BRANCH  17   9
ATOM      2  N   UNL     1      12.840   8.909  20.348  0.00  0.00    -0.288 NA
ATOM      9  C   UNL     1      13.459   7.570  20.307  0.00  0.00    +0.146 C 
ATOM     10  C   UNL     1      11.613   8.822  19.557  0.00  0.00    +0.085 C 
ATOM     13  C   UNL     1      12.991   6.963  18.972  0.00  0.00    +0.030 C 
ATOM     14  C   UNL     1      12.066   8.007  18.362  0.00  0.00    +0.017 C 
BRANCH   2   8
ATOM      3  N   UNL     1      11.291  11.294  23.507  0.00  0.00    -0.305 NA
ATOM      8  C   UNL     1      12.587   9.386  21.706  0.00  0.00    +0.060 C 
ATOM     11  C   UNL     1      13.103  10.816  21.890  0.00  0.00    +0.034 C 
ATOM     12  C   UNL     1      11.090   9.326  22.018  0.00  0.00    +0.034 C 
ATOM     15  C   UNL     1      12.742  11.355  23.275  0.00  0.00    +0.085 C 
ATOM     16  C   UNL     1      10.794   9.914  23.400  0.00  0.00    +0.085 C 
ATOM     18  C   UNL     1      10.957  11.859  24.814  0.00  0.00    +0.104 C 
ENDBRANCH   2   8
ENDBRANCH  17   9
TORSDOF 4
ENDMDL
MODEL 5
REMARK VINA RESULT:      -6.5      2.795      9.249
REMARK  Name = 45783810
REMARK  7 active torsions:
REMARK  status: ('A' for Active; 'I' for Inactive)
REMARK    1  A    between atoms: N_2  and  C_8
REMARK    2  A    between atoms: N_3  and  C_18
REMARK    3  A    between atoms: N_7  and  C_24
REMARK    4  A    between atoms: N_7  and  C_25
REMARK    5  A    between atoms: N_7  and  C_26
REMARK    6  A    between atoms: C_9  and  C_17
REMARK    7  A    between atoms: C_19  and  C_20
REMARK                            x       y       z     vdW  Elec       q    Type
REMARK                         _______ _______ _______ _____ _____    ______ ____
ROOT
ATOM      1  O   UNL     1      19.044   5.946  19.874  0.00  0.00    -0.336 OA
ATOM      4  N   UNL     1      18.053   7.433  21.225  0.00  0.00    -0.190 NA
ATOM      5  N   UNL     1      17.669   5.840  19.628  0.00  0.00    -0.056 NA
ATOM     17  C   UNL     1      19.183   6.905  20.826  0.00  0.00    +0.245 A 
ATOM     19  C   UNL     1      17.153   6.747  20.463  0.00  0.00    +0.204 A 
ENDROOT
BRANCH  19  20
ATOM      6  N   UNL     1      13.573   7.023  19.492  0.00  0.00    -0.240 NA
ATOM     20  C   UNL     1      15.742   6.992  20.559  0.00  0.00    +0.041 A 
ATOM     21  C   UNL     1      15.169   7.420  21.752  0.00  0.00    +0.016 A 
ATOM     22  C   UNL     1      14.909   6.810  19.468  0.00  0.00    +0.124 A 
ATOM     23  C   UNL     1      13.799   7.649  21.815  0.00  0.00    +0.044 A 
ATOM     24  C   UNL     1      13.053   7.438  20.667  0.00  0.00    +0.121 A 
BRANCH  24   7
ATOM      7  N   UNL     1      11.658   7.676  20.749  0.00  0.00    -0.321 N 
ATOM     25  C   UNL     1      11.019   8.581  19.819  0.00  0.00    +0.130 C 
ATOM     26  C   UNL     1      10.866   7.020  21.766  0.00  0.00    +0.130 C 
ENDBRANCH  24   7
ENDBRANCH  19  20
BRANCH  17   9
ATOM      2  N   UNL     1      21.614   6.554  20.429  0.00  0.00    -0.288 NA
ATOM      9  C   UNL     1      20.597   7.214  21.271  0.00  0.00    +0.146 C 
ATOM     10  C   UNL     1      22.797   7.413  20.459  0.00  0.00    +0.085 C 
ATOM     13  C   UNL     1      20.932   8.714  21.187  0.00  0.00    +0.030 C 
ATOM     14  C   UNL     1      22.186   8.794  20.327  0.00  0.00    +0.017 C 
BRANCH   2   8
ATOM      3  N   UNL     1      23.599   3.329  22.359  0.00  0.00    -0.305 NA
ATOM      8  C   UNL     1      21.915   5.188  20.852  0.00  0.00    +0.060 C 
ATOM     11  C   UNL     1      23.297   4.753  20.357  0.00  0.00    +0.034 C 
ATOM     12  C   UNL     1      21.848   5.079  22.377  0.00  0.00    +0.034 C 
ATOM     15  C   UNL     1      23.658   3.365  20.890  0.00  0.00    +0.085 C 
ATOM     16  C   UNL     1      22.257   3.680  22.845  0.00  0.00    +0.085 C 
ATOM     18  C   UNL     1      23.996   2.012  22.856  0.00  0.00    +0.104 C 
ENDBRANCH   2   8
ENDBRANCH  17   9
TORSDOF 4
ENDMDL
MODEL 6
REMARK VINA RESULT:      -6.5      2.130      8.661
REMARK  Name = 45783810
REMARK  7 active torsions:
REMARK  status: ('A' for Active; 'I' for Inactive)
REMARK    1  A    between atoms: N_2  and  C_8
REMARK    2  A    between atoms: N_3  and  C_18
REMARK    3  A    between atoms: N_7  and  C_24
REMARK    4  A    between atoms: N_7  and  C_25
REMARK    5  A    between atoms: N_7  and  C_26
REMARK    6  A    between atoms: C_9  and  C_17
REMARK    7  A    between atoms: C_19  and  C_20
REMARK                            x       y       z     vdW  Elec       q    Type
REMARK                         _______ _______ _______ _____ _____    ______ ____
ROOT
ATOM      1  O   UNL     1      13.474   7.689  16.523  0.00  0.00    -0.336 OA
ATOM      4  N   UNL     1      14.408   9.458  17.531  0.00  0.00    -0.190 NA
ATOM      5  N   UNL     1      13.538   8.700  15.555  0.00  0.00    -0.056 NA
ATOM     17  C   UNL     1      14.006   8.218  17.656  0.00  0.00    +0.245 A 
ATOM     19  C   UNL     1      14.099   9.710  16.226  0.00  0.00    +0.204 A 
ENDROOT
BRANCH  19  20
ATOM      6  N   UNL     1      13.763  12.663  13.990  0.00  0.00    -0.240 NA
ATOM     20  C   UNL     1      14.366  10.984  15.621  0.00  0.00    +0.041 A 
ATOM     21  C   UNL     1      15.435  11.767  16.043  0.00  0.00    +0.016 A 
ATOM     22  C   UNL     1      13.568  11.472  14.601  0.00  0.00    +0.124 A 
ATOM     23  C   UNL     1      15.668  12.998  15.439  0.00  0.00    +0.044 A 
ATOM     24  C   UNL     1      14.811  13.396  14.426  0.00  0.00    +0.121 A 
BRANCH  24   7
ATOM      7  N   UNL     1      15.063  14.652  13.821  0.00  0.00    -0.321 N 
ATOM     25  C   UNL     1      13.963  15.529  13.482  0.00  0.00    +0.130 C 
ATOM     26  C   UNL     1      16.419  15.063  13.533  0.00  0.00    +0.130 C 
ENDBRANCH  24   7
ENDBRANCH  19  20
BRANCH  17   9
ATOM      2  N   UNL     1      14.807   7.901  19.989  0.00  0.00    -0.288 NA
ATOM      9  C   UNL     1      14.054   7.310  18.866  0.00  0.00    +0.146 C 
ATOM     10  C   UNL     1      14.224   7.353  21.214  0.00  0.00    +0.085 C 
ATOM     13  C   UNL     1      12.657   7.016  19.444  0.00  0.00    +0.030 C 
ATOM     14  C   UNL     1      12.740   7.418  20.910  0.00  0.00    +0.017 C 
BRANCH   2   8
ATOM      3  N   UNL     1      18.612   6.203  20.832  0.00  0.00    -0.305 NA
ATOM      8  C   UNL     1      16.246   7.657  19.909  0.00  0.00    +0.060 C 
ATOM     11  C   UNL     1      16.931   7.973  21.242  0.00  0.00    +0.034 C 
ATOM     12  C   UNL     1      16.517   6.203  19.514  0.00  0.00    +0.034 C 
ATOM     15  C   UNL     1      18.418   7.615  21.193  0.00  0.00    +0.085 C 
ATOM     16  C   UNL     1      18.017   5.903  19.521  0.00  0.00    +0.085 C 
ATOM     18  C   UNL     1      20.035   5.864  20.839  0.00  0.00    +0.104 C 
ENDBRANCH   2   8
ENDBRANCH  17   9
TORSDOF 4
ENDMDL
MODEL 7
REMARK VINA RESULT:      -6.5      5.978      8.055
REMARK  Name = 45783810
REMARK  7 active torsions:
REMARK  status: ('A' for Active; 'I' for Inactive)
REMARK    1  A    between atoms: N_2  and  C_8
REMARK    2  A    between atoms: N_3  and  C_18
REMARK    3  A    between atoms: N_7  and  C_24
REMARK    4  A    between atoms: N_7  and  C_25
REMARK    5  A    between atoms: N_7  and  C_26
REMARK    6  A    between atoms: C_9  and  C_17
REMARK    7  A    between atoms: C_19  and  C_20
REMARK                            x       y       z     vdW  Elec       q    Type
REMARK                         _______ _______ _______ _____ _____    ______ ____
ROOT
ATOM      1  O   UNL     1      14.465   9.459  14.811  0.00  0.00    -0.336 OA
ATOM      4  N   UNL     1      13.956  10.622  16.657  0.00  0.00    -0.190 NA
ATOM      5  N   UNL     1      13.881   8.546  15.698  0.00  0.00    -0.056 NA
ATOM     17  C   UNL     1      14.471  10.657  15.454  0.00  0.00    +0.245 A 
ATOM     19  C   UNL     1      13.609   9.306  16.763  0.00  0.00    +0.204 A 
ENDROOT
BRANCH  19  20
ATOM      6  N   UNL     1      12.170   6.869  19.175  0.00  0.00    -0.240 NA
ATOM     20  C   UNL     1      12.991   8.783  17.947  0.00  0.00    +0.041 A 
ATOM     21  C   UNL     1      12.618   9.622  18.991  0.00  0.00    +0.016 A 
ATOM     22  C   UNL     1      12.747   7.427  18.087  0.00  0.00    +0.124 A 
ATOM     23  C   UNL     1      12.021   9.086  20.127  0.00  0.00    +0.044 A 
ATOM     24  C   UNL     1      11.820   7.716  20.169  0.00  0.00    +0.121 A 
BRANCH  24   7
ATOM      7  N   UNL     1      11.212   7.185  21.334  0.00  0.00    -0.321 N 
ATOM     25  C   UNL     1      10.655   8.072  22.331  0.00  0.00    +0.130 C 
ATOM     26  C   UNL     1      11.150   5.755  21.535  0.00  0.00    +0.130 C 
ENDBRANCH  24   7
ENDBRANCH  19  20
BRANCH  17   9
ATOM      2  N   UNL     1      16.371  11.514  14.096  0.00  0.00    -0.288 NA
ATOM      9  C   UNL     1      15.058  11.827  14.695  0.00  0.00    +0.146 C 
ATOM     10  C   UNL     1      16.489  12.345  12.898  0.00  0.00    +0.085 C 
ATOM     13  C   UNL     1      14.182  12.265  13.507  0.00  0.00    +0.030 C 
ATOM     14  C   UNL     1      15.103  12.225  12.296  0.00  0.00    +0.017 C 
BRANCH   2   8
ATOM      3  N   UNL     1      19.787  13.306  15.881  0.00  0.00    -0.305 NA
ATOM      8  C   UNL     1      17.487  11.716  15.017  0.00  0.00    +0.060 C 
ATOM     11  C   UNL     1      18.825  11.690  14.272  0.00  0.00    +0.034 C 
ATOM     12  C   UNL     1      17.328  13.045  15.760  0.00  0.00    +0.034 C 
ATOM     15  C   UNL     1      19.985  12.009  15.217  0.00  0.00    +0.085 C 
ATOM     16  C   UNL     1      18.538  13.320  16.656  0.00  0.00    +0.085 C 
ATOM     18  C   UNL     1      20.927  13.620  16.741  0.00  0.00    +0.104 C 
ENDBRANCH   2   8
ENDBRANCH  17   9
TORSDOF 4
ENDMDL
MODEL 8
REMARK VINA RESULT:      -6.3     27.368     30.629
REMARK  Name = 45783810
REMARK  7 active torsions:
REMARK  status: ('A' for Active; 'I' for Inactive)
REMARK    1  A    between atoms: N_2  and  C_8
REMARK    2  A    between atoms: N_3  and  C_18
REMARK    3  A    between atoms: N_7  and  C_24
REMARK    4  A    between atoms: N_7  and  C_25
REMARK    5  A    between atoms: N_7  and  C_26
REMARK    6  A    between atoms: C_9  and  C_17
REMARK    7  A    between atoms: C_19  and  C_20
REMARK                            x       y       z     vdW  Elec       q    Type
REMARK                         _______ _______ _______ _____ _____    ______ ____
ROOT
ATOM      1  O   UNL     1      -9.031 -11.307  18.348  0.00  0.00    -0.336 OA
ATOM      4  N   UNL     1      -8.107  -9.599  17.231  0.00  0.00    -0.190 NA
ATOM      5  N   UNL     1      -7.768 -11.750  17.934  0.00  0.00    -0.056 NA
ATOM     17  C   UNL     1      -9.151 -10.032  17.893  0.00  0.00    +0.245 A 
ATOM     19  C   UNL     1      -7.286 -10.688  17.282  0.00  0.00    +0.204 A 
ENDROOT
BRANCH  19  20
ATOM      6  N   UNL     1      -4.651 -10.515  14.663  0.00  0.00    -0.240 NA
ATOM     20  C   UNL     1      -5.988 -10.682  16.671  0.00  0.00    +0.041 A 
ATOM     21  C   UNL     1      -4.835 -10.825  17.435  0.00  0.00    +0.016 A 
ATOM     22  C   UNL     1      -5.843 -10.531  15.302  0.00  0.00    +0.124 A 
ATOM     23  C   UNL     1      -3.591 -10.814  16.815  0.00  0.00    +0.044 A 
ATOM     24  C   UNL     1      -3.554 -10.659  15.439  0.00  0.00    +0.121 A 
BRANCH  24   7
ATOM      7  N   UNL     1      -2.278 -10.649  14.822  0.00  0.00    -0.321 N 
ATOM     25  C   UNL     1      -2.163 -10.451  13.394  0.00  0.00    +0.130 C 
ATOM     26  C   UNL     1      -1.085 -10.845  15.615  0.00  0.00    +0.130 C 
ENDBRANCH  24   7
ENDBRANCH  19  20
BRANCH  17   9
ATOM      2  N   UNL     1     -11.466  -9.489  17.163  0.00  0.00    -0.288 NA
ATOM      9  C   UNL     1     -10.446  -9.319  18.217  0.00  0.00    +0.146 C 
ATOM     10  C   UNL     1     -12.766  -9.417  17.829  0.00  0.00    +0.085 C 
ATOM     13  C   UNL     1     -11.115  -9.853  19.497  0.00  0.00    +0.030 C 
ATOM     14  C   UNL     1     -12.525 -10.243  19.077  0.00  0.00    +0.017 C 
BRANCH   2   8
ATOM      3  N   UNL     1     -12.310  -6.086  14.760  0.00  0.00    -0.305 NA
ATOM      8  C   UNL     1     -11.346  -8.512  16.083  0.00  0.00    +0.060 C 
ATOM     11  C   UNL     1     -12.605  -8.501  15.211  0.00  0.00    +0.034 C 
ATOM     12  C   UNL     1     -11.098  -7.114  16.657  0.00  0.00    +0.034 C 
ATOM     15  C   UNL     1     -12.526  -7.404  14.147  0.00  0.00    +0.085 C 
ATOM     16  C   UNL     1     -11.068  -6.062  15.546  0.00  0.00    +0.085 C 
ATOM     18  C   UNL     1     -12.288  -5.042  13.736  0.00  0.00    +0.104 C 
ENDBRANCH   2   8
ENDBRANCH  17   9
TORSDOF 4
ENDMDL
MODEL 9
REMARK VINA RESULT:      -6.2      2.370      8.543
REMARK  Name = 45783810
REMARK  7 active torsions:
REMARK  status: ('A' for Active; 'I' for Inactive)
REMARK    1  A    between atoms: N_2  and  C_8
REMARK    2  A    between atoms: N_3  and  C_18
REMARK    3  A    between atoms: N_7  and  C_24
REMARK    4  A    between atoms: N_7  and  C_25
REMARK    5  A    between atoms: N_7  and  C_26
REMARK    6  A    between atoms: C_9  and  C_17
REMARK    7  A    between atoms: C_19  and  C_20
REMARK                            x       y       z     vdW  Elec       q    Type
REMARK                         _______ _______ _______ _____ _____    ______ ____
ROOT
ATOM      1  O   UNL     1      18.751   5.120  19.346  0.00  0.00    -0.336 OA
ATOM      4  N   UNL     1      17.902   6.752  20.625  0.00  0.00    -0.190 NA
ATOM      5  N   UNL     1      17.411   5.258  18.963  0.00  0.00    -0.056 NA
ATOM     17  C   UNL     1      18.958   6.036  20.329  0.00  0.00    +0.245 A 
ATOM     19  C   UNL     1      16.979   6.238  19.762  0.00  0.00    +0.204 A 
ENDROOT
BRANCH  19  20
ATOM      6  N   UNL     1      13.554   7.158  20.885  0.00  0.00    -0.240 NA
ATOM     20  C   UNL     1      15.630   6.728  19.723  0.00  0.00    +0.041 A 
ATOM     21  C   UNL     1      15.086   7.236  18.548  0.00  0.00    +0.016 A 
ATOM     22  C   UNL     1      14.831   6.711  20.853  0.00  0.00    +0.124 A 
ATOM     23  C   UNL     1      13.777   7.704  18.541  0.00  0.00    +0.044 A 
ATOM     24  C   UNL     1      13.060   7.642  19.724  0.00  0.00    +0.121 A 
BRANCH  24   7
ATOM      7  N   UNL     1      11.727   8.124  19.700  0.00  0.00    -0.321 N 
ATOM     25  C   UNL     1      11.172   8.667  18.480  0.00  0.00    +0.130 C 
ATOM     26  C   UNL     1      10.917   8.083  20.897  0.00  0.00    +0.130 C 
ENDBRANCH  24   7
ENDBRANCH  19  20
BRANCH  17   9
ATOM      2  N   UNL     1      20.347   6.008  22.392  0.00  0.00    -0.288 NA
ATOM      9  C   UNL     1      20.351   6.089  20.918  0.00  0.00    +0.146 C 
ATOM     10  C   UNL     1      21.610   5.376  22.775  0.00  0.00    +0.085 C 
ATOM     13  C   UNL     1      21.234   4.913  20.464  0.00  0.00    +0.030 C 
ATOM     14  C   UNL     1      21.730   4.266  21.750  0.00  0.00    +0.017 C 
BRANCH   2   8
ATOM      3  N   UNL     1      21.314   9.699  24.264  0.00  0.00    -0.305 NA
ATOM      8  C   UNL     1      20.161   7.304  23.041  0.00  0.00    +0.060 C 
ATOM     11  C   UNL     1      20.746   7.298  24.456  0.00  0.00    +0.034 C 
ATOM     12  C   UNL     1      20.815   8.411  22.210  0.00  0.00    +0.034 C 
ATOM     15  C   UNL     1      20.650   8.685  25.095  0.00  0.00    +0.085 C 
ATOM     16  C   UNL     1      20.716   9.762  22.922  0.00  0.00    +0.085 C 
ATOM     18  C   UNL     1      21.258  11.009  24.911  0.00  0.00    +0.104 C 
ENDBRANCH   2   8
ENDBRANCH  17   9
TORSDOF 4
ENDMDL
MODEL 10
REMARK VINA RESULT:      -6.2      5.176      8.040
REMARK  Name = 45783810
REMARK  7 active torsions:
REMARK  status: ('A' for Active; 'I' for Inactive)
REMARK    1  A    between atoms: N_2  and  C_8
REMARK    2  A    between atoms: N_3  and  C_18
REMARK    3  A    between atoms: N_7  and  C_24
REMARK    4  A    between atoms: N_7  and  C_25
REMARK    5  A    between atoms: N_7  and  C_26
REMARK    6  A    between atoms: C_9  and  C_17
REMARK    7  A    between atoms: C_19  and  C_20
REMARK                            x       y       z     vdW  Elec       q    Type
REMARK                         _______ _______ _______ _____ _____    ______ ____
ROOT
ATOM      1  O   UNL     1      10.988   8.615  21.269  0.00  0.00    -0.336 OA
ATOM      4  N   UNL     1      12.834   9.787  21.753  0.00  0.00    -0.190 NA
ATOM      5  N   UNL     1      10.631   9.496  22.297  0.00  0.00    -0.056 NA
ATOM     17  C   UNL     1      12.301   8.851  21.009  0.00  0.00    +0.245 A 
ATOM     19  C   UNL     1      11.772  10.152  22.527  0.00  0.00    +0.204 A 
ENDROOT
BRANCH  19  20
ATOM      6  N   UNL     1      13.202  12.927  24.550  0.00  0.00    -0.240 NA
ATOM     20  C   UNL     1      11.884  11.179  23.524  0.00  0.00    +0.041 A 
ATOM     21  C   UNL     1      10.842  11.435  24.409  0.00  0.00    +0.016 A 
ATOM     22  C   UNL     1      13.032  11.945  23.635  0.00  0.00    +0.124 A 
ATOM     23  C   UNL     1      10.979  12.437  25.364  0.00  0.00    +0.044 A 
ATOM     24  C   UNL     1      12.169  13.146  25.393  0.00  0.00    +0.121 A 
BRANCH  24   7
ATOM      7  N   UNL     1      12.293  14.164  26.371  0.00  0.00    -0.321 N 
ATOM     25  C   UNL     1      11.236  15.136  26.547  0.00  0.00    +0.130 C 
ATOM     26  C   UNL     1      13.479  14.241  27.195  0.00  0.00    +0.130 C 
ENDBRANCH  24   7
ENDBRANCH  19  20
BRANCH  17   9
ATOM      2  N   UNL     1      14.074   8.692  19.272  0.00  0.00    -0.288 NA
ATOM      9  C   UNL     1      12.934   8.014  19.918  0.00  0.00    +0.146 C 
ATOM     10  C   UNL     1      14.981   7.637  18.819  0.00  0.00    +0.085 C 
ATOM     13  C   UNL     1      13.514   6.690  20.447  0.00  0.00    +0.030 C 
ATOM     14  C   UNL     1      14.969   6.685  19.999  0.00  0.00    +0.017 C 
BRANCH   2   8
ATOM      3  N   UNL     1      14.314  10.922  15.661  0.00  0.00    -0.305 NA
ATOM      8  C   UNL     1      13.675   9.579  18.182  0.00  0.00    +0.060 C 
ATOM     11  C   UNL     1      14.580  10.813  18.119  0.00  0.00    +0.034 C 
ATOM     12  C   UNL     1      13.719   8.832  16.846  0.00  0.00    +0.034 C 
ATOM     15  C   UNL     1      14.232  11.688  16.913  0.00  0.00    +0.085 C 
ATOM     16  C   UNL     1      13.399   9.771  15.681  0.00  0.00    +0.085 C 
ATOM     18  C   UNL     1      14.029  11.783  14.514  0.00  0.00    +0.104 C 
ENDBRANCH   2   8
ENDBRANCH  17   9
TORSDOF 4
ENDMDL
