MODEL 1
REMARK VINA RESULT:      -7.9      0.000      0.000
REMARK  Name = 7050109
REMARK  9 active torsions:
REMARK  status: ('A' for Active; 'I' for Inactive)
REMARK    1  A    between atoms: O_3  and  C_11
REMARK    2  A    between atoms: O_4  and  C_13
REMARK    3  A    between atoms: N_8  and  C_12
REMARK    4  A    between atoms: N_9  and  C_18
REMARK    5  A    between atoms: C_15  and  C_17
REMARK    6  A    between atoms: C_18  and  C_20
REMARK    7  A    between atoms: C_18  and  C_23
REMARK    8  A    between atoms: C_19  and  C_21
REMARK    9  A    between atoms: C_20  and  C_22
REMARK                            x       y       z     vdW  Elec       q    Type
REMARK                         _______ _______ _______ _____ _____    ______ ____
ROOT
ATOM     11  C   UNL     1      12.315   7.186  20.519  0.00  0.00    +0.167 C 
ATOM     12  C   UNL     1      13.349   8.329  20.515  0.00  0.00    +0.128 C 
ATOM     13  C   UNL     1      10.887   7.721  20.679  0.00  0.00    +0.149 C 
ATOM     14  C   UNL     1      10.731   8.585  21.943  0.00  0.00    +0.074 C 
ATOM     15  C   UNL     1      11.919   9.461  22.216  0.00  0.00    +0.015 C 
ATOM     16  C   UNL     1      13.095   9.363  21.578  0.00  0.00    +0.006 C 
ENDROOT
BRANCH  15  17
ATOM      5  O   UNL     1      10.691  10.770  23.732  0.00  0.00    -0.271 OA
ATOM      9  N   UNL     1      12.986  11.128  23.531  0.00  0.00    -0.300 N 
ATOM     17  C   UNL     1      11.785  10.508  23.232  0.00  0.00    +0.241 C 
ATOM     37  H   UNL     1      13.843  10.772  23.117  0.00  0.00    +0.150 HD
BRANCH   9  18
ATOM     18  C   UNL     1      13.105  12.194  24.500  0.00  0.00    +0.163 C 
BRANCH  18  23
ATOM      7  O   UNL     1      15.419  12.612  25.111  0.00  0.00    -0.274 OA
ATOM     10  N   UNL     1      14.277  10.950  26.211  0.00  0.00    -0.328 N 
ATOM     23  C   UNL     1      14.394  11.955  25.272  0.00  0.00    +0.231 C 
ATOM     38  H   UNL     1      15.061  10.699  26.804  0.00  0.00    +0.145 HD
ATOM     39  H   UNL     1      13.417  10.431  26.348  0.00  0.00    +0.145 HD
ENDBRANCH  18  23
BRANCH  18  20
ATOM     20  C   UNL     1      13.126  13.578  23.841  0.00  0.00    +0.067 C 
BRANCH  20  22
ATOM     22  C   UNL     1      11.769  14.006  23.339  0.00  0.00    -0.045 A 
ATOM     24  C   UNL     1      10.783  14.397  24.245  0.00  0.00    +0.004 A 
ATOM     25  C   UNL     1      11.500  14.010  21.971  0.00  0.00    +0.004 A 
ATOM     28  C   UNL     1       9.527  14.793  23.782  0.00  0.00    +0.000 A 
ATOM     29  C   UNL     1      10.246  14.406  21.508  0.00  0.00    +0.000 A 
ATOM     32  C   UNL     1       9.259  14.798  22.413  0.00  0.00    +0.000 A 
ENDBRANCH  20  22
ENDBRANCH  18  20
ENDBRANCH   9  18
ENDBRANCH  15  17
BRANCH  12   8
ATOM      6  O   UNL     1      15.015   7.255  18.438  0.00  0.00    -0.270 OA
ATOM      8  N   UNL     1      14.695   7.829  20.661  0.00  0.00    -0.302 N 
ATOM     19  C   UNL     1      15.423   7.328  19.593  0.00  0.00    +0.245 C 
ATOM     34  H   UNL     1      15.062   7.766  21.605  0.00  0.00    +0.150 HD
BRANCH  19  21
ATOM      1 CL   UNL     1      19.670   7.623  22.566  0.00  0.00    -0.081 Cl
ATOM      2  F   UNL     1      20.569   5.424  20.794  0.00  0.00    -0.204 F 
ATOM     21  C   UNL     1      16.785   6.828  19.913  0.00  0.00    +0.038 A 
ATOM     26  C   UNL     1      17.507   7.393  20.965  0.00  0.00    +0.036 A 
ATOM     27  C   UNL     1      17.343   5.793  19.162  0.00  0.00    +0.016 A 
ATOM     30  C   UNL     1      18.785   6.922  21.267  0.00  0.00    +0.077 A 
ATOM     31  C   UNL     1      18.620   5.322  19.464  0.00  0.00    +0.040 A 
ATOM     33  C   UNL     1      19.342   5.887  20.517  0.00  0.00    +0.142 A 
ENDBRANCH  19  21
ENDBRANCH  12   8
BRANCH  11   3
ATOM      3  O   UNL     1      12.595   6.290  21.597  0.00  0.00    -0.387 OA
ATOM     35  H   UNL     1      13.553   6.128  21.601  0.00  0.00    +0.210 HD
ENDBRANCH  11   3
BRANCH  13   4
ATOM      4  O   UNL     1      10.510   8.469  19.525  0.00  0.00    -0.389 OA
ATOM     36  H   UNL     1      11.272   9.014  19.266  0.00  0.00    +0.210 HD
ENDBRANCH  13   4
TORSDOF 9
ENDMDL
MODEL 2
REMARK VINA RESULT:      -7.6      1.782      2.864
REMARK  Name = 7050109
REMARK  9 active torsions:
REMARK  status: ('A' for Active; 'I' for Inactive)
REMARK    1  A    between atoms: O_3  and  C_11
REMARK    2  A    between atoms: O_4  and  C_13
REMARK    3  A    between atoms: N_8  and  C_12
REMARK    4  A    between atoms: N_9  and  C_18
REMARK    5  A    between atoms: C_15  and  C_17
REMARK    6  A    between atoms: C_18  and  C_20
REMARK    7  A    between atoms: C_18  and  C_23
REMARK    8  A    between atoms: C_19  and  C_21
REMARK    9  A    between atoms: C_20  and  C_22
REMARK                            x       y       z     vdW  Elec       q    Type
REMARK                         _______ _______ _______ _____ _____    ______ ____
ROOT
ATOM     11  C   UNL     1      12.366   7.488  20.507  0.00  0.00    +0.167 C 
ATOM     12  C   UNL     1      13.401   8.585  20.192  0.00  0.00    +0.128 C 
ATOM     13  C   UNL     1      10.940   8.049  20.525  0.00  0.00    +0.149 C 
ATOM     14  C   UNL     1      10.792   9.221  21.512  0.00  0.00    +0.074 C 
ATOM     15  C   UNL     1      11.983  10.135  21.535  0.00  0.00    +0.015 C 
ATOM     16  C   UNL     1      13.155   9.867  20.940  0.00  0.00    +0.006 C 
ENDROOT
BRANCH  15  17
ATOM      5  O   UNL     1      10.954  12.206  21.952  0.00  0.00    -0.271 OA
ATOM      9  N   UNL     1      12.834  11.608  23.194  0.00  0.00    -0.300 N 
ATOM     17  C   UNL     1      11.856  11.417  22.234  0.00  0.00    +0.241 C 
ATOM     37  H   UNL     1      13.479  10.850  23.401  0.00  0.00    +0.150 HD
BRANCH   9  18
ATOM     18  C   UNL     1      12.917  12.797  24.011  0.00  0.00    +0.163 C 
BRANCH  18  23
ATOM      7  O   UNL     1      13.527  12.241  26.297  0.00  0.00    -0.274 OA
ATOM     10  N   UNL     1      11.306  12.200  25.712  0.00  0.00    -0.328 N 
ATOM     23  C   UNL     1      12.649  12.373  25.447  0.00  0.00    +0.231 C 
ATOM     38  H   UNL     1      10.989  11.930  26.637  0.00  0.00    +0.145 HD
ATOM     39  H   UNL     1      10.590  12.334  25.006  0.00  0.00    +0.145 HD
ENDBRANCH  18  23
BRANCH  18  20
ATOM     20  C   UNL     1      14.285  13.480  23.903  0.00  0.00    +0.067 C 
BRANCH  20  22
ATOM     22  C   UNL     1      15.179  12.838  22.870  0.00  0.00    -0.045 A 
ATOM     24  C   UNL     1      16.079  11.842  23.250  0.00  0.00    +0.004 A 
ATOM     25  C   UNL     1      15.105  13.240  21.537  0.00  0.00    +0.004 A 
ATOM     28  C   UNL     1      16.905  11.248  22.296  0.00  0.00    +0.000 A 
ATOM     29  C   UNL     1      15.931  12.646  20.583  0.00  0.00    +0.000 A 
ATOM     32  C   UNL     1      16.832  11.650  20.962  0.00  0.00    +0.000 A 
ENDBRANCH  20  22
ENDBRANCH  18  20
ENDBRANCH   9  18
ENDBRANCH  15  17
BRANCH  12   8
ATOM      6  O   UNL     1      15.106   7.110  18.413  0.00  0.00    -0.270 OA
ATOM      8  N   UNL     1      14.747   8.139  20.460  0.00  0.00    -0.302 N 
ATOM     19  C   UNL     1      15.495   7.429  19.533  0.00  0.00    +0.245 C 
ATOM     34  H   UNL     1      15.100   8.280  21.401  0.00  0.00    +0.150 HD
BRANCH  19  21
ATOM      1 CL   UNL     1      19.557   8.187  22.677  0.00  0.00    -0.081 Cl
ATOM      2  F   UNL     1      20.632   5.866  21.180  0.00  0.00    -0.204 F 
ATOM     21  C   UNL     1      16.855   7.020  19.971  0.00  0.00    +0.038 A 
ATOM     26  C   UNL     1      17.496   7.714  20.997  0.00  0.00    +0.036 A 
ATOM     27  C   UNL     1      17.490   5.941  19.356  0.00  0.00    +0.016 A 
ATOM     30  C   UNL     1      18.771   7.328  21.410  0.00  0.00    +0.077 A 
ATOM     31  C   UNL     1      18.765   5.556  19.768  0.00  0.00    +0.040 A 
ATOM     33  C   UNL     1      19.406   6.249  20.795  0.00  0.00    +0.142 A 
ENDBRANCH  19  21
ENDBRANCH  12   8
BRANCH  11   3
ATOM      3  O   UNL     1      12.651   6.913  21.784  0.00  0.00    -0.387 OA
ATOM     35  H   UNL     1      12.667   7.636  22.434  0.00  0.00    +0.210 HD
ENDBRANCH  11   3
BRANCH  13   4
ATOM      4  O   UNL     1      10.557   8.462  19.215  0.00  0.00    -0.389 OA
ATOM     36  H   UNL     1       9.602   8.644  19.231  0.00  0.00    +0.210 HD
ENDBRANCH  13   4
TORSDOF 9
ENDMDL
MODEL 3
REMARK VINA RESULT:      -7.2     18.049     20.167
REMARK  Name = 7050109
REMARK  9 active torsions:
REMARK  status: ('A' for Active; 'I' for Inactive)
REMARK    1  A    between atoms: O_3  and  C_11
REMARK    2  A    between atoms: O_4  and  C_13
REMARK    3  A    between atoms: N_8  and  C_12
REMARK    4  A    between atoms: N_9  and  C_18
REMARK    5  A    between atoms: C_15  and  C_17
REMARK    6  A    between atoms: C_18  and  C_20
REMARK    7  A    between atoms: C_18  and  C_23
REMARK    8  A    between atoms: C_19  and  C_21
REMARK    9  A    between atoms: C_20  and  C_22
REMARK                            x       y       z     vdW  Elec       q    Type
REMARK                         _______ _______ _______ _____ _____    ______ ____
ROOT
ATOM     11  C   UNL     1      12.739   6.810   2.135  0.00  0.00    +0.167 C 
ATOM     12  C   UNL     1      12.284   5.338   2.114  0.00  0.00    +0.128 C 
ATOM     13  C   UNL     1      13.072   7.276   3.557  0.00  0.00    +0.149 C 
ATOM     14  C   UNL     1      11.893   7.069   4.525  0.00  0.00    +0.074 C 
ATOM     15  C   UNL     1      11.144   5.790   4.285  0.00  0.00    +0.015 C 
ATOM     16  C   UNL     1      11.315   5.001   3.214  0.00  0.00    +0.006 C 
ENDROOT
BRANCH  15  17
ATOM      5  O   UNL     1       9.424   4.405   5.087  0.00  0.00    -0.271 OA
ATOM      9  N   UNL     1      10.210   6.130   6.444  0.00  0.00    -0.300 N 
ATOM     17  C   UNL     1      10.173   5.359   5.295  0.00  0.00    +0.241 C 
ATOM     37  H   UNL     1      10.929   6.841   6.539  0.00  0.00    +0.150 HD
BRANCH   9  18
ATOM     18  C   UNL     1       9.345   5.900   7.578  0.00  0.00    +0.163 C 
BRANCH  18  23
ATOM      7  O   UNL     1      10.540   5.412   9.636  0.00  0.00    -0.274 OA
ATOM     10  N   UNL     1      10.232   3.716   8.118  0.00  0.00    -0.328 N 
ATOM     23  C   UNL     1      10.111   5.020   8.554  0.00  0.00    +0.231 C 
ATOM     38  H   UNL     1      10.709   3.022   8.682  0.00  0.00    +0.145 HD
ATOM     39  H   UNL     1       9.853   3.401   7.232  0.00  0.00    +0.145 HD
ENDBRANCH  18  23
BRANCH  18  20
ATOM     20  C   UNL     1       8.919   7.206   8.258  0.00  0.00    +0.067 C 
BRANCH  20  22
ATOM     22  C   UNL     1       8.888   8.377   7.306  0.00  0.00    -0.045 A 
ATOM     24  C   UNL     1       9.643   9.517   7.579  0.00  0.00    +0.004 A 
ATOM     25  C   UNL     1       8.106   8.318   6.153  0.00  0.00    +0.004 A 
ATOM     28  C   UNL     1       9.615  10.600   6.699  0.00  0.00    +0.000 A 
ATOM     29  C   UNL     1       8.078   9.400   5.273  0.00  0.00    +0.000 A 
ATOM     32  C   UNL     1       8.833  10.542   5.546  0.00  0.00    +0.000 A 
ENDBRANCH  20  22
ENDBRANCH  18  20
ENDBRANCH   9  18
ENDBRANCH  15  17
BRANCH  12   8
ATOM      6  O   UNL     1      13.214   3.318   0.298  0.00  0.00    -0.270 OA
ATOM      8  N   UNL     1      11.695   4.982   0.846  0.00  0.00    -0.302 N 
ATOM     19  C   UNL     1      12.218   3.987   0.035  0.00  0.00    +0.245 C 
ATOM     34  H   UNL     1      10.927   5.559   0.517  0.00  0.00    +0.150 HD
BRANCH  19  21
ATOM      1 CL   UNL     1       8.569   5.476  -3.345  0.00  0.00    -0.081 Cl
ATOM      2  F   UNL     1       9.555   3.109  -4.832  0.00  0.00    -0.204 F 
ATOM     21  C   UNL     1      11.510   3.757  -1.251  0.00  0.00    +0.038 A 
ATOM     26  C   UNL     1      10.490   4.621  -1.650  0.00  0.00    +0.036 A 
ATOM     27  C   UNL     1      11.867   2.679  -2.061  0.00  0.00    +0.016 A 
ATOM     30  C   UNL     1       9.827   4.407  -2.858  0.00  0.00    +0.077 A 
ATOM     31  C   UNL     1      11.204   2.465  -3.269  0.00  0.00    +0.040 A 
ATOM     33  C   UNL     1      10.183   3.329  -3.668  0.00  0.00    +0.142 A 
ENDBRANCH  19  21
ENDBRANCH  12   8
BRANCH  11   3
ATOM      3  O   UNL     1      11.701   7.641   1.610  0.00  0.00    -0.387 OA
ATOM     35  H   UNL     1      11.127   7.080   1.061  0.00  0.00    +0.210 HD
ENDBRANCH  11   3
BRANCH  13   4
ATOM      4  O   UNL     1      14.227   6.592   4.041  0.00  0.00    -0.389 OA
ATOM     36  H   UNL     1      14.658   7.169   4.694  0.00  0.00    +0.210 HD
ENDBRANCH  13   4
TORSDOF 9
ENDMDL
MODEL 4
REMARK VINA RESULT:      -7.1     28.285     30.064
REMARK  Name = 7050109
REMARK  9 active torsions:
REMARK  status: ('A' for Active; 'I' for Inactive)
REMARK    1  A    between atoms: O_3  and  C_11
REMARK    2  A    between atoms: O_4  and  C_13
REMARK    3  A    between atoms: N_8  and  C_12
REMARK    4  A    between atoms: N_9  and  C_18
REMARK    5  A    between atoms: C_15  and  C_17
REMARK    6  A    between atoms: C_18  and  C_20
REMARK    7  A    between atoms: C_18  and  C_23
REMARK    8  A    between atoms: C_19  and  C_21
REMARK    9  A    between atoms: C_20  and  C_22
REMARK                            x       y       z     vdW  Elec       q    Type
REMARK                         _______ _______ _______ _____ _____    ______ ____
ROOT
ATOM     11  C   UNL     1      -3.944 -11.158  16.751  0.00  0.00    +0.167 C 
ATOM     12  C   UNL     1      -5.159 -11.432  15.845  0.00  0.00    +0.128 C 
ATOM     13  C   UNL     1      -4.225 -11.557  18.204  0.00  0.00    +0.149 C 
ATOM     14  C   UNL     1      -5.476 -10.856  18.765  0.00  0.00    +0.074 C 
ATOM     15  C   UNL     1      -6.590 -10.738  17.765  0.00  0.00    +0.015 C 
ATOM     16  C   UNL     1      -6.465 -11.001  16.456  0.00  0.00    +0.006 C 
ENDROOT
BRANCH  15  17
ATOM      5  O   UNL     1      -8.349 -10.743  19.323  0.00  0.00    -0.271 OA
ATOM      9  N   UNL     1      -8.561  -9.465  17.385  0.00  0.00    -0.300 N 
ATOM     17  C   UNL     1      -7.911 -10.328  18.250  0.00  0.00    +0.241 C 
ATOM     37  H   UNL     1      -8.066  -9.121  16.566  0.00  0.00    +0.150 HD
BRANCH   9  18
ATOM     18  C   UNL     1      -9.876  -8.927  17.645  0.00  0.00    +0.163 C 
BRANCH  18  23
ATOM      7  O   UNL     1     -10.832  -6.814  16.921  0.00  0.00    -0.274 OA
ATOM     10  N   UNL     1      -9.284  -7.840  15.569  0.00  0.00    -0.328 N 
ATOM     23  C   UNL     1     -10.078  -7.757  16.695  0.00  0.00    +0.231 C 
ATOM     38  H   UNL     1      -9.311  -7.115  14.859  0.00  0.00    +0.145 HD
ATOM     39  H   UNL     1      -8.649  -8.613  15.406  0.00  0.00    +0.145 HD
ENDBRANCH  18  23
BRANCH  18  20
ATOM     20  C   UNL     1     -10.980  -9.972  17.447  0.00  0.00    +0.067 C 
BRANCH  20  22
ATOM     22  C   UNL     1     -12.082  -9.858  18.472  0.00  0.00    -0.045 A 
ATOM     24  C   UNL     1     -13.403  -9.683  18.059  0.00  0.00    +0.004 A 
ATOM     25  C   UNL     1     -11.780  -9.928  19.832  0.00  0.00    +0.004 A 
ATOM     28  C   UNL     1     -14.422  -9.578  19.006  0.00  0.00    +0.000 A 
ATOM     29  C   UNL     1     -12.799  -9.823  20.779  0.00  0.00    +0.000 A 
ATOM     32  C   UNL     1     -14.120  -9.648  20.366  0.00  0.00    +0.000 A 
ENDBRANCH  20  22
ENDBRANCH  18  20
ENDBRANCH   9  18
ENDBRANCH  15  17
BRANCH  12   8
ATOM      6  O   UNL     1      -3.621 -12.397  13.621  0.00  0.00    -0.270 OA
ATOM      8  N   UNL     1      -5.015 -10.798  14.556  0.00  0.00    -0.302 N 
ATOM     19  C   UNL     1      -4.246 -11.344  13.540  0.00  0.00    +0.245 C 
ATOM     34  H   UNL     1      -5.423  -9.875  14.449  0.00  0.00    +0.150 HD
BRANCH  19  21
ATOM      1 CL   UNL     1      -6.718  -8.619   9.875  0.00  0.00    -0.081 Cl
ATOM      2  F   UNL     1      -3.973  -8.365   8.786  0.00  0.00    -0.204 F 
ATOM     21  C   UNL     1      -4.179 -10.556  12.281  0.00  0.00    +0.038 A 
ATOM     26  C   UNL     1      -5.342 -10.020  11.730  0.00  0.00    +0.036 A 
ATOM     27  C   UNL     1      -2.951 -10.353  11.652  0.00  0.00    +0.016 A 
ATOM     30  C   UNL     1      -5.279  -9.278  10.551  0.00  0.00    +0.077 A 
ATOM     31  C   UNL     1      -2.887  -9.612  10.472  0.00  0.00    +0.040 A 
ATOM     33  C   UNL     1      -4.051  -9.075   9.921  0.00  0.00    +0.142 A 
ENDBRANCH  19  21
ENDBRANCH  12   8
BRANCH  11   3
ATOM      3  O   UNL     1      -3.617  -9.768  16.710  0.00  0.00    -0.387 OA
ATOM     35  H   UNL     1      -3.176  -9.546  17.547  0.00  0.00    +0.210 HD
ENDBRANCH  11   3
BRANCH  13   4
ATOM      4  O   UNL     1      -4.371 -12.971  18.308  0.00  0.00    -0.389 OA
ATOM     36  H   UNL     1      -3.949 -13.251  19.138  0.00  0.00    +0.210 HD
ENDBRANCH  13   4
TORSDOF 9
ENDMDL
MODEL 5
REMARK VINA RESULT:      -7.0     27.916     30.362
REMARK  Name = 7050109
REMARK  9 active torsions:
REMARK  status: ('A' for Active; 'I' for Inactive)
REMARK    1  A    between atoms: O_3  and  C_11
REMARK    2  A    between atoms: O_4  and  C_13
REMARK    3  A    between atoms: N_8  and  C_12
REMARK    4  A    between atoms: N_9  and  C_18
REMARK    5  A    between atoms: C_15  and  C_17
REMARK    6  A    between atoms: C_18  and  C_20
REMARK    7  A    between atoms: C_18  and  C_23
REMARK    8  A    between atoms: C_19  and  C_21
REMARK    9  A    between atoms: C_20  and  C_22
REMARK                            x       y       z     vdW  Elec       q    Type
REMARK                         _______ _______ _______ _____ _____    ______ ____
ROOT
ATOM     11  C   UNL     1      -8.427 -10.242  18.087  0.00  0.00    +0.167 C 
ATOM     12  C   UNL     1      -7.837  -9.258  17.059  0.00  0.00    +0.128 C 
ATOM     13  C   UNL     1      -7.328 -10.906  18.924  0.00  0.00    +0.149 C 
ATOM     14  C   UNL     1      -6.281 -11.616  18.046  0.00  0.00    +0.074 C 
ATOM     15  C   UNL     1      -5.949 -10.863  16.790  0.00  0.00    +0.015 C 
ATOM     16  C   UNL     1      -6.631  -9.800  16.340  0.00  0.00    +0.006 C 
ENDROOT
BRANCH  15  17
ATOM      5  O   UNL     1      -4.447 -12.485  15.993  0.00  0.00    -0.271 OA
ATOM      9  N   UNL     1      -4.166 -10.266  15.336  0.00  0.00    -0.300 N 
ATOM     17  C   UNL     1      -4.788 -11.302  16.009  0.00  0.00    +0.241 C 
ATOM     37  H   UNL     1      -4.587  -9.341  15.354  0.00  0.00    +0.150 HD
BRANCH   9  18
ATOM     18  C   UNL     1      -3.000 -10.452  14.504  0.00  0.00    +0.163 C 
BRANCH  18  23
ATOM      7  O   UNL     1      -1.503 -10.770  16.391  0.00  0.00    -0.274 OA
ATOM     10  N   UNL     1      -1.646 -12.431  14.811  0.00  0.00    -0.328 N 
ATOM     23  C   UNL     1      -1.968 -11.197  15.338  0.00  0.00    +0.231 C 
ATOM     38  H   UNL     1      -0.979 -13.037  15.278  0.00  0.00    +0.145 HD
ATOM     39  H   UNL     1      -2.055 -12.781  13.952  0.00  0.00    +0.145 HD
ENDBRANCH  18  23
BRANCH  18  20
ATOM     20  C   UNL     1      -3.318 -11.235  13.225  0.00  0.00    +0.067 C 
BRANCH  20  22
ATOM     22  C   UNL     1      -3.720 -10.340  12.077  0.00  0.00    -0.045 A 
ATOM     24  C   UNL     1      -5.021  -9.846  12.002  0.00  0.00    +0.004 A 
ATOM     25  C   UNL     1      -2.789 -10.008  11.092  0.00  0.00    +0.004 A 
ATOM     28  C   UNL     1      -5.394  -9.019  10.941  0.00  0.00    +0.000 A 
ATOM     29  C   UNL     1      -3.161  -9.182  10.033  0.00  0.00    +0.000 A 
ATOM     32  C   UNL     1      -4.464  -8.687   9.957  0.00  0.00    +0.000 A 
ENDBRANCH  20  22
ENDBRANCH  18  20
ENDBRANCH   9  18
ENDBRANCH  15  17
BRANCH  12   8
ATOM      6  O   UNL     1     -10.002  -7.415  17.463  0.00  0.00    -0.270 OA
ATOM      8  N   UNL     1      -8.821  -8.856  16.082  0.00  0.00    -0.302 N 
ATOM     19  C   UNL     1      -9.834  -7.955  16.373  0.00  0.00    +0.245 C 
ATOM     34  H   UNL     1      -8.805  -9.335  15.188  0.00  0.00    +0.150 HD
BRANCH  19  21
ATOM      1 CL   UNL     1     -12.776  -4.502  13.846  0.00  0.00    -0.081 Cl
ATOM      2  F   UNL     1     -13.415  -6.872  12.184  0.00  0.00    -0.204 F 
ATOM     21  C   UNL     1     -10.783  -7.664  15.267  0.00  0.00    +0.038 A 
ATOM     26  C   UNL     1     -11.279  -6.372  15.094  0.00  0.00    +0.036 A 
ATOM     27  C   UNL     1     -11.177  -8.684  14.400  0.00  0.00    +0.016 A 
ATOM     30  C   UNL     1     -12.167  -6.098  14.054  0.00  0.00    +0.077 A 
ATOM     31  C   UNL     1     -12.065  -8.411  13.361  0.00  0.00    +0.040 A 
ATOM     33  C   UNL     1     -12.561  -7.118  13.188  0.00  0.00    +0.142 A 
ENDBRANCH  19  21
ENDBRANCH  12   8
BRANCH  11   3
ATOM      3  O   UNL     1      -9.166 -11.259  17.408  0.00  0.00    -0.387 OA
ATOM     35  H   UNL     1      -9.036 -12.090  17.896  0.00  0.00    +0.210 HD
ENDBRANCH  11   3
BRANCH  13   4
ATOM      4  O   UNL     1      -6.692  -9.939  19.757  0.00  0.00    -0.389 OA
ATOM     36  H   UNL     1      -6.141 -10.420  20.398  0.00  0.00    +0.210 HD
ENDBRANCH  13   4
TORSDOF 9
ENDMDL
MODEL 6
REMARK VINA RESULT:      -6.9     27.393     30.820
REMARK  Name = 7050109
REMARK  9 active torsions:
REMARK  status: ('A' for Active; 'I' for Inactive)
REMARK    1  A    between atoms: O_3  and  C_11
REMARK    2  A    between atoms: O_4  and  C_13
REMARK    3  A    between atoms: N_8  and  C_12
REMARK    4  A    between atoms: N_9  and  C_18
REMARK    5  A    between atoms: C_15  and  C_17
REMARK    6  A    between atoms: C_18  and  C_20
REMARK    7  A    between atoms: C_18  and  C_23
REMARK    8  A    between atoms: C_19  and  C_21
REMARK    9  A    between atoms: C_20  and  C_22
REMARK                            x       y       z     vdW  Elec       q    Type
REMARK                         _______ _______ _______ _____ _____    ______ ____
ROOT
ATOM     11  C   UNL     1     -11.008  -9.990  17.612  0.00  0.00    +0.167 C 
ATOM     12  C   UNL     1     -10.302  -8.728  17.081  0.00  0.00    +0.128 C 
ATOM     13  C   UNL     1     -10.202 -10.655  18.733  0.00  0.00    +0.149 C 
ATOM     14  C   UNL     1      -8.767 -10.994  18.292  0.00  0.00    +0.074 C 
ATOM     15  C   UNL     1      -8.150  -9.943  17.415  0.00  0.00    +0.015 C 
ATOM     16  C   UNL     1      -8.824  -8.918  16.872  0.00  0.00    +0.006 C 
ENDROOT
BRANCH  15  17
ATOM      5  O   UNL     1      -6.158  -9.212  16.405  0.00  0.00    -0.271 OA
ATOM      9  N   UNL     1      -6.100 -11.082  17.797  0.00  0.00    -0.300 N 
ATOM     17  C   UNL     1      -6.712 -10.026  17.146  0.00  0.00    +0.241 C 
ATOM     37  H   UNL     1      -6.641 -11.639  18.452  0.00  0.00    +0.150 HD
BRANCH   9  18
ATOM     18  C   UNL     1      -4.688 -11.369  17.683  0.00  0.00    +0.163 C 
BRANCH  18  23
ATOM      7  O   UNL     1      -4.205 -11.887  20.007  0.00  0.00    -0.274 OA
ATOM     10  N   UNL     1      -4.179 -13.596  18.474  0.00  0.00    -0.328 N 
ATOM     23  C   UNL     1      -4.321 -12.276  18.848  0.00  0.00    +0.231 C 
ATOM     38  H   UNL     1      -3.948 -14.309  19.158  0.00  0.00    +0.145 HD
ATOM     39  H   UNL     1      -4.299 -13.907  17.516  0.00  0.00    +0.145 HD
ENDBRANCH  18  23
BRANCH  18  20
ATOM     20  C   UNL     1      -4.338 -12.043  16.351  0.00  0.00    +0.067 C 
BRANCH  20  22
ATOM     22  C   UNL     1      -3.269 -11.302  15.586  0.00  0.00    -0.045 A 
ATOM     24  C   UNL     1      -2.172 -10.768  16.261  0.00  0.00    +0.004 A 
ATOM     25  C   UNL     1      -3.377 -11.152  14.203  0.00  0.00    +0.004 A 
ATOM     28  C   UNL     1      -1.183 -10.083  15.555  0.00  0.00    +0.000 A 
ATOM     29  C   UNL     1      -2.389 -10.468  13.497  0.00  0.00    +0.000 A 
ATOM     32  C   UNL     1      -1.292  -9.932  14.172  0.00  0.00    +0.000 A 
ENDBRANCH  20  22
ENDBRANCH  18  20
ENDBRANCH   9  18
ENDBRANCH  15  17
BRANCH  12   8
ATOM      6  O   UNL     1     -11.087  -6.039  16.452  0.00  0.00    -0.270 OA
ATOM      8  N   UNL     1     -10.892  -8.268  15.846  0.00  0.00    -0.302 N 
ATOM     19  C   UNL     1     -11.239  -6.942  15.635  0.00  0.00    +0.245 C 
ATOM     34  H   UNL     1     -11.139  -8.976  15.162  0.00  0.00    +0.150 HD
BRANCH  19  21
ATOM      1 CL   UNL     1     -12.828  -3.381  12.208  0.00  0.00    -0.081 Cl
ATOM      2  F   UNL     1     -13.586  -5.795  10.663  0.00  0.00    -0.204 F 
ATOM     21  C   UNL     1     -11.860  -6.634  14.321  0.00  0.00    +0.038 A 
ATOM     26  C   UNL     1     -12.035  -5.308  13.925  0.00  0.00    +0.036 A 
ATOM     27  C   UNL     1     -12.269  -7.672  13.483  0.00  0.00    +0.016 A 
ATOM     30  C   UNL     1     -12.616  -5.019  12.691  0.00  0.00    +0.077 A 
ATOM     31  C   UNL     1     -12.851  -7.382  12.249  0.00  0.00    +0.040 A 
ATOM     33  C   UNL     1     -13.025  -6.056  11.853  0.00  0.00    +0.142 A 
ENDBRANCH  19  21
ENDBRANCH  12   8
BRANCH  11   3
ATOM      3  O   UNL     1     -11.178 -10.929  16.548  0.00  0.00    -0.387 OA
ATOM     35  H   UNL     1     -10.517 -11.632  16.670  0.00  0.00    +0.210 HD
ENDBRANCH  11   3
BRANCH  13   4
ATOM      4  O   UNL     1     -10.173  -9.814  19.884  0.00  0.00    -0.389 OA
ATOM     36  H   UNL     1     -10.437  -8.921  19.603  0.00  0.00    +0.210 HD
ENDBRANCH  13   4
TORSDOF 9
ENDMDL
MODEL 7
REMARK VINA RESULT:      -6.7     28.187     30.266
REMARK  Name = 7050109
REMARK  9 active torsions:
REMARK  status: ('A' for Active; 'I' for Inactive)
REMARK    1  A    between atoms: O_3  and  C_11
REMARK    2  A    between atoms: O_4  and  C_13
REMARK    3  A    between atoms: N_8  and  C_12
REMARK    4  A    between atoms: N_9  and  C_18
REMARK    5  A    between atoms: C_15  and  C_17
REMARK    6  A    between atoms: C_18  and  C_20
REMARK    7  A    between atoms: C_18  and  C_23
REMARK    8  A    between atoms: C_19  and  C_21
REMARK    9  A    between atoms: C_20  and  C_22
REMARK                            x       y       z     vdW  Elec       q    Type
REMARK                         _______ _______ _______ _____ _____    ______ ____
ROOT
ATOM     11  C   UNL     1      -4.156 -10.946  16.903  0.00  0.00    +0.167 C 
ATOM     12  C   UNL     1      -4.923 -11.716  15.811  0.00  0.00    +0.128 C 
ATOM     13  C   UNL     1      -4.536 -11.433  18.306  0.00  0.00    +0.149 C 
ATOM     14  C   UNL     1      -6.052 -11.346  18.558  0.00  0.00    +0.074 C 
ATOM     15  C   UNL     1      -6.877 -11.719  17.360  0.00  0.00    +0.015 C 
ATOM     16  C   UNL     1      -6.383 -11.896  16.125  0.00  0.00    +0.006 C 
ENDROOT
BRANCH  15  17
ATOM      5  O   UNL     1      -9.033 -12.284  16.615  0.00  0.00    -0.271 OA
ATOM      9  N   UNL     1      -8.732 -11.670  18.844  0.00  0.00    -0.300 N 
ATOM     17  C   UNL     1      -8.316 -11.924  17.549  0.00  0.00    +0.241 C 
ATOM     37  H   UNL     1      -8.037 -11.460  19.555  0.00  0.00    +0.150 HD
BRANCH   9  18
ATOM     18  C   UNL     1     -10.106 -11.800  19.272  0.00  0.00    +0.163 C 
BRANCH  18  23
ATOM      7  O   UNL     1      -9.216 -13.607  20.630  0.00  0.00    -0.274 OA
ATOM     10  N   UNL     1     -11.262 -12.723  21.184  0.00  0.00    -0.328 N 
ATOM     23  C   UNL     1     -10.128 -12.816  20.404  0.00  0.00    +0.231 C 
ATOM     38  H   UNL     1     -11.396 -13.335  21.982  0.00  0.00    +0.145 HD
ATOM     39  H   UNL     1     -11.997 -12.049  20.999  0.00  0.00    +0.145 HD
ENDBRANCH  18  23
BRANCH  18  20
ATOM     20  C   UNL     1     -10.697 -10.465  19.742  0.00  0.00    +0.067 C 
BRANCH  20  22
ATOM     22  C   UNL     1     -11.262  -9.646  18.608  0.00  0.00    -0.045 A 
ATOM     24  C   UNL     1     -10.434  -8.778  17.895  0.00  0.00    +0.004 A 
ATOM     25  C   UNL     1     -12.611  -9.755  18.272  0.00  0.00    +0.004 A 
ATOM     28  C   UNL     1     -10.955  -8.020  16.847  0.00  0.00    +0.000 A 
ATOM     29  C   UNL     1     -13.132  -8.997  17.224  0.00  0.00    +0.000 A 
ATOM     32  C   UNL     1     -12.304  -8.129  16.511  0.00  0.00    +0.000 A 
ENDBRANCH  20  22
ENDBRANCH  18  20
ENDBRANCH   9  18
ENDBRANCH  15  17
BRANCH  12   8
ATOM      6  O   UNL     1      -2.748 -12.001  13.958  0.00  0.00    -0.270 OA
ATOM      8  N   UNL     1      -4.798 -11.077  14.523  0.00  0.00    -0.302 N 
ATOM     19  C   UNL     1      -3.704 -11.278  13.695  0.00  0.00    +0.245 C 
ATOM     34  H   UNL     1      -5.503 -10.389  14.280  0.00  0.00    +0.150 HD
BRANCH  19  21
ATOM      1 CL   UNL     1      -6.424  -8.858   9.993  0.00  0.00    -0.081 Cl
ATOM      2  F   UNL     1      -3.722  -8.439   8.849  0.00  0.00    -0.204 F 
ATOM     21  C   UNL     1      -3.713 -10.528  12.412  0.00  0.00    +0.038 A 
ATOM     26  C   UNL     1      -4.922 -10.096  11.865  0.00  0.00    +0.036 A 
ATOM     27  C   UNL     1      -2.514 -10.255  11.755  0.00  0.00    +0.016 A 
ATOM     30  C   UNL     1      -4.930  -9.389  10.663  0.00  0.00    +0.077 A 
ATOM     31  C   UNL     1      -2.522  -9.549  10.553  0.00  0.00    +0.040 A 
ATOM     33  C   UNL     1      -3.731  -9.116  10.006  0.00  0.00    +0.142 A 
ENDBRANCH  19  21
ENDBRANCH  12   8
BRANCH  11   3
ATOM      3  O   UNL     1      -4.451  -9.551  16.804  0.00  0.00    -0.387 OA
ATOM     35  H   UNL     1      -5.061  -9.434  16.056  0.00  0.00    +0.210 HD
ENDBRANCH  11   3
BRANCH  13   4
ATOM      4  O   UNL     1      -4.085 -12.771  18.502  0.00  0.00    -0.389 OA
ATOM     36  H   UNL     1      -3.237 -12.867  18.035  0.00  0.00    +0.210 HD
ENDBRANCH  13   4
TORSDOF 9
ENDMDL
MODEL 8
REMARK VINA RESULT:      -6.5     28.538     30.727
REMARK  Name = 7050109
REMARK  9 active torsions:
REMARK  status: ('A' for Active; 'I' for Inactive)
REMARK    1  A    between atoms: O_3  and  C_11
REMARK    2  A    between atoms: O_4  and  C_13
REMARK    3  A    between atoms: N_8  and  C_12
REMARK    4  A    between atoms: N_9  and  C_18
REMARK    5  A    between atoms: C_15  and  C_17
REMARK    6  A    between atoms: C_18  and  C_20
REMARK    7  A    between atoms: C_18  and  C_23
REMARK    8  A    between atoms: C_19  and  C_21
REMARK    9  A    between atoms: C_20  and  C_22
REMARK                            x       y       z     vdW  Elec       q    Type
REMARK                         _______ _______ _______ _____ _____    ______ ____
ROOT
ATOM     11  C   UNL     1      -8.121 -10.410  18.089  0.00  0.00    +0.167 C 
ATOM     12  C   UNL     1      -7.655  -9.254  17.184  0.00  0.00    +0.128 C 
ATOM     13  C   UNL     1      -6.975 -10.937  18.962  0.00  0.00    +0.149 C 
ATOM     14  C   UNL     1      -5.762 -11.374  18.122  0.00  0.00    +0.074 C 
ATOM     15  C   UNL     1      -5.491 -10.471  16.953  0.00  0.00    +0.015 C 
ATOM     16  C   UNL     1      -6.326  -9.512  16.527  0.00  0.00    +0.006 C 
ENDROOT
BRANCH  15  17
ATOM      5  O   UNL     1      -3.152 -10.671  16.846  0.00  0.00    -0.271 OA
ATOM      9  N   UNL     1      -4.381 -10.721  14.866  0.00  0.00    -0.300 N 
ATOM     17  C   UNL     1      -4.222 -10.631  16.237  0.00  0.00    +0.241 C 
ATOM     37  H   UNL     1      -5.321 -10.761  14.479  0.00  0.00    +0.150 HD
BRANCH   9  18
ATOM     18  C   UNL     1      -3.275 -10.879  13.950  0.00  0.00    +0.163 C 
BRANCH  18  23
ATOM      7  O   UNL     1      -3.375 -13.290  13.668  0.00  0.00    -0.274 OA
ATOM     10  N   UNL     1      -1.544 -12.382  14.716  0.00  0.00    -0.328 N 
ATOM     23  C   UNL     1      -2.774 -12.308  14.096  0.00  0.00    +0.231 C 
ATOM     38  H   UNL     1      -1.089 -13.277  14.864  0.00  0.00    +0.145 HD
ATOM     39  H   UNL     1      -1.048 -11.560  15.044  0.00  0.00    +0.145 HD
ENDBRANCH  18  23
BRANCH  18  20
ATOM     20  C   UNL     1      -3.680 -10.600  12.498  0.00  0.00    +0.067 C 
BRANCH  20  22
ATOM     22  C   UNL     1      -5.176 -10.525  12.313  0.00  0.00    -0.045 A 
ATOM     24  C   UNL     1      -5.897 -11.676  11.996  0.00  0.00    +0.004 A 
ATOM     25  C   UNL     1      -5.836  -9.305  12.458  0.00  0.00    +0.004 A 
ATOM     28  C   UNL     1      -7.280 -11.607  11.824  0.00  0.00    +0.000 A 
ATOM     29  C   UNL     1      -7.219  -9.237  12.287  0.00  0.00    +0.000 A 
ATOM     32  C   UNL     1      -7.941 -10.388  11.969  0.00  0.00    +0.000 A 
ENDBRANCH  20  22
ENDBRANCH  18  20
ENDBRANCH   9  18
ENDBRANCH  15  17
BRANCH  12   8
ATOM      6  O   UNL     1      -9.906  -7.488  17.429  0.00  0.00    -0.270 OA
ATOM      8  N   UNL     1      -8.629  -8.953  16.163  0.00  0.00    -0.302 N 
ATOM     19  C   UNL     1      -9.687  -8.082  16.377  0.00  0.00    +0.245 C 
ATOM     34  H   UNL     1      -8.570  -9.482  15.299  0.00  0.00    +0.150 HD
BRANCH  19  21
ATOM      1 CL   UNL     1     -13.242  -5.151  13.982  0.00  0.00    -0.081 Cl
ATOM      2  F   UNL     1     -13.200  -7.397  12.048  0.00  0.00    -0.204 F 
ATOM     21  C   UNL     1     -10.619  -7.897  15.234  0.00  0.00    +0.038 A 
ATOM     26  C   UNL     1     -11.404  -6.747  15.152  0.00  0.00    +0.036 A 
ATOM     27  C   UNL     1     -10.708  -8.874  14.242  0.00  0.00    +0.016 A 
ATOM     30  C   UNL     1     -12.276  -6.572  14.078  0.00  0.00    +0.077 A 
ATOM     31  C   UNL     1     -11.581  -8.700  13.169  0.00  0.00    +0.040 A 
ATOM     33  C   UNL     1     -12.366  -7.549  13.087  0.00  0.00    +0.142 A 
ENDBRANCH  19  21
ENDBRANCH  12   8
BRANCH  11   3
ATOM      3  O   UNL     1      -8.615 -11.482  17.283  0.00  0.00    -0.387 OA
ATOM     35  H   UNL     1      -8.323 -11.320  16.370  0.00  0.00    +0.210 HD
ENDBRANCH  11   3
BRANCH  13   4
ATOM      4  O   UNL     1      -6.583  -9.946  19.909  0.00  0.00    -0.389 OA
ATOM     36  H   UNL     1      -6.629 -10.349  20.793  0.00  0.00    +0.210 HD
ENDBRANCH  13   4
TORSDOF 9
ENDMDL
MODEL 9
REMARK VINA RESULT:      -6.4     28.178     30.169
REMARK  Name = 7050109
REMARK  9 active torsions:
REMARK  status: ('A' for Active; 'I' for Inactive)
REMARK    1  A    between atoms: O_3  and  C_11
REMARK    2  A    between atoms: O_4  and  C_13
REMARK    3  A    between atoms: N_8  and  C_12
REMARK    4  A    between atoms: N_9  and  C_18
REMARK    5  A    between atoms: C_15  and  C_17
REMARK    6  A    between atoms: C_18  and  C_20
REMARK    7  A    between atoms: C_18  and  C_23
REMARK    8  A    between atoms: C_19  and  C_21
REMARK    9  A    between atoms: C_20  and  C_22
REMARK                            x       y       z     vdW  Elec       q    Type
REMARK                         _______ _______ _______ _____ _____    ______ ____
ROOT
ATOM     11  C   UNL     1      -3.995 -11.000  16.918  0.00  0.00    +0.167 C 
ATOM     12  C   UNL     1      -4.961 -11.612  15.885  0.00  0.00    +0.128 C 
ATOM     13  C   UNL     1      -4.339 -11.449  18.343  0.00  0.00    +0.149 C 
ATOM     14  C   UNL     1      -5.796 -11.122  18.717  0.00  0.00    +0.074 C 
ATOM     15  C   UNL     1      -6.762 -11.330  17.586  0.00  0.00    +0.015 C 
ATOM     16  C   UNL     1      -6.402 -11.559  16.314  0.00  0.00    +0.006 C 
ENDROOT
BRANCH  15  17
ATOM      5  O   UNL     1      -8.693 -12.113  18.671  0.00  0.00    -0.271 OA
ATOM      9  N   UNL     1      -8.872 -10.303  17.213  0.00  0.00    -0.300 N 
ATOM     17  C   UNL     1      -8.196 -11.303  17.889  0.00  0.00    +0.241 C 
ATOM     37  H   UNL     1      -8.343  -9.637  16.657  0.00  0.00    +0.150 HD
BRANCH   9  18
ATOM     18  C   UNL     1     -10.294 -10.080  17.347  0.00  0.00    +0.163 C 
BRANCH  18  23
ATOM      7  O   UNL     1     -11.594  -8.033  17.215  0.00  0.00    -0.274 OA
ATOM     10  N   UNL     1      -9.361  -7.883  17.730  0.00  0.00    -0.328 N 
ATOM     23  C   UNL     1     -10.508  -8.575  17.401  0.00  0.00    +0.231 C 
ATOM     38  H   UNL     1      -9.370  -6.872  17.813  0.00  0.00    +0.145 HD
ATOM     39  H   UNL     1      -8.476  -8.346  17.902  0.00  0.00    +0.145 HD
ENDBRANCH  18  23
BRANCH  18  20
ATOM     20  C   UNL     1     -11.089 -10.692  16.188  0.00  0.00    +0.067 C 
BRANCH  20  22
ATOM     22  C   UNL     1     -10.259 -10.869  14.940  0.00  0.00    -0.045 A 
ATOM     24  C   UNL     1     -10.005  -9.776  14.112  0.00  0.00    +0.004 A 
ATOM     25  C   UNL     1      -9.747 -12.125  14.615  0.00  0.00    +0.004 A 
ATOM     28  C   UNL     1      -9.238  -9.939  12.957  0.00  0.00    +0.000 A 
ATOM     29  C   UNL     1      -8.980 -12.288  13.461  0.00  0.00    +0.000 A 
ATOM     32  C   UNL     1      -8.726 -11.194  12.632  0.00  0.00    +0.000 A 
ENDBRANCH  20  22
ENDBRANCH  18  20
ENDBRANCH   9  18
ENDBRANCH  15  17
BRANCH  12   8
ATOM      6  O   UNL     1      -3.084 -12.280  13.817  0.00  0.00    -0.270 OA
ATOM      8  N   UNL     1      -4.834 -10.974  14.597  0.00  0.00    -0.302 N 
ATOM     19  C   UNL     1      -3.892 -11.370  13.659  0.00  0.00    +0.245 C 
ATOM     34  H   UNL     1      -5.402 -10.149  14.433  0.00  0.00    +0.150 HD
BRANCH  19  21
ATOM      1 CL   UNL     1      -6.522  -8.834   9.969  0.00  0.00    -0.081 Cl
ATOM      2  F   UNL     1      -3.798  -8.441   8.867  0.00  0.00    -0.204 F 
ATOM     21  C   UNL     1      -3.872 -10.596  12.391  0.00  0.00    +0.038 A 
ATOM     26  C   UNL     1      -5.065 -10.133  11.837  0.00  0.00    +0.036 A 
ATOM     27  C   UNL     1      -2.659 -10.331  11.754  0.00  0.00    +0.016 A 
ATOM     30  C   UNL     1      -5.046  -9.404  10.648  0.00  0.00    +0.077 A 
ATOM     31  C   UNL     1      -2.640  -9.603  10.565  0.00  0.00    +0.040 A 
ATOM     33  C   UNL     1      -3.834  -9.139  10.011  0.00  0.00    +0.142 A 
ENDBRANCH  19  21
ENDBRANCH  12   8
BRANCH  11   3
ATOM      3  O   UNL     1      -4.064  -9.575  16.855  0.00  0.00    -0.387 OA
ATOM     35  H   UNL     1      -4.997  -9.322  16.969  0.00  0.00    +0.210 HD
ENDBRANCH  11   3
BRANCH  13   4
ATOM      4  O   UNL     1      -4.099 -12.847  18.490  0.00  0.00    -0.389 OA
ATOM     36  H   UNL     1      -3.982 -13.221  17.601  0.00  0.00    +0.210 HD
ENDBRANCH  13   4
TORSDOF 9
ENDMDL
MODEL 10
REMARK VINA RESULT:      -6.4     28.499     30.531
REMARK  Name = 7050109
REMARK  9 active torsions:
REMARK  status: ('A' for Active; 'I' for Inactive)
REMARK    1  A    between atoms: O_3  and  C_11
REMARK    2  A    between atoms: O_4  and  C_13
REMARK    3  A    between atoms: N_8  and  C_12
REMARK    4  A    between atoms: N_9  and  C_18
REMARK    5  A    between atoms: C_15  and  C_17
REMARK    6  A    between atoms: C_18  and  C_20
REMARK    7  A    between atoms: C_18  and  C_23
REMARK    8  A    between atoms: C_19  and  C_21
REMARK    9  A    between atoms: C_20  and  C_22
REMARK                            x       y       z     vdW  Elec       q    Type
REMARK                         _______ _______ _______ _____ _____    ______ ____
ROOT
ATOM     11  C   UNL     1      -5.075 -12.713  11.553  0.00  0.00    +0.167 C 
ATOM     12  C   UNL     1      -4.642 -11.350  12.127  0.00  0.00    +0.128 C 
ATOM     13  C   UNL     1      -4.974 -12.736  10.023  0.00  0.00    +0.149 C 
ATOM     14  C   UNL     1      -5.787 -11.602   9.373  0.00  0.00    +0.074 C 
ATOM     15  C   UNL     1      -5.718 -10.309  10.133  0.00  0.00    +0.015 C 
ATOM     16  C   UNL     1      -5.201 -10.179  11.364  0.00  0.00    +0.006 C 
ENDROOT
BRANCH  15  17
ATOM      5  O   UNL     1      -5.563  -8.065   9.451  0.00  0.00    -0.271 OA
ATOM      9  N   UNL     1      -7.497  -9.267   8.950  0.00  0.00    -0.300 N 
ATOM     17  C   UNL     1      -6.232  -9.099   9.484  0.00  0.00    +0.241 C 
ATOM     37  H   UNL     1      -7.919 -10.191   8.962  0.00  0.00    +0.150 HD
BRANCH   9  18
ATOM     18  C   UNL     1      -8.211  -8.215   8.263  0.00  0.00    +0.163 C 
BRANCH  18  23
ATOM      7  O   UNL     1      -8.589  -9.465   6.215  0.00  0.00    -0.274 OA
ATOM     10  N   UNL     1      -7.403  -7.501   6.099  0.00  0.00    -0.328 N 
ATOM     23  C   UNL     1      -8.091  -8.491   6.772  0.00  0.00    +0.231 C 
ATOM     38  H   UNL     1      -7.263  -7.556   5.096  0.00  0.00    +0.145 HD
ATOM     39  H   UNL     1      -7.016  -6.691   6.570  0.00  0.00    +0.145 HD
ENDBRANCH  18  23
BRANCH  18  20
ATOM     20  C   UNL     1      -9.686  -8.149   8.677  0.00  0.00    +0.067 C 
BRANCH  20  22
ATOM     22  C   UNL     1     -10.152  -6.741   8.956  0.00  0.00    -0.045 A 
ATOM     24  C   UNL     1     -11.329  -6.525   9.672  0.00  0.00    +0.004 A 
ATOM     25  C   UNL     1      -9.405  -5.655   8.498  0.00  0.00    +0.004 A 
ATOM     28  C   UNL     1     -11.760  -5.224   9.931  0.00  0.00    +0.000 A 
ATOM     29  C   UNL     1      -9.836  -4.354   8.757  0.00  0.00    +0.000 A 
ATOM     32  C   UNL     1     -11.014  -4.138   9.473  0.00  0.00    +0.000 A 
ENDBRANCH  20  22
ENDBRANCH  18  20
ENDBRANCH   9  18
ENDBRANCH  15  17
BRANCH  12   8
ATOM      6  O   UNL     1      -2.940 -10.490  14.274  0.00  0.00    -0.270 OA
ATOM      8  N   UNL     1      -5.008 -11.218  13.517  0.00  0.00    -0.302 N 
ATOM     19  C   UNL     1      -4.111 -10.793  14.485  0.00  0.00    +0.245 C 
ATOM     34  H   UNL     1      -5.931 -11.545  13.783  0.00  0.00    +0.150 HD
BRANCH  19  21
ATOM      1 CL   UNL     1      -3.589 -12.116  19.479  0.00  0.00    -0.081 Cl
ATOM      2  F   UNL     1      -6.100 -10.561  19.733  0.00  0.00    -0.204 F 
ATOM     21  C   UNL     1      -4.634 -10.735  15.875  0.00  0.00    +0.038 A 
ATOM     26  C   UNL     1      -3.950 -11.378  16.906  0.00  0.00    +0.036 A 
ATOM     27  C   UNL     1      -5.811 -10.037  16.148  0.00  0.00    +0.016 A 
ATOM     30  C   UNL     1      -4.439 -11.322  18.211  0.00  0.00    +0.077 A 
ATOM     31  C   UNL     1      -6.301  -9.982  17.452  0.00  0.00    +0.040 A 
ATOM     33  C   UNL     1      -5.616 -10.624  18.484  0.00  0.00    +0.142 A 
ENDBRANCH  19  21
ENDBRANCH  12   8
BRANCH  11   3
ATOM      3  O   UNL     1      -6.426 -12.985  11.929  0.00  0.00    -0.387 OA
ATOM     35  H   UNL     1      -6.490 -13.936  12.122  0.00  0.00    +0.210 HD
ENDBRANCH  11   3
BRANCH  13   4
ATOM      4  O   UNL     1      -3.609 -12.653   9.618  0.00  0.00    -0.389 OA
ATOM     36  H   UNL     1      -3.253 -13.557   9.600  0.00  0.00    +0.210 HD
ENDBRANCH  13   4
TORSDOF 9
ENDMDL
