MODEL 1
REMARK VINA RESULT:      -8.0      0.000      0.000
REMARK  Name = 38344332
REMARK  8 active torsions:
REMARK  status: ('A' for Active; 'I' for Inactive)
REMARK    1  A    between atoms: O_3  and  C_19
REMARK    2  A    between atoms: O_3  and  C_24
REMARK    3  A    between atoms: O_4  and  C_29
REMARK    4  A    between atoms: C_11  and  C_16
REMARK    5  A    between atoms: C_17  and  C_19
REMARK    6  A    between atoms: C_20  and  C_21
REMARK    7  A    between atoms: C_24  and  C_29
REMARK    8  A    between atoms: C_25  and  C_28
REMARK                            x       y       z     vdW  Elec       q    Type
REMARK                         _______ _______ _______ _____ _____    ______ ____
ROOT
ATOM      2  O   UNL     1      12.426   6.658  18.902  0.00  0.00    -0.273 OA
ATOM      6  N   UNL     1      13.742   7.679  20.531  0.00  0.00    -0.282 N 
ATOM      7  N   UNL     1      14.823  10.046  23.205  0.00  0.00    -0.347 N 
ATOM      8  N   UNL     1      15.590  11.276  21.505  0.00  0.00    -0.240 NA
ATOM     11  C   UNL     1      14.774   8.127  19.533  0.00  0.00    +0.171 C 
ATOM     12  C   UNL     1      15.034   9.661  19.633  0.00  0.00    +0.089 C 
ATOM     13  C   UNL     1      13.992   7.978  21.969  0.00  0.00    +0.163 C 
ATOM     14  C   UNL     1      15.082  10.092  21.048  0.00  0.00    +0.066 A 
ATOM     15  C   UNL     1      14.600   9.318  22.075  0.00  0.00    +0.056 A 
ATOM     17  C   UNL     1      12.654   6.918  20.086  0.00  0.00    +0.242 C 
ATOM     18  C   UNL     1      15.419  11.217  22.811  0.00  0.00    +0.197 A 
ATOM     30  H   UNL     1      14.595   9.778  24.155  0.00  0.00    +0.167 HD
ENDROOT
BRANCH  11  16
ATOM      1  O   UNL     1      16.046   6.204  18.690  0.00  0.00    -0.336 OA
ATOM      9  N   UNL     1      17.043   7.280  20.383  0.00  0.00    -0.190 NA
ATOM     10  N   UNL     1      17.248   5.525  18.932  0.00  0.00    -0.056 NA
ATOM     16  C   UNL     1      16.004   7.222  19.589  0.00  0.00    +0.249 A 
ATOM     20  C   UNL     1      17.778   6.219  19.943  0.00  0.00    +0.202 A 
BRANCH  20  21
ATOM     21  C   UNL     1      19.040   5.880  20.533  0.00  0.00    +0.022 A 
ATOM     22  C   UNL     1      19.791   4.824  20.017  0.00  0.00    +0.012 A 
ATOM     23  C   UNL     1      19.517   6.607  21.623  0.00  0.00    +0.012 A 
ATOM     25  C   UNL     1      21.496   5.221  21.682  0.00  0.00    -0.050 A 
ATOM     26  C   UNL     1      21.018   4.494  20.590  0.00  0.00    +0.004 A 
ATOM     27  C   UNL     1      20.745   6.277  22.198  0.00  0.00    +0.004 A 
ATOM     28  C   UNL     1      22.808   4.870  22.295  0.00  0.00    +0.044 C 
ENDBRANCH  20  21
ENDBRANCH  11  16
BRANCH  17  19
ATOM     19  C   UNL     1      11.714   6.399  21.147  0.00  0.00    +0.256 C 
BRANCH  19   3
ATOM      3  O   UNL     1      10.572   7.218  21.107  0.00  0.00    -0.359 OA
BRANCH   3  24
ATOM     24  C   UNL     1      10.298   7.819  22.372  0.00  0.00    +0.280 C 
BRANCH  24  29
ATOM      5  O   UNL     1      11.015   9.947  21.445  0.00  0.00    -0.248 OA
ATOM     29  C   UNL     1      10.865   9.210  22.409  0.00  0.00    +0.331 C 
BRANCH  29   4
ATOM      4  O   UNL     1      11.193   9.549  23.681  0.00  0.00    -0.479 OA
ATOM     31  H   UNL     1      10.991   8.828  24.315  0.00  0.00    +0.295 HD
ENDBRANCH  29   4
ENDBRANCH  24  29
ENDBRANCH   3  24
ENDBRANCH  19   3
ENDBRANCH  17  19
TORSDOF 7
ENDMDL
MODEL 2
REMARK VINA RESULT:      -7.5      2.172      3.302
REMARK  Name = 38344332
REMARK  8 active torsions:
REMARK  status: ('A' for Active; 'I' for Inactive)
REMARK    1  A    between atoms: O_3  and  C_19
REMARK    2  A    between atoms: O_3  and  C_24
REMARK    3  A    between atoms: O_4  and  C_29
REMARK    4  A    between atoms: C_11  and  C_16
REMARK    5  A    between atoms: C_17  and  C_19
REMARK    6  A    between atoms: C_20  and  C_21
REMARK    7  A    between atoms: C_24  and  C_29
REMARK    8  A    between atoms: C_25  and  C_28
REMARK                            x       y       z     vdW  Elec       q    Type
REMARK                         _______ _______ _______ _____ _____    ______ ____
ROOT
ATOM      2  O   UNL     1      12.733   7.834  21.992  0.00  0.00    -0.273 OA
ATOM      6  N   UNL     1      13.642   8.705  20.031  0.00  0.00    -0.282 N 
ATOM      7  N   UNL     1      13.959  10.645  16.859  0.00  0.00    -0.347 N 
ATOM      8  N   UNL     1      13.107   8.812  15.907  0.00  0.00    -0.240 NA
ATOM     11  C   UNL     1      13.716   7.356  19.369  0.00  0.00    +0.171 C 
ATOM     12  C   UNL     1      13.000   7.363  17.983  0.00  0.00    +0.089 C 
ATOM     13  C   UNL     1      14.174   9.877  19.280  0.00  0.00    +0.163 C 
ATOM     14  C   UNL     1      13.302   8.610  17.245  0.00  0.00    +0.066 A 
ATOM     15  C   UNL     1      13.823   9.725  17.855  0.00  0.00    +0.056 A 
ATOM     17  C   UNL     1      13.179   8.789  21.350  0.00  0.00    +0.242 C 
ATOM     18  C   UNL     1      13.514  10.050  15.706  0.00  0.00    +0.197 A 
ATOM     30  H   UNL     1      14.320  11.587  16.948  0.00  0.00    +0.167 HD
ENDROOT
BRANCH  11  16
ATOM      1  O   UNL     1      15.553   6.132  18.296  0.00  0.00    -0.336 OA
ATOM      9  N   UNL     1      16.057   6.930  20.327  0.00  0.00    -0.190 NA
ATOM     10  N   UNL     1      16.876   5.748  18.548  0.00  0.00    -0.056 NA
ATOM     16  C   UNL     1      15.146   6.822  19.394  0.00  0.00    +0.249 A 
ATOM     20  C   UNL     1      17.101   6.255  19.764  0.00  0.00    +0.202 A 
BRANCH  20  21
ATOM     21  C   UNL     1      18.356   6.108  20.442  0.00  0.00    +0.022 A 
ATOM     22  C   UNL     1      19.305   5.203  19.965  0.00  0.00    +0.012 A 
ATOM     23  C   UNL     1      18.630   6.871  21.576  0.00  0.00    +0.012 A 
ATOM     25  C   UNL     1      20.799   5.823  21.759  0.00  0.00    -0.050 A 
ATOM     26  C   UNL     1      20.525   5.060  20.623  0.00  0.00    +0.004 A 
ATOM     27  C   UNL     1      19.851   6.728  22.235  0.00  0.00    +0.004 A 
ATOM     28  C   UNL     1      22.104   5.671  22.463  0.00  0.00    +0.044 C 
ENDBRANCH  20  21
ENDBRANCH  11  16
BRANCH  17  19
ATOM     19  C   UNL     1      13.237  10.149  22.000  0.00  0.00    +0.256 C 
BRANCH  19   3
ATOM      3  O   UNL     1      12.066  10.277  22.769  0.00  0.00    -0.359 OA
BRANCH   3  24
ATOM     24  C   UNL     1      11.855  11.619  23.205  0.00  0.00    +0.280 C 
BRANCH  24  29
ATOM      5  O   UNL     1      11.190  11.092  25.481  0.00  0.00    -0.248 OA
ATOM     29  C   UNL     1      10.955  11.629  24.408  0.00  0.00    +0.331 C 
BRANCH  29   4
ATOM      4  O   UNL     1       9.823  12.329  24.142  0.00  0.00    -0.479 OA
ATOM     31  H   UNL     1       9.873  13.248  24.481  0.00  0.00    +0.295 HD
ENDBRANCH  29   4
ENDBRANCH  24  29
ENDBRANCH   3  24
ENDBRANCH  19   3
ENDBRANCH  17  19
TORSDOF 7
ENDMDL
MODEL 3
REMARK VINA RESULT:      -7.2      3.332      7.426
REMARK  Name = 38344332
REMARK  8 active torsions:
REMARK  status: ('A' for Active; 'I' for Inactive)
REMARK    1  A    between atoms: O_3  and  C_19
REMARK    2  A    between atoms: O_3  and  C_24
REMARK    3  A    between atoms: O_4  and  C_29
REMARK    4  A    between atoms: C_11  and  C_16
REMARK    5  A    between atoms: C_17  and  C_19
REMARK    6  A    between atoms: C_20  and  C_21
REMARK    7  A    between atoms: C_24  and  C_29
REMARK    8  A    between atoms: C_25  and  C_28
REMARK                            x       y       z     vdW  Elec       q    Type
REMARK                         _______ _______ _______ _____ _____    ______ ____
ROOT
ATOM      2  O   UNL     1      16.056   5.847  19.419  0.00  0.00    -0.273 OA
ATOM      6  N   UNL     1      14.516   7.387  20.248  0.00  0.00    -0.282 N 
ATOM      7  N   UNL     1      12.151   9.091  22.577  0.00  0.00    -0.347 N 
ATOM      8  N   UNL     1      10.628   7.719  21.687  0.00  0.00    -0.240 NA
ATOM     11  C   UNL     1      13.460   6.989  19.254  0.00  0.00    +0.171 C 
ATOM     12  C   UNL     1      12.123   6.615  19.965  0.00  0.00    +0.089 C 
ATOM     13  C   UNL     1      14.203   8.502  21.185  0.00  0.00    +0.163 C 
ATOM     14  C   UNL     1      11.836   7.557  21.069  0.00  0.00    +0.066 A 
ATOM     15  C   UNL     1      12.792   8.388  21.601  0.00  0.00    +0.056 A 
ATOM     17  C   UNL     1      15.773   6.772  20.185  0.00  0.00    +0.242 C 
ATOM     18  C   UNL     1      10.851   8.652  22.592  0.00  0.00    +0.197 A 
ATOM     30  H   UNL     1      12.552   9.801  23.177  0.00  0.00    +0.167 HD
ENDROOT
BRANCH  11  16
ATOM      1  O   UNL     1      12.332   7.867  17.259  0.00  0.00    -0.336 OA
ATOM      9  N   UNL     1      14.148   9.031  17.863  0.00  0.00    -0.190 NA
ATOM     10  N   UNL     1      12.456   8.907  16.328  0.00  0.00    -0.056 NA
ATOM     16  C   UNL     1      13.367   8.014  18.126  0.00  0.00    +0.249 A 
ATOM     20  C   UNL     1      13.549   9.549  16.751  0.00  0.00    +0.202 A 
BRANCH  20  21
ATOM     21  C   UNL     1      14.067  10.710  16.087  0.00  0.00    +0.022 A 
ATOM     22  C   UNL     1      15.105  11.440  16.667  0.00  0.00    +0.012 A 
ATOM     23  C   UNL     1      13.536  11.107  14.861  0.00  0.00    +0.012 A 
ATOM     25  C   UNL     1      15.077  12.967  14.796  0.00  0.00    -0.050 A 
ATOM     26  C   UNL     1      15.610  12.568  16.023  0.00  0.00    +0.004 A 
ATOM     27  C   UNL     1      14.040  12.236  14.215  0.00  0.00    +0.004 A 
ATOM     28  C   UNL     1      15.617  14.173  14.105  0.00  0.00    +0.044 C 
ENDBRANCH  20  21
ENDBRANCH  11  16
BRANCH  17  19
ATOM     19  C   UNL     1      16.828   7.294  21.129  0.00  0.00    +0.256 C 
BRANCH  19   3
ATOM      3  O   UNL     1      17.704   6.224  21.384  0.00  0.00    -0.359 OA
BRANCH   3  24
ATOM     24  C   UNL     1      19.020   6.480  20.896  0.00  0.00    +0.280 C 
BRANCH  24  29
ATOM      5  O   UNL     1      20.548   4.670  20.356  0.00  0.00    -0.248 OA
ATOM     29  C   UNL     1      19.520   5.290  20.126  0.00  0.00    +0.331 C 
BRANCH  29   4
ATOM      4  O   UNL     1      18.658   4.986  19.123  0.00  0.00    -0.479 OA
ATOM     31  H   UNL     1      18.028   5.717  18.948  0.00  0.00    +0.295 HD
ENDBRANCH  29   4
ENDBRANCH  24  29
ENDBRANCH   3  24
ENDBRANCH  19   3
ENDBRANCH  17  19
TORSDOF 7
ENDMDL
MODEL 4
REMARK VINA RESULT:      -7.0      1.662      2.375
REMARK  Name = 38344332
REMARK  8 active torsions:
REMARK  status: ('A' for Active; 'I' for Inactive)
REMARK    1  A    between atoms: O_3  and  C_19
REMARK    2  A    between atoms: O_3  and  C_24
REMARK    3  A    between atoms: O_4  and  C_29
REMARK    4  A    between atoms: C_11  and  C_16
REMARK    5  A    between atoms: C_17  and  C_19
REMARK    6  A    between atoms: C_20  and  C_21
REMARK    7  A    between atoms: C_24  and  C_29
REMARK    8  A    between atoms: C_25  and  C_28
REMARK                            x       y       z     vdW  Elec       q    Type
REMARK                         _______ _______ _______ _____ _____    ______ ____
ROOT
ATOM      2  O   UNL     1      13.095   9.745  18.461  0.00  0.00    -0.273 OA
ATOM      6  N   UNL     1      13.896   9.751  20.649  0.00  0.00    -0.282 N 
ATOM      7  N   UNL     1      14.440  10.781  24.194  0.00  0.00    -0.347 N 
ATOM      8  N   UNL     1      16.101  12.017  23.352  0.00  0.00    -0.240 NA
ATOM     11  C   UNL     1      15.313  10.012  20.217  0.00  0.00    +0.171 C 
ATOM     12  C   UNL     1      15.908  11.257  20.943  0.00  0.00    +0.089 C 
ATOM     13  C   UNL     1      13.639   9.562  22.104  0.00  0.00    +0.163 C 
ATOM     14  C   UNL     1      15.516  11.268  22.370  0.00  0.00    +0.066 A 
ATOM     15  C   UNL     1      14.489  10.500  22.861  0.00  0.00    +0.056 A 
ATOM     17  C   UNL     1      12.907   9.594  19.671  0.00  0.00    +0.242 C 
ATOM     18  C   UNL     1      15.428  11.700  24.441  0.00  0.00    +0.197 A 
ATOM     30  H   UNL     1      13.801  10.389  24.874  0.00  0.00    +0.167 HD
ENDROOT
BRANCH  11  16
ATOM      1  O   UNL     1      15.573   7.620  19.734  0.00  0.00    -0.336 OA
ATOM      9  N   UNL     1      17.332   8.532  20.779  0.00  0.00    -0.190 NA
ATOM     10  N   UNL     1      16.504   6.587  19.906  0.00  0.00    -0.056 NA
ATOM     16  C   UNL     1      16.140   8.729  20.276  0.00  0.00    +0.249 A 
ATOM     20  C   UNL     1      17.513   7.202  20.528  0.00  0.00    +0.202 A 
BRANCH  20  21
ATOM     21  C   UNL     1      18.715   6.520  20.911  0.00  0.00    +0.022 A 
ATOM     22  C   UNL     1      19.359   6.857  22.102  0.00  0.00    +0.012 A 
ATOM     23  C   UNL     1      19.239   5.519  20.094  0.00  0.00    +0.012 A 
ATOM     25  C   UNL     1      21.052   5.193  21.657  0.00  0.00    -0.050 A 
ATOM     26  C   UNL     1      20.527   6.194  22.475  0.00  0.00    +0.004 A 
ATOM     27  C   UNL     1      20.408   4.856  20.467  0.00  0.00    +0.004 A 
ATOM     28  C   UNL     1      22.301   4.483  22.056  0.00  0.00    +0.044 C 
ENDBRANCH  20  21
ENDBRANCH  11  16
BRANCH  17  19
ATOM     19  C   UNL     1      11.529   9.217  20.159  0.00  0.00    +0.256 C 
BRANCH  19   3
ATOM      3  O   UNL     1      11.127   8.100  19.404  0.00  0.00    -0.359 OA
BRANCH   3  24
ATOM     24  C   UNL     1      12.135   7.091  19.363  0.00  0.00    +0.280 C 
BRANCH  24  29
ATOM      5  O   UNL     1      11.170   5.880  21.235  0.00  0.00    -0.248 OA
ATOM     29  C   UNL     1      12.150   6.331  20.660  0.00  0.00    +0.331 C 
BRANCH  29   4
ATOM      4  O   UNL     1      13.422   6.207  21.116  0.00  0.00    -0.479 OA
ATOM     31  H   UNL     1      14.002   5.758  20.465  0.00  0.00    +0.295 HD
ENDBRANCH  29   4
ENDBRANCH  24  29
ENDBRANCH   3  24
ENDBRANCH  19   3
ENDBRANCH  17  19
TORSDOF 7
ENDMDL
MODEL 5
REMARK VINA RESULT:      -6.9     15.703     17.619
REMARK  Name = 38344332
REMARK  8 active torsions:
REMARK  status: ('A' for Active; 'I' for Inactive)
REMARK    1  A    between atoms: O_3  and  C_19
REMARK    2  A    between atoms: O_3  and  C_24
REMARK    3  A    between atoms: O_4  and  C_29
REMARK    4  A    between atoms: C_11  and  C_16
REMARK    5  A    between atoms: C_17  and  C_19
REMARK    6  A    between atoms: C_20  and  C_21
REMARK    7  A    between atoms: C_24  and  C_29
REMARK    8  A    between atoms: C_25  and  C_28
REMARK                            x       y       z     vdW  Elec       q    Type
REMARK                         _______ _______ _______ _____ _____    ______ ____
ROOT
ATOM      2  O   UNL     1       8.971   8.150   6.305  0.00  0.00    -0.273 OA
ATOM      6  N   UNL     1      11.196   7.463   6.231  0.00  0.00    -0.282 N 
ATOM      7  N   UNL     1      14.860   7.323   6.924  0.00  0.00    -0.347 N 
ATOM      8  N   UNL     1      15.018   8.750   5.212  0.00  0.00    -0.240 NA
ATOM     11  C   UNL     1      11.350   7.838   4.783  0.00  0.00    +0.171 C 
ATOM     12  C   UNL     1      12.568   8.788   4.568  0.00  0.00    +0.089 C 
ATOM     13  C   UNL     1      12.360   6.827   6.910  0.00  0.00    +0.163 C 
ATOM     14  C   UNL     1      13.722   8.352   5.384  0.00  0.00    +0.066 A 
ATOM     15  C   UNL     1      13.597   7.475   6.434  0.00  0.00    +0.056 A 
ATOM     17  C   UNL     1       9.949   7.627   6.846  0.00  0.00    +0.242 C 
ATOM     18  C   UNL     1      15.680   8.111   6.156  0.00  0.00    +0.197 A 
ATOM     30  H   UNL     1      15.144   6.741   7.702  0.00  0.00    +0.167 HD
ENDROOT
BRANCH  11  16
ATOM      1  O   UNL     1      10.759   5.478   4.455  0.00  0.00    -0.336 OA
ATOM      9  N   UNL     1      11.678   6.442   2.655  0.00  0.00    -0.190 NA
ATOM     10  N   UNL     1      10.810   4.488   3.466  0.00  0.00    -0.056 NA
ATOM     16  C   UNL     1      11.289   6.596   3.895  0.00  0.00    +0.249 A 
ATOM     20  C   UNL     1      11.364   5.133   2.435  0.00  0.00    +0.202 A 
BRANCH  20  21
ATOM     21  C   UNL     1      11.615   4.499   1.173  0.00  0.00    +0.022 A 
ATOM     22  C   UNL     1      12.809   3.809   0.964  0.00  0.00    +0.012 A 
ATOM     23  C   UNL     1      10.664   4.571   0.156  0.00  0.00    +0.012 A 
ATOM     25  C   UNL     1      12.102   3.265  -1.281  0.00  0.00    -0.050 A 
ATOM     26  C   UNL     1      13.053   3.193  -0.262  0.00  0.00    +0.004 A 
ATOM     27  C   UNL     1      10.908   3.955  -1.071  0.00  0.00    +0.004 A 
ATOM     28  C   UNL     1      12.362   2.606  -2.592  0.00  0.00    +0.044 C 
ENDBRANCH  20  21
ENDBRANCH  11  16
BRANCH  17  19
ATOM     19  C   UNL     1       9.824   7.125   8.263  0.00  0.00    +0.256 C 
BRANCH  19   3
ATOM      3  O   UNL     1       8.869   6.092   8.240  0.00  0.00    -0.359 OA
BRANCH   3  24
ATOM     24  C   UNL     1       9.423   4.841   8.646  0.00  0.00    +0.280 C 
BRANCH  24  29
ATOM      5  O   UNL     1      10.498   4.752  10.823  0.00  0.00    -0.248 OA
ATOM     29  C   UNL     1       9.480   4.771  10.146  0.00  0.00    +0.331 C 
BRANCH  29   4
ATOM      4  O   UNL     1       8.225   4.734  10.662  0.00  0.00    -0.479 OA
ATOM     31  H   UNL     1       7.752   3.912  10.414  0.00  0.00    +0.295 HD
ENDBRANCH  29   4
ENDBRANCH  24  29
ENDBRANCH   3  24
ENDBRANCH  19   3
ENDBRANCH  17  19
TORSDOF 7
ENDMDL
MODEL 6
REMARK VINA RESULT:      -6.8      3.735      8.202
REMARK  Name = 38344332
REMARK  8 active torsions:
REMARK  status: ('A' for Active; 'I' for Inactive)
REMARK    1  A    between atoms: O_3  and  C_19
REMARK    2  A    between atoms: O_3  and  C_24
REMARK    3  A    between atoms: O_4  and  C_29
REMARK    4  A    between atoms: C_11  and  C_16
REMARK    5  A    between atoms: C_17  and  C_19
REMARK    6  A    between atoms: C_20  and  C_21
REMARK    7  A    between atoms: C_24  and  C_29
REMARK    8  A    between atoms: C_25  and  C_28
REMARK                            x       y       z     vdW  Elec       q    Type
REMARK                         _______ _______ _______ _____ _____    ______ ____
ROOT
ATOM      2  O   UNL     1      12.640   9.685  16.711  0.00  0.00    -0.273 OA
ATOM      6  N   UNL     1      13.967   9.258  18.578  0.00  0.00    -0.282 N 
ATOM      7  N   UNL     1      16.817   8.067  20.671  0.00  0.00    -0.347 N 
ATOM      8  N   UNL     1      15.646   6.168  20.799  0.00  0.00    -0.240 NA
ATOM     11  C   UNL     1      12.958   8.320  19.182  0.00  0.00    +0.171 C 
ATOM     12  C   UNL     1      13.598   6.940  19.522  0.00  0.00    +0.089 C 
ATOM     13  C   UNL     1      15.205   9.540  19.357  0.00  0.00    +0.163 C 
ATOM     14  C   UNL     1      14.944   7.118  20.110  0.00  0.00    +0.066 A 
ATOM     15  C   UNL     1      15.645   8.295  20.014  0.00  0.00    +0.056 A 
ATOM     17  C   UNL     1      13.658   9.902  17.373  0.00  0.00    +0.242 C 
ATOM     18  C   UNL     1      16.772   6.773  21.124  0.00  0.00    +0.197 A 
ATOM     30  H   UNL     1      17.576   8.723  20.802  0.00  0.00    +0.167 HD
ENDROOT
BRANCH  11  16
ATOM      1  O   UNL     1      11.271   8.252  20.964  0.00  0.00    -0.336 OA
ATOM      9  N   UNL     1      12.278  10.240  20.743  0.00  0.00    -0.190 NA
ATOM     10  N   UNL     1      10.702   9.087  21.934  0.00  0.00    -0.056 NA
ATOM     16  C   UNL     1      12.188   9.009  20.307  0.00  0.00    +0.249 A 
ATOM     20  C   UNL     1      11.348  10.241  21.741  0.00  0.00    +0.202 A 
BRANCH  20  21
ATOM     21  C   UNL     1      11.089  11.412  22.528  0.00  0.00    +0.022 A 
ATOM     22  C   UNL     1      10.908  11.299  23.907  0.00  0.00    +0.012 A 
ATOM     23  C   UNL     1      11.020  12.662  21.916  0.00  0.00    +0.012 A 
ATOM     25  C   UNL     1      10.586  13.688  24.060  0.00  0.00    -0.050 A 
ATOM     26  C   UNL     1      10.656  12.437  24.673  0.00  0.00    +0.004 A 
ATOM     27  C   UNL     1      10.768  13.801  22.682  0.00  0.00    +0.004 A 
ATOM     28  C   UNL     1      10.319  14.906  24.878  0.00  0.00    +0.044 C 
ENDBRANCH  20  21
ENDBRANCH  11  16
BRANCH  17  19
ATOM     19  C   UNL     1      14.656  10.918  16.876  0.00  0.00    +0.256 C 
BRANCH  19   3
ATOM      3  O   UNL     1      13.924  12.076  16.556  0.00  0.00    -0.359 OA
BRANCH   3  24
ATOM     24  C   UNL     1      14.369  12.673  15.339  0.00  0.00    +0.280 C 
BRANCH  24  29
ATOM      5  O   UNL     1      14.807  11.394  13.320  0.00  0.00    -0.248 OA
ATOM     29  C   UNL     1      14.028  11.779  14.179  0.00  0.00    +0.331 C 
BRANCH  29   4
ATOM      4  O   UNL     1      12.713  11.446  14.215  0.00  0.00    -0.479 OA
ATOM     31  H   UNL     1      12.171  12.141  14.646  0.00  0.00    +0.295 HD
ENDBRANCH  29   4
ENDBRANCH  24  29
ENDBRANCH   3  24
ENDBRANCH  19   3
ENDBRANCH  17  19
TORSDOF 7
ENDMDL
MODEL 7
REMARK VINA RESULT:      -6.4     27.020     29.852
REMARK  Name = 38344332
REMARK  8 active torsions:
REMARK  status: ('A' for Active; 'I' for Inactive)
REMARK    1  A    between atoms: O_3  and  C_19
REMARK    2  A    between atoms: O_3  and  C_24
REMARK    3  A    between atoms: O_4  and  C_29
REMARK    4  A    between atoms: C_11  and  C_16
REMARK    5  A    between atoms: C_17  and  C_19
REMARK    6  A    between atoms: C_20  and  C_21
REMARK    7  A    between atoms: C_24  and  C_29
REMARK    8  A    between atoms: C_25  and  C_28
REMARK                            x       y       z     vdW  Elec       q    Type
REMARK                         _______ _______ _______ _____ _____    ______ ____
ROOT
ATOM      2  O   UNL     1     -10.445 -12.005  17.753  0.00  0.00    -0.273 OA
ATOM      6  N   UNL     1     -10.169  -9.782  17.111  0.00  0.00    -0.282 N 
ATOM      7  N   UNL     1     -10.876  -6.154  16.598  0.00  0.00    -0.347 N 
ATOM      8  N   UNL     1     -11.778  -6.826  14.667  0.00  0.00    -0.240 NA
ATOM     11  C   UNL     1     -10.149 -10.122  15.646  0.00  0.00    +0.171 C 
ATOM     12  C   UNL     1     -11.202  -9.286  14.855  0.00  0.00    +0.089 C 
ATOM     13  C   UNL     1      -9.962  -8.357  17.496  0.00  0.00    +0.163 C 
ATOM     14  C   UNL     1     -11.220  -7.884  15.329  0.00  0.00    +0.066 A 
ATOM     15  C   UNL     1     -10.661  -7.498  16.522  0.00  0.00    +0.056 A 
ATOM     17  C   UNL     1     -10.274 -10.819  18.047  0.00  0.00    +0.242 C 
ATOM     18  C   UNL     1     -11.553  -5.797  15.460  0.00  0.00    +0.197 A 
ATOM     30  H   UNL     1     -10.592  -5.536  17.347  0.00  0.00    +0.167 HD
ENDROOT
BRANCH  11  16
ATOM      1  O   UNL     1      -8.573  -9.778  13.796  0.00  0.00    -0.336 OA
ATOM      9  N   UNL     1      -7.595 -10.352  15.728  0.00  0.00    -0.190 NA
ATOM     10  N   UNL     1      -7.197  -9.826  13.538  0.00  0.00    -0.056 NA
ATOM     16  C   UNL     1      -8.720 -10.101  15.108  0.00  0.00    +0.249 A 
ATOM     20  C   UNL     1      -6.688 -10.171  14.724  0.00  0.00    +0.202 A 
BRANCH  20  21
ATOM     21  C   UNL     1      -5.281 -10.340  14.941  0.00  0.00    +0.022 A 
ATOM     22  C   UNL     1      -4.768 -10.325  16.238  0.00  0.00    +0.012 A 
ATOM     23  C   UNL     1      -4.425 -10.522  13.855  0.00  0.00    +0.012 A 
ATOM     25  C   UNL     1      -2.543 -10.671  15.363  0.00  0.00    -0.050 A 
ATOM     26  C   UNL     1      -3.400 -10.490  16.450  0.00  0.00    +0.004 A 
ATOM     27  C   UNL     1      -3.056 -10.687  14.066  0.00  0.00    +0.004 A 
ATOM     28  C   UNL     1      -1.080 -10.849  15.589  0.00  0.00    +0.044 C 
ENDBRANCH  20  21
ENDBRANCH  11  16
BRANCH  17  19
ATOM     19  C   UNL     1     -10.170 -10.429  19.501  0.00  0.00    +0.256 C 
BRANCH  19   3
ATOM      3  O   UNL     1      -9.058 -11.115  20.021  0.00  0.00    -0.359 OA
BRANCH   3  24
ATOM     24  C   UNL     1      -7.853 -10.786  19.329  0.00  0.00    +0.280 C 
BRANCH  24  29
ATOM      5  O   UNL     1      -5.956 -11.422  20.708  0.00  0.00    -0.248 OA
ATOM     29  C   UNL     1      -6.736 -11.674  19.801  0.00  0.00    +0.331 C 
BRANCH  29   4
ATOM      4  O   UNL     1      -6.708 -12.819  19.073  0.00  0.00    -0.479 OA
ATOM     31  H   UNL     1      -6.055 -13.460  19.424  0.00  0.00    +0.295 HD
ENDBRANCH  29   4
ENDBRANCH  24  29
ENDBRANCH   3  24
ENDBRANCH  19   3
ENDBRANCH  17  19
TORSDOF 7
ENDMDL
MODEL 8
REMARK VINA RESULT:      -6.3     14.465     16.621
REMARK  Name = 38344332
REMARK  8 active torsions:
REMARK  status: ('A' for Active; 'I' for Inactive)
REMARK    1  A    between atoms: O_3  and  C_19
REMARK    2  A    between atoms: O_3  and  C_24
REMARK    3  A    between atoms: O_4  and  C_29
REMARK    4  A    between atoms: C_11  and  C_16
REMARK    5  A    between atoms: C_17  and  C_19
REMARK    6  A    between atoms: C_20  and  C_21
REMARK    7  A    between atoms: C_24  and  C_29
REMARK    8  A    between atoms: C_25  and  C_28
REMARK                            x       y       z     vdW  Elec       q    Type
REMARK                         _______ _______ _______ _____ _____    ______ ____
ROOT
ATOM      2  O   UNL     1       9.201   7.618   3.522  0.00  0.00    -0.273 OA
ATOM      6  N   UNL     1       9.979   6.527   5.428  0.00  0.00    -0.282 N 
ATOM      7  N   UNL     1      10.209   4.074   8.231  0.00  0.00    -0.347 N 
ATOM      8  N   UNL     1       8.925   5.537   9.328  0.00  0.00    -0.240 NA
ATOM     11  C   UNL     1       9.723   7.715   6.313  0.00  0.00    +0.171 C 
ATOM     12  C   UNL     1       8.841   7.330   7.540  0.00  0.00    +0.089 C 
ATOM     13  C   UNL     1      10.606   5.324   6.045  0.00  0.00    +0.163 C 
ATOM     14  C   UNL     1       9.258   6.023   8.095  0.00  0.00    +0.066 A 
ATOM     15  C   UNL     1      10.046   5.140   7.397  0.00  0.00    +0.056 A 
ATOM     17  C   UNL     1       9.719   6.634   4.056  0.00  0.00    +0.242 C 
ATOM     18  C   UNL     1       9.515   4.358   9.379  0.00  0.00    +0.197 A 
ATOM     30  H   UNL     1      10.741   3.233   8.043  0.00  0.00    +0.167 HD
ENDROOT
BRANCH  11  16
ATOM      1  O   UNL     1      10.965   9.422   7.566  0.00  0.00    -0.336 OA
ATOM      9  N   UNL     1      12.213   8.290   6.090  0.00  0.00    -0.190 NA
ATOM     10  N   UNL     1      12.260   9.947   7.666  0.00  0.00    -0.056 NA
ATOM     16  C   UNL     1      11.026   8.453   6.616  0.00  0.00    +0.249 A 
ATOM     20  C   UNL     1      12.937   9.230   6.766  0.00  0.00    +0.202 A 
BRANCH  20  21
ATOM     21  C   UNL     1      14.336   9.424   6.518  0.00  0.00    +0.022 A 
ATOM     22  C   UNL     1      14.898  10.694   6.645  0.00  0.00    +0.012 A 
ATOM     23  C   UNL     1      15.136   8.341   6.153  0.00  0.00    +0.012 A 
ATOM     25  C   UNL     1      17.058   9.801   6.039  0.00  0.00    -0.050 A 
ATOM     26  C   UNL     1      16.258  10.884   6.405  0.00  0.00    +0.004 A 
ATOM     27  C   UNL     1      16.497   8.530   5.912  0.00  0.00    +0.004 A 
ATOM     28  C   UNL     1      18.513  10.002   5.783  0.00  0.00    +0.044 C 
ENDBRANCH  20  21
ENDBRANCH  11  16
BRANCH  17  19
ATOM     19  C   UNL     1      10.105   5.452   3.202  0.00  0.00    +0.256 C 
BRANCH  19   3
ATOM      3  O   UNL     1      11.317   5.790   2.573  0.00  0.00    -0.359 OA
BRANCH   3  24
ATOM     24  C   UNL     1      11.614   4.924   1.478  0.00  0.00    +0.280 C 
BRANCH  24  29
ATOM      5  O   UNL     1      12.930   2.886   1.618  0.00  0.00    -0.248 OA
ATOM     29  C   UNL     1      12.822   4.090   1.800  0.00  0.00    +0.331 C 
BRANCH  29   4
ATOM      4  O   UNL     1      13.801   4.868   2.329  0.00  0.00    -0.479 OA
ATOM     31  H   UNL     1      14.407   5.213   1.640  0.00  0.00    +0.295 HD
ENDBRANCH  29   4
ENDBRANCH  24  29
ENDBRANCH   3  24
ENDBRANCH  19   3
ENDBRANCH  17  19
TORSDOF 7
ENDMDL
MODEL 9
REMARK VINA RESULT:      -6.2     16.416     18.375
REMARK  Name = 38344332
REMARK  8 active torsions:
REMARK  status: ('A' for Active; 'I' for Inactive)
REMARK    1  A    between atoms: O_3  and  C_19
REMARK    2  A    between atoms: O_3  and  C_24
REMARK    3  A    between atoms: O_4  and  C_29
REMARK    4  A    between atoms: C_11  and  C_16
REMARK    5  A    between atoms: C_17  and  C_19
REMARK    6  A    between atoms: C_20  and  C_21
REMARK    7  A    between atoms: C_24  and  C_29
REMARK    8  A    between atoms: C_25  and  C_28
REMARK                            x       y       z     vdW  Elec       q    Type
REMARK                         _______ _______ _______ _____ _____    ______ ____
ROOT
ATOM      2  O   UNL     1      11.027   9.722   4.877  0.00  0.00    -0.273 OA
ATOM      6  N   UNL     1      10.102   7.898   5.994  0.00  0.00    -0.282 N 
ATOM      7  N   UNL     1       8.619   5.823   8.718  0.00  0.00    -0.347 N 
ATOM      8  N   UNL     1      10.743   5.308   9.184  0.00  0.00    -0.240 NA
ATOM     11  C   UNL     1      11.361   7.084   5.878  0.00  0.00    +0.171 C 
ATOM     12  C   UNL     1      11.830   6.562   7.270  0.00  0.00    +0.089 C 
ATOM     13  C   UNL     1       8.918   7.258   6.632  0.00  0.00    +0.163 C 
ATOM     14  C   UNL     1      10.676   6.098   8.071  0.00  0.00    +0.066 A 
ATOM     15  C   UNL     1       9.379   6.432   7.764  0.00  0.00    +0.056 A 
ATOM     17  C   UNL     1      10.061   9.171   5.411  0.00  0.00    +0.242 C 
ATOM     18  C   UNL     1       9.484   5.160   9.550  0.00  0.00    +0.197 A 
ATOM     30  H   UNL     1       7.610   5.851   8.799  0.00  0.00    +0.167 HD
ENDROOT
BRANCH  11  16
ATOM      1  O   UNL     1      10.486   4.942   5.059  0.00  0.00    -0.336 OA
ATOM      9  N   UNL     1      11.729   6.048   3.559  0.00  0.00    -0.190 NA
ATOM     10  N   UNL     1      10.510   4.144   3.908  0.00  0.00    -0.056 NA
ATOM     16  C   UNL     1      11.228   6.042   4.769  0.00  0.00    +0.249 A 
ATOM     20  C   UNL     1      11.261   4.863   3.069  0.00  0.00    +0.202 A 
BRANCH  20  21
ATOM     21  C   UNL     1      11.562   4.428   1.736  0.00  0.00    +0.022 A 
ATOM     22  C   UNL     1      10.688   4.727   0.691  0.00  0.00    +0.012 A 
ATOM     23  C   UNL     1      12.730   3.709   1.485  0.00  0.00    +0.012 A 
ATOM     25  C   UNL     1      12.148   3.584  -0.857  0.00  0.00    -0.050 A 
ATOM     26  C   UNL     1      10.980   4.305  -0.605  0.00  0.00    +0.004 A 
ATOM     27  C   UNL     1      13.023   3.286   0.188  0.00  0.00    +0.004 A 
ATOM     28  C   UNL     1      12.462   3.133  -2.243  0.00  0.00    +0.044 C 
ENDBRANCH  20  21
ENDBRANCH  11  16
BRANCH  17  19
ATOM     19  C   UNL     1       8.736   9.892   5.457  0.00  0.00    +0.256 C 
BRANCH  19   3
ATOM      3  O   UNL     1       8.378  10.158   4.124  0.00  0.00    -0.359 OA
BRANCH   3  24
ATOM     24  C   UNL     1       7.587   9.111   3.562  0.00  0.00    +0.280 C 
BRANCH  24  29
ATOM      5  O   UNL     1       8.268   9.071   1.230  0.00  0.00    -0.248 OA
ATOM     29  C   UNL     1       8.266   8.559   2.340  0.00  0.00    +0.331 C 
BRANCH  29   4
ATOM      4  O   UNL     1       8.892   7.393   2.638  0.00  0.00    -0.479 OA
ATOM     31  H   UNL     1       8.946   7.244   3.606  0.00  0.00    +0.295 HD
ENDBRANCH  29   4
ENDBRANCH  24  29
ENDBRANCH   3  24
ENDBRANCH  19   3
ENDBRANCH  17  19
TORSDOF 7
ENDMDL
MODEL 10
REMARK VINA RESULT:      -6.1     27.151     29.116
REMARK  Name = 38344332
REMARK  8 active torsions:
REMARK  status: ('A' for Active; 'I' for Inactive)
REMARK    1  A    between atoms: O_3  and  C_19
REMARK    2  A    between atoms: O_3  and  C_24
REMARK    3  A    between atoms: O_4  and  C_29
REMARK    4  A    between atoms: C_11  and  C_16
REMARK    5  A    between atoms: C_17  and  C_19
REMARK    6  A    between atoms: C_20  and  C_21
REMARK    7  A    between atoms: C_24  and  C_29
REMARK    8  A    between atoms: C_25  and  C_28
REMARK                            x       y       z     vdW  Elec       q    Type
REMARK                         _______ _______ _______ _____ _____    ______ ____
ROOT
ATOM      2  O   UNL     1      -3.482  -9.879  16.428  0.00  0.00    -0.273 OA
ATOM      6  N   UNL     1      -3.675 -11.742  15.041  0.00  0.00    -0.282 N 
ATOM      7  N   UNL     1      -3.775 -15.301  13.924  0.00  0.00    -0.347 N 
ATOM      8  N   UNL     1      -1.573 -15.047  13.642  0.00  0.00    -0.240 NA
ATOM     11  C   UNL     1      -2.434 -11.395  14.266  0.00  0.00    +0.171 C 
ATOM     12  C   UNL     1      -1.430 -12.588  14.235  0.00  0.00    +0.089 C 
ATOM     13  C   UNL     1      -4.448 -12.941  14.612  0.00  0.00    +0.163 C 
ATOM     14  C   UNL     1      -2.145 -13.867  14.027  0.00  0.00    +0.066 A 
ATOM     15  C   UNL     1      -3.500 -13.997  14.210  0.00  0.00    +0.056 A 
ATOM     17  C   UNL     1      -4.105 -10.877  16.055  0.00  0.00    +0.242 C 
ATOM     18  C   UNL     1      -2.583 -15.892  13.588  0.00  0.00    +0.197 A 
ATOM     30  H   UNL     1      -4.681 -15.750  13.951  0.00  0.00    +0.167 HD
ENDROOT
BRANCH  11  16
ATOM      1  O   UNL     1      -1.763 -10.310  12.169  0.00  0.00    -0.336 OA
ATOM      9  N   UNL     1      -3.973 -10.622  12.364  0.00  0.00    -0.190 NA
ATOM     10  N   UNL     1      -2.335  -9.796  10.997  0.00  0.00    -0.056 NA
ATOM     16  C   UNL     1      -2.797 -10.775  12.918  0.00  0.00    +0.249 A 
ATOM     20  C   UNL     1      -3.639 -10.016  11.187  0.00  0.00    +0.202 A 
BRANCH  20  21
ATOM     21  C   UNL     1      -4.633  -9.647  10.222  0.00  0.00    +0.022 A 
ATOM     22  C   UNL     1      -5.775  -8.953  10.626  0.00  0.00    +0.012 A 
ATOM     23  C   UNL     1      -4.458  -9.978   8.879  0.00  0.00    +0.012 A 
ATOM     25  C   UNL     1      -6.566  -8.926   8.344  0.00  0.00    -0.050 A 
ATOM     26  C   UNL     1      -6.741  -8.593   9.688  0.00  0.00    +0.004 A 
ATOM     27  C   UNL     1      -5.425  -9.618   7.940  0.00  0.00    +0.004 A 
ATOM     28  C   UNL     1      -7.599  -8.540   7.340  0.00  0.00    +0.044 C 
ENDBRANCH  20  21
ENDBRANCH  11  16
BRANCH  17  19
ATOM     19  C   UNL     1      -5.418 -11.215  16.719  0.00  0.00    +0.256 C 
BRANCH  19   3
ATOM      3  O   UNL     1      -5.311 -10.795  18.056  0.00  0.00    -0.359 OA
BRANCH   3  24
ATOM     24  C   UNL     1      -5.477 -11.876  18.973  0.00  0.00    +0.280 C 
BRANCH  24  29
ATOM      5  O   UNL     1      -3.238 -12.158  19.875  0.00  0.00    -0.248 OA
ATOM     29  C   UNL     1      -4.161 -12.570  19.186  0.00  0.00    +0.331 C 
BRANCH  29   4
ATOM      4  O   UNL     1      -4.131 -13.740  18.500  0.00  0.00    -0.479 OA
ATOM     31  H   UNL     1      -5.025 -14.012  18.202  0.00  0.00    +0.295 HD
ENDBRANCH  29   4
ENDBRANCH  24  29
ENDBRANCH   3  24
ENDBRANCH  19   3
ENDBRANCH  17  19
TORSDOF 7
ENDMDL
