REMARK  Name = 25390395
REMARK  14 active torsions:
REMARK  status: ('A' for Active; 'I' for Inactive)
REMARK    1  A    between atoms: O_2  and  C_10
REMARK    2  A    between atoms: O_3  and  C_11
REMARK    3  A    between atoms: N_6  and  C_15
REMARK    4  A    between atoms: N_7  and  C_18
REMARK    5  A    between atoms: N_8  and  C_20
REMARK    6  A    between atoms: N_9  and  C_19
REMARK    7  A    between atoms: N_9  and  C_23
REMARK    8  A    between atoms: N_9  and  C_24
REMARK    9  A    between atoms: C_12  and  C_14
REMARK   10  A    between atoms: C_13  and  C_15
REMARK   11  A    between atoms: C_14  and  C_16
REMARK   12  A    between atoms: C_18  and  C_19
REMARK   13  A    between atoms: C_20  and  C_21
REMARK   14  A    between atoms: C_20  and  C_22
REMARK                            x       y       z     vdW  Elec       q    Type
REMARK                         _______ _______ _______ _____ _____    ______ ____
ROOT
ATOM      1  O   UNL     1       1.923   0.055  -0.587  0.00  0.00    -0.366 OA
ATOM     10  C   UNL     1       3.595   1.184   0.632  0.00  0.00    +0.175 C 
ATOM     11  C   UNL     1       4.260   0.069  -0.147  0.00  0.00    +0.176 C 
ATOM     12  C   UNL     1       2.303   1.370  -0.145  0.00  0.00    +0.158 C 
ATOM     13  C   UNL     1       3.074  -0.817  -0.509  0.00  0.00    +0.167 C 
ENDROOT
BRANCH  10   2
ATOM      2  O   UNL     1       4.361   2.369   0.678  0.00  0.00    -0.387 OA
ATOM     25  H   UNL     1       5.217   2.147   1.083  0.00  0.00    +0.210 HD
ENDBRANCH  10   2
BRANCH  11   3
ATOM      3  O   UNL     1       4.820   0.577  -1.358  0.00  0.00    -0.387 OA
ATOM     26  H   UNL     1       5.201  -0.177  -1.840  0.00  0.00    +0.210 HD
ENDBRANCH  11   3
BRANCH  12  14
ATOM     14  C   UNL     1       1.183   1.974   0.684  0.00  0.00    +0.130 C 
BRANCH  14  16
ATOM      4  O   UNL     1      -0.247   1.704  -1.248  0.00  0.00    -0.276 OA
ATOM      7  N   UNL     1      -1.140   2.585   0.708  0.00  0.00    -0.314 N 
ATOM     16  C   UNL     1      -0.126   2.059  -0.079  0.00  0.00    +0.216 C 
ATOM     28  H   UNL     1      -0.939   2.842   1.670  0.00  0.00    +0.149 HD
BRANCH   7  18
ATOM     18  C   UNL     1      -2.490   2.778   0.230  0.00  0.00    +0.119 C 
BRANCH  18  19
ATOM     19  C   UNL     1      -3.345   1.544   0.481  0.00  0.00    +0.102 C 
BRANCH  19   9
ATOM      9  N   UNL     1      -4.708   1.770   0.018  0.00  0.00    -0.307 NA
ATOM     23  C   UNL     1      -5.638   0.855   0.683  0.00  0.00    +0.104 C 
ATOM     24  C   UNL     1      -4.793   1.612  -1.435  0.00  0.00    +0.104 C 
ENDBRANCH  19   9
ENDBRANCH  18  19
ENDBRANCH   7  18
ENDBRANCH  14  16
ENDBRANCH  12  14
BRANCH  13  15
ATOM     15  C   UNL     1       2.782  -1.881   0.540  0.00  0.00    +0.140 C 
BRANCH  15   6
ATOM      5  O   UNL     1      -0.000  -1.376   1.118  0.00  0.00    -0.253 OA
ATOM      6  N   UNL     1       1.625  -2.689   0.113  0.00  0.00    -0.297 N 
ATOM      8  N   UNL     1      -0.559  -3.281  -0.083  0.00  0.00    -0.297 N 
ATOM     17  C   UNL     1       0.333  -2.353   0.448  0.00  0.00    +0.300 C 
ATOM     27  H   UNL     1       1.796  -3.513  -0.455  0.00  0.00    +0.150 HD
ATOM     29  H   UNL     1      -0.195  -4.011  -0.687  0.00  0.00    +0.150 HD
BRANCH   8  20
ATOM     20  C   UNL     1      -1.988  -3.189   0.104  0.00  0.00    +0.068 C 
ATOM     21  C   UNL     1      -2.607  -4.580   0.146  0.00  0.00    +0.027 C 
ATOM     22  C   UNL     1      -2.617  -2.338  -0.992  0.00  0.00    +0.027 C 
ENDBRANCH   8  20
ENDBRANCH  15   6
ENDBRANCH  13  15
TORSDOF 10
