MODEL 1
REMARK VINA RESULT:      -7.6      0.000      0.000
REMARK  Name = 51136915
REMARK  4 active torsions:
REMARK  status: ('A' for Active; 'I' for Inactive)
REMARK    1  A    between atoms: N_3  and  C_9
REMARK    2  A    between atoms: C_10  and  C_18
REMARK    3  A    between atoms: C_19  and  C_20
REMARK    4  A    between atoms: C_24  and  C_25
REMARK                            x       y       z     vdW  Elec       q    Type
REMARK                         _______ _______ _______ _____ _____    ______ ____
ROOT
ATOM      2  O   UNL     1      16.070   8.621  20.190  0.00  0.00    -0.336 OA
ATOM      4  N   UNL     1      16.516   6.463  19.792  0.00  0.00    -0.190 NA
ATOM      5  N   UNL     1      17.335   8.376  20.742  0.00  0.00    -0.056 NA
ATOM     18  C   UNL     1      15.659   7.444  19.652  0.00  0.00    +0.245 A 
ATOM     19  C   UNL     1      17.527   7.082  20.466  0.00  0.00    +0.204 A 
ENDROOT
BRANCH  19  20
ATOM      6  N   UNL     1      20.467   6.018  22.479  0.00  0.00    -0.254 NA
ATOM     20  C   UNL     1      18.717   6.380  20.850  0.00  0.00    +0.041 A 
ATOM     21  C   UNL     1      19.276   5.412  20.023  0.00  0.00    +0.015 A 
ATOM     22  C   UNL     1      19.344   6.643  22.057  0.00  0.00    +0.123 A 
ATOM     23  C   UNL     1      20.430   4.747  20.422  0.00  0.00    +0.029 A 
ATOM     24  C   UNL     1      20.982   5.084  21.647  0.00  0.00    +0.074 A 
BRANCH  24  25
ATOM      7  N   UNL     1      23.816   4.101  23.858  0.00  0.00    -0.243 NA
ATOM      8  N   UNL     1      24.000   2.899  21.778  0.00  0.00    -0.243 NA
ATOM     25  C   UNL     1      22.178   4.434  22.127  0.00  0.00    +0.037 A 
ATOM     26  C   UNL     1      22.700   4.687  23.379  0.00  0.00    +0.124 A 
ATOM     27  C   UNL     1      22.878   3.522  21.362  0.00  0.00    +0.124 A 
ATOM     28  C   UNL     1      24.407   3.230  23.018  0.00  0.00    +0.221 A 
ENDBRANCH  24  25
ENDBRANCH  19  20
BRANCH  18  10
ATOM      3  N   UNL     1      13.391   8.463  19.549  0.00  0.00    -0.288 NA
ATOM     10  C   UNL     1      14.301   7.446  18.983  0.00  0.00    +0.146 C 
ATOM     11  C   UNL     1      12.487   8.856  18.468  0.00  0.00    +0.085 C 
ATOM     12  C   UNL     1      14.378   7.783  17.482  0.00  0.00    +0.030 C 
ATOM     13  C   UNL     1      13.435   8.961  17.289  0.00  0.00    +0.017 C 
BRANCH   3   9
ATOM      1  O   UNL     1      10.179   7.189  21.934  0.00  0.00    -0.380 OA
ATOM      9  C   UNL     1      12.667   7.995  20.728  0.00  0.00    +0.062 C 
ATOM     14  C   UNL     1      12.042   6.618  20.481  0.00  0.00    +0.047 C 
ATOM     15  C   UNL     1      11.580   9.001  21.118  0.00  0.00    +0.047 C 
ATOM     16  C   UNL     1      11.180   6.206  21.670  0.00  0.00    +0.161 C 
ATOM     17  C   UNL     1      10.743   8.457  22.271  0.00  0.00    +0.161 C 
ENDBRANCH   3   9
ENDBRANCH  18  10
TORSDOF 4
ENDMDL
MODEL 2
REMARK VINA RESULT:      -7.5      1.829      3.227
REMARK  Name = 51136915
REMARK  4 active torsions:
REMARK  status: ('A' for Active; 'I' for Inactive)
REMARK    1  A    between atoms: N_3  and  C_9
REMARK    2  A    between atoms: C_10  and  C_18
REMARK    3  A    between atoms: C_19  and  C_20
REMARK    4  A    between atoms: C_24  and  C_25
REMARK                            x       y       z     vdW  Elec       q    Type
REMARK                         _______ _______ _______ _____ _____    ______ ____
ROOT
ATOM      2  O   UNL     1      15.689   9.545  21.469  0.00  0.00    -0.336 OA
ATOM      4  N   UNL     1      15.772   7.472  20.627  0.00  0.00    -0.190 NA
ATOM      5  N   UNL     1      17.025   9.135  21.575  0.00  0.00    -0.056 NA
ATOM     18  C   UNL     1      15.020   8.508  20.901  0.00  0.00    +0.245 A 
ATOM     19  C   UNL     1      16.993   7.903  21.058  0.00  0.00    +0.204 A 
ENDROOT
BRANCH  19  20
ATOM      6  N   UNL     1      20.399   6.564  21.716  0.00  0.00    -0.254 NA
ATOM     20  C   UNL     1      18.161   7.077  20.958  0.00  0.00    +0.041 A 
ATOM     21  C   UNL     1      18.218   6.023  20.053  0.00  0.00    +0.015 A 
ATOM     22  C   UNL     1      19.267   7.304  21.760  0.00  0.00    +0.123 A 
ATOM     23  C   UNL     1      19.364   5.239  19.979  0.00  0.00    +0.029 A 
ATOM     24  C   UNL     1      20.417   5.549  20.824  0.00  0.00    +0.074 A 
BRANCH  24  25
ATOM      7  N   UNL     1      24.001   4.632  20.375  0.00  0.00    -0.243 NA
ATOM      8  N   UNL     1      22.796   2.698  21.160  0.00  0.00    -0.243 NA
ATOM     25  C   UNL     1      21.638   4.778  20.803  0.00  0.00    +0.037 A 
ATOM     26  C   UNL     1      22.843   5.322  20.410  0.00  0.00    +0.124 A 
ATOM     27  C   UNL     1      21.675   3.448  21.171  0.00  0.00    +0.124 A 
ATOM     28  C   UNL     1      23.908   3.344  20.758  0.00  0.00    +0.221 A 
ENDBRANCH  24  25
ENDBRANCH  19  20
BRANCH  18  10
ATOM      3  N   UNL     1      13.029   7.928  19.526  0.00  0.00    -0.288 NA
ATOM     10  C   UNL     1      13.537   8.706  20.675  0.00  0.00    +0.146 C 
ATOM     11  C   UNL     1      11.628   7.624  19.820  0.00  0.00    +0.085 C 
ATOM     12  C   UNL     1      12.685   8.239  21.870  0.00  0.00    +0.030 C 
ATOM     13  C   UNL     1      11.690   7.247  21.287  0.00  0.00    +0.017 C 
BRANCH   3   9
ATOM      1  O   UNL     1      12.953   8.576  15.379  0.00  0.00    -0.380 OA
ATOM      9  C   UNL     1      13.185   8.619  18.249  0.00  0.00    +0.062 C 
ATOM     14  C   UNL     1      11.839   8.762  17.531  0.00  0.00    +0.047 C 
ATOM     15  C   UNL     1      14.177   7.868  17.356  0.00  0.00    +0.047 C 
ATOM     16  C   UNL     1      12.039   9.363  16.144  0.00  0.00    +0.161 C 
ATOM     17  C   UNL     1      14.247   8.517  15.979  0.00  0.00    +0.161 C 
ENDBRANCH   3   9
ENDBRANCH  18  10
TORSDOF 4
ENDMDL
MODEL 3
REMARK VINA RESULT:      -7.2      1.667      1.952
REMARK  Name = 51136915
REMARK  4 active torsions:
REMARK  status: ('A' for Active; 'I' for Inactive)
REMARK    1  A    between atoms: N_3  and  C_9
REMARK    2  A    between atoms: C_10  and  C_18
REMARK    3  A    between atoms: C_19  and  C_20
REMARK    4  A    between atoms: C_24  and  C_25
REMARK                            x       y       z     vdW  Elec       q    Type
REMARK                         _______ _______ _______ _____ _____    ______ ____
ROOT
ATOM      2  O   UNL     1      15.818   6.002  18.282  0.00  0.00    -0.336 OA
ATOM      4  N   UNL     1      16.232   7.434  19.954  0.00  0.00    -0.190 NA
ATOM      5  N   UNL     1      17.070   5.646  18.799  0.00  0.00    -0.056 NA
ATOM     18  C   UNL     1      15.394   7.063  19.018  0.00  0.00    +0.245 A 
ATOM     19  C   UNL     1      17.244   6.536  19.781  0.00  0.00    +0.204 A 
ENDROOT
BRANCH  19  20
ATOM      6  N   UNL     1      20.576   5.611  21.150  0.00  0.00    -0.254 NA
ATOM     20  C   UNL     1      18.417   6.555  20.606  0.00  0.00    +0.041 A 
ATOM     21  C   UNL     1      18.559   7.487  21.628  0.00  0.00    +0.015 A 
ATOM     22  C   UNL     1      19.445   5.648  20.409  0.00  0.00    +0.123 A 
ATOM     23  C   UNL     1      19.708   7.482  22.411  0.00  0.00    +0.029 A 
ATOM     24  C   UNL     1      20.677   6.532  22.135  0.00  0.00    +0.074 A 
BRANCH  24  25
ATOM      7  N   UNL     1      23.007   6.270  25.031  0.00  0.00    -0.243 NA
ATOM      8  N   UNL     1      24.301   6.491  23.010  0.00  0.00    -0.243 NA
ATOM     25  C   UNL     1      21.896   6.468  22.906  0.00  0.00    +0.037 A 
ATOM     26  C   UNL     1      21.889   6.330  24.279  0.00  0.00    +0.124 A 
ATOM     27  C   UNL     1      23.143   6.545  22.320  0.00  0.00    +0.124 A 
ATOM     28  C   UNL     1      24.162   6.355  24.343  0.00  0.00    +0.221 A 
ENDBRANCH  24  25
ENDBRANCH  19  20
BRANCH  18  10
ATOM      3  N   UNL     1      13.569   8.638  19.633  0.00  0.00    -0.288 NA
ATOM     10  C   UNL     1      14.044   7.642  18.652  0.00  0.00    +0.146 C 
ATOM     11  C   UNL     1      12.727   9.579  18.892  0.00  0.00    +0.085 C 
ATOM     12  C   UNL     1      14.064   8.394  17.309  0.00  0.00    +0.030 C 
ATOM     13  C   UNL     1      13.529   9.784  17.622  0.00  0.00    +0.017 C 
BRANCH   3   9
ATOM      1  O   UNL     1      10.378   7.203  21.954  0.00  0.00    -0.380 OA
ATOM      9  C   UNL     1      12.863   8.042  20.764  0.00  0.00    +0.062 C 
ATOM     14  C   UNL     1      12.147   6.752  20.349  0.00  0.00    +0.047 C 
ATOM     15  C   UNL     1      11.854   9.037  21.345  0.00  0.00    +0.047 C 
ATOM     16  C   UNL     1      11.308   6.217  21.504  0.00  0.00    +0.161 C 
ATOM     17  C   UNL     1      11.030   8.376  22.444  0.00  0.00    +0.161 C 
ENDBRANCH   3   9
ENDBRANCH  18  10
TORSDOF 4
ENDMDL
MODEL 4
REMARK VINA RESULT:      -7.1      3.190     10.118
REMARK  Name = 51136915
REMARK  4 active torsions:
REMARK  status: ('A' for Active; 'I' for Inactive)
REMARK    1  A    between atoms: N_3  and  C_9
REMARK    2  A    between atoms: C_10  and  C_18
REMARK    3  A    between atoms: C_19  and  C_20
REMARK    4  A    between atoms: C_24  and  C_25
REMARK                            x       y       z     vdW  Elec       q    Type
REMARK                         _______ _______ _______ _____ _____    ______ ____
ROOT
ATOM      2  O   UNL     1      21.313   6.140  22.946  0.00  0.00    -0.336 OA
ATOM      4  N   UNL     1      20.987   6.592  20.778  0.00  0.00    -0.190 NA
ATOM      5  N   UNL     1      19.925   6.172  22.760  0.00  0.00    -0.056 NA
ATOM     18  C   UNL     1      21.863   6.398  21.731  0.00  0.00    +0.245 A 
ATOM     19  C   UNL     1      19.812   6.444  21.456  0.00  0.00    +0.204 A 
ENDROOT
BRANCH  19  20
ATOM      6  N   UNL     1      16.386   7.661  20.676  0.00  0.00    -0.254 NA
ATOM     20  C   UNL     1      18.543   6.574  20.802  0.00  0.00    +0.041 A 
ATOM     21  C   UNL     1      18.220   5.790  19.700  0.00  0.00    +0.015 A 
ATOM     22  C   UNL     1      17.600   7.487  21.246  0.00  0.00    +0.123 A 
ATOM     23  C   UNL     1      16.982   5.939  19.087  0.00  0.00    +0.029 A 
ATOM     24  C   UNL     1      16.108   6.879  19.608  0.00  0.00    +0.074 A 
BRANCH  24  25
ATOM      7  N   UNL     1      13.448   7.716  17.137  0.00  0.00    -0.243 NA
ATOM      8  N   UNL     1      12.406   7.076  19.214  0.00  0.00    -0.243 NA
ATOM     25  C   UNL     1      14.806   7.088  19.021  0.00  0.00    +0.037 A 
ATOM     26  C   UNL     1      14.647   7.507  17.717  0.00  0.00    +0.124 A 
ATOM     27  C   UNL     1      13.638   6.887  19.730  0.00  0.00    +0.124 A 
ATOM     28  C   UNL     1      12.384   7.484  17.930  0.00  0.00    +0.221 A 
ENDBRANCH  24  25
ENDBRANCH  19  20
BRANCH  18  10
ATOM      3  N   UNL     1      23.918   5.380  20.766  0.00  0.00    -0.288 NA
ATOM     10  C   UNL     1      23.375   6.418  21.666  0.00  0.00    +0.146 C 
ATOM     11  C   UNL     1      25.179   5.906  20.241  0.00  0.00    +0.085 C 
ATOM     12  C   UNL     1      23.928   7.744  21.111  0.00  0.00    +0.030 C 
ATOM     13  C   UNL     1      24.817   7.347  19.941  0.00  0.00    +0.017 C 
BRANCH   3   9
ATOM      1  O   UNL     1      25.529   1.598  21.619  0.00  0.00    -0.380 OA
ATOM      9  C   UNL     1      24.092   4.086  21.420  0.00  0.00    +0.062 C 
ATOM     14  C   UNL     1      25.470   3.983  22.082  0.00  0.00    +0.047 C 
ATOM     15  C   UNL     1      23.912   2.950  20.407  0.00  0.00    +0.047 C 
ATOM     16  C   UNL     1      25.687   2.581  22.642  0.00  0.00    +0.161 C 
ATOM     17  C   UNL     1      24.215   1.606  21.059  0.00  0.00    +0.161 C 
ENDBRANCH   3   9
ENDBRANCH  18  10
TORSDOF 4
ENDMDL
MODEL 5
REMARK VINA RESULT:      -7.1      3.203     10.359
REMARK  Name = 51136915
REMARK  4 active torsions:
REMARK  status: ('A' for Active; 'I' for Inactive)
REMARK    1  A    between atoms: N_3  and  C_9
REMARK    2  A    between atoms: C_10  and  C_18
REMARK    3  A    between atoms: C_19  and  C_20
REMARK    4  A    between atoms: C_24  and  C_25
REMARK                            x       y       z     vdW  Elec       q    Type
REMARK                         _______ _______ _______ _____ _____    ______ ____
ROOT
ATOM      2  O   UNL     1      21.450   5.845  22.091  0.00  0.00    -0.336 OA
ATOM      4  N   UNL     1      20.417   4.951  20.316  0.00  0.00    -0.190 NA
ATOM      5  N   UNL     1      20.203   6.478  22.006  0.00  0.00    -0.056 NA
ATOM     18  C   UNL     1      21.494   4.962  21.059  0.00  0.00    +0.245 A 
ATOM     19  C   UNL     1      19.653   5.897  20.935  0.00  0.00    +0.204 A 
ENDROOT
BRANCH  19  20
ATOM      6  N   UNL     1      16.611   5.953  18.797  0.00  0.00    -0.254 NA
ATOM     20  C   UNL     1      18.344   6.240  20.458  0.00  0.00    +0.041 A 
ATOM     21  C   UNL     1      17.547   7.149  21.144  0.00  0.00    +0.015 A 
ATOM     22  C   UNL     1      17.835   5.674  19.302  0.00  0.00    +0.123 A 
ATOM     23  C   UNL     1      16.283   7.461  20.658  0.00  0.00    +0.029 A 
ATOM     24  C   UNL     1      15.865   6.843  19.491  0.00  0.00    +0.074 A 
BRANCH  24  25
ATOM      7  N   UNL     1      12.170   7.194  19.158  0.00  0.00    -0.243 NA
ATOM      8  N   UNL     1      13.203   7.827  17.075  0.00  0.00    -0.243 NA
ATOM     25  C   UNL     1      14.565   7.118  18.929  0.00  0.00    +0.037 A 
ATOM     26  C   UNL     1      13.402   6.950  19.652  0.00  0.00    +0.124 A 
ATOM     27  C   UNL     1      14.403   7.563  17.632  0.00  0.00    +0.124 A 
ATOM     28  C   UNL     1      12.144   7.624  17.882  0.00  0.00    +0.221 A 
ENDBRANCH  24  25
ENDBRANCH  19  20
BRANCH  18  10
ATOM      3  N   UNL     1      23.958   4.866  21.394  0.00  0.00    -0.288 NA
ATOM     10  C   UNL     1      22.759   4.139  20.931  0.00  0.00    +0.146 C 
ATOM     11  C   UNL     1      24.892   3.851  21.885  0.00  0.00    +0.085 C 
ATOM     12  C   UNL     1      22.724   2.858  21.785  0.00  0.00    +0.030 C 
ATOM     13  C   UNL     1      23.972   2.923  22.653  0.00  0.00    +0.017 C 
BRANCH   3   9
ATOM      1  O   UNL     1      26.831   7.187  19.397  0.00  0.00    -0.380 OA
ATOM      9  C   UNL     1      24.556   5.708  20.361  0.00  0.00    +0.062 C 
ATOM     14  C   UNL     1      25.771   5.025  19.726  0.00  0.00    +0.047 C 
ATOM     15  C   UNL     1      24.965   7.062  20.950  0.00  0.00    +0.047 C 
ATOM     16  C   UNL     1      26.460   5.970  18.748  0.00  0.00    +0.161 C 
ATOM     17  C   UNL     1      25.699   7.894  19.906  0.00  0.00    +0.161 C 
ENDBRANCH   3   9
ENDBRANCH  18  10
TORSDOF 4
ENDMDL
MODEL 6
REMARK VINA RESULT:      -6.8     30.219     32.378
REMARK  Name = 51136915
REMARK  4 active torsions:
REMARK  status: ('A' for Active; 'I' for Inactive)
REMARK    1  A    between atoms: N_3  and  C_9
REMARK    2  A    between atoms: C_10  and  C_18
REMARK    3  A    between atoms: C_19  and  C_20
REMARK    4  A    between atoms: C_24  and  C_25
REMARK                            x       y       z     vdW  Elec       q    Type
REMARK                         _______ _______ _______ _____ _____    ______ ____
ROOT
ATOM      2  O   UNL     1     -14.189  -5.572  14.288  0.00  0.00    -0.336 OA
ATOM      4  N   UNL     1     -11.952  -5.639  14.198  0.00  0.00    -0.190 NA
ATOM      5  N   UNL     1     -13.790  -6.543  15.216  0.00  0.00    -0.056 NA
ATOM     18  C   UNL     1     -13.046  -5.090  13.733  0.00  0.00    +0.245 A 
ATOM     19  C   UNL     1     -12.458  -6.523  15.105  0.00  0.00    +0.204 A 
ENDROOT
BRANCH  19  20
ATOM      6  N   UNL     1      -9.368  -8.065  16.485  0.00  0.00    -0.254 NA
ATOM     20  C   UNL     1     -11.606  -7.374  15.884  0.00  0.00    +0.041 A 
ATOM     21  C   UNL     1     -12.139  -8.306  16.768  0.00  0.00    +0.015 A 
ATOM     22  C   UNL     1     -10.228  -7.293  15.781  0.00  0.00    +0.123 A 
ATOM     23  C   UNL     1     -11.288  -9.118  17.510  0.00  0.00    +0.029 A 
ATOM     24  C   UNL     1      -9.924  -8.960  17.333  0.00  0.00    +0.074 A 
BRANCH  24  25
ATOM      7  N   UNL     1      -8.525 -11.389  19.788  0.00  0.00    -0.243 NA
ATOM      8  N   UNL     1      -6.716 -10.469  18.488  0.00  0.00    -0.243 NA
ATOM     25  C   UNL     1      -8.981  -9.767  18.070  0.00  0.00    +0.037 A 
ATOM     26  C   UNL     1      -9.377 -10.623  19.077  0.00  0.00    +0.124 A 
ATOM     27  C   UNL     1      -7.625  -9.731  17.817  0.00  0.00    +0.124 A 
ATOM     28  C   UNL     1      -7.228 -11.265  19.446  0.00  0.00    +0.221 A 
ENDBRANCH  24  25
ENDBRANCH  19  20
BRANCH  18  10
ATOM      3  N   UNL     1     -13.295  -4.560  11.314  0.00  0.00    -0.288 NA
ATOM     10  C   UNL     1     -13.210  -4.012  12.683  0.00  0.00    +0.146 C 
ATOM     11  C   UNL     1     -14.115  -3.624  10.544  0.00  0.00    +0.085 C 
ATOM     12  C   UNL     1     -14.507  -3.201  12.861  0.00  0.00    +0.030 C 
ATOM     13  C   UNL     1     -15.226  -3.301  11.524  0.00  0.00    +0.017 C 
BRANCH   3   9
ATOM      1  O   UNL     1     -10.428  -5.241   8.324  0.00  0.00    -0.380 OA
ATOM      9  C   UNL     1     -11.989  -4.780  10.700  0.00  0.00    +0.062 C 
ATOM     14  C   UNL     1     -11.650  -3.661   9.709  0.00  0.00    +0.047 C 
ATOM     15  C   UNL     1     -11.957  -6.136   9.989  0.00  0.00    +0.047 C 
ATOM     16  C   UNL     1     -10.348  -3.975   8.980  0.00  0.00    +0.161 C 
ATOM     17  C   UNL     1     -10.639  -6.313   9.243  0.00  0.00    +0.161 C 
ENDBRANCH   3   9
ENDBRANCH  18  10
TORSDOF 4
ENDMDL
MODEL 7
REMARK VINA RESULT:      -6.8     29.612     33.337
REMARK  Name = 51136915
REMARK  4 active torsions:
REMARK  status: ('A' for Active; 'I' for Inactive)
REMARK    1  A    between atoms: N_3  and  C_9
REMARK    2  A    between atoms: C_10  and  C_18
REMARK    3  A    between atoms: C_19  and  C_20
REMARK    4  A    between atoms: C_24  and  C_25
REMARK                            x       y       z     vdW  Elec       q    Type
REMARK                         _______ _______ _______ _____ _____    ______ ____
ROOT
ATOM      2  O   UNL     1     -16.982   1.764  25.162  0.00  0.00    -0.336 OA
ATOM      4  N   UNL     1     -16.177   3.801  25.627  0.00  0.00    -0.190 NA
ATOM      5  N   UNL     1     -16.451   2.256  23.962  0.00  0.00    -0.056 NA
ATOM     18  C   UNL     1     -16.780   2.735  26.090  0.00  0.00    +0.245 A 
ATOM     19  C   UNL     1     -15.994   3.461  24.318  0.00  0.00    +0.204 A 
ENDROOT
BRANCH  19  20
ATOM      6  N   UNL     1     -13.329   5.424  22.624  0.00  0.00    -0.254 NA
ATOM     20  C   UNL     1     -15.354   4.348  23.391  0.00  0.00    +0.041 A 
ATOM     21  C   UNL     1     -16.079   4.982  22.388  0.00  0.00    +0.015 A 
ATOM     22  C   UNL     1     -13.994   4.599  23.465  0.00  0.00    +0.123 A 
ATOM     23  C   UNL     1     -15.431   5.836  21.504  0.00  0.00    +0.029 A 
ATOM     24  C   UNL     1     -14.068   6.023  21.663  0.00  0.00    +0.074 A 
BRANCH  24  25
ATOM      7  N   UNL     1     -13.296   8.506  18.993  0.00  0.00    -0.243 NA
ATOM      8  N   UNL     1     -11.232   7.796  20.015  0.00  0.00    -0.243 NA
ATOM     25  C   UNL     1     -13.330   6.895  20.781  0.00  0.00    +0.037 A 
ATOM     26  C   UNL     1     -13.953   7.682  19.835  0.00  0.00    +0.124 A 
ATOM     27  C   UNL     1     -11.954   6.993  20.826  0.00  0.00    +0.124 A 
ATOM     28  C   UNL     1     -11.957   8.514  19.136  0.00  0.00    +0.221 A 
ENDBRANCH  24  25
ENDBRANCH  19  20
BRANCH  18  10
ATOM      3  N   UNL     1     -16.572   3.241  28.517  0.00  0.00    -0.288 NA
ATOM     10  C   UNL     1     -17.272   2.442  27.491  0.00  0.00    +0.146 C 
ATOM     11  C   UNL     1     -17.522   3.426  29.616  0.00  0.00    +0.085 C 
ATOM     12  C   UNL     1     -18.762   2.780  27.681  0.00  0.00    +0.030 C 
ATOM     13  C   UNL     1     -18.808   3.727  28.871  0.00  0.00    +0.017 C 
BRANCH   3   9
ATOM      1  O   UNL     1     -13.811   1.377  31.071  0.00  0.00    -0.380 OA
ATOM      9  C   UNL     1     -15.323   2.634  28.968  0.00  0.00    +0.062 C 
ATOM     14  C   UNL     1     -15.534   1.171  29.370  0.00  0.00    +0.047 C 
ATOM     15  C   UNL     1     -14.743   3.423  30.146  0.00  0.00    +0.047 C 
ATOM     16  C   UNL     1     -14.253   0.593  29.962  0.00  0.00    +0.161 C 
ATOM     17  C   UNL     1     -13.506   2.721  30.696  0.00  0.00    +0.161 C 
ENDBRANCH   3   9
ENDBRANCH  18  10
TORSDOF 4
ENDMDL
MODEL 8
REMARK VINA RESULT:      -6.6     28.454     32.702
REMARK  Name = 51136915
REMARK  4 active torsions:
REMARK  status: ('A' for Active; 'I' for Inactive)
REMARK    1  A    between atoms: N_3  and  C_9
REMARK    2  A    between atoms: C_10  and  C_18
REMARK    3  A    between atoms: C_19  and  C_20
REMARK    4  A    between atoms: C_24  and  C_25
REMARK                            x       y       z     vdW  Elec       q    Type
REMARK                         _______ _______ _______ _____ _____    ______ ____
ROOT
ATOM      2  O   UNL     1     -16.821   3.849  23.223  0.00  0.00    -0.336 OA
ATOM      4  N   UNL     1     -15.777   5.766  23.723  0.00  0.00    -0.190 NA
ATOM      5  N   UNL     1     -15.986   4.132  22.135  0.00  0.00    -0.056 NA
ATOM     18  C   UNL     1     -16.638   4.860  24.112  0.00  0.00    +0.245 A 
ATOM     19  C   UNL     1     -15.403   5.277  22.505  0.00  0.00    +0.204 A 
ENDROOT
BRANCH  19  20
ATOM      6  N   UNL     1     -14.005   7.462  19.840  0.00  0.00    -0.254 NA
ATOM     20  C   UNL     1     -14.447   5.958  21.681  0.00  0.00    +0.041 A 
ATOM     21  C   UNL     1     -13.081   5.803  21.892  0.00  0.00    +0.015 A 
ATOM     22  C   UNL     1     -14.854   6.791  20.652  0.00  0.00    +0.123 A 
ATOM     23  C   UNL     1     -12.177   6.476  21.077  0.00  0.00    +0.029 A 
ATOM     24  C   UNL     1     -12.685   7.285  20.074  0.00  0.00    +0.074 A 
BRANCH  24  25
ATOM      7  N   UNL     1      -9.946   9.507  18.872  0.00  0.00    -0.243 NA
ATOM      8  N   UNL     1     -11.133   8.634  16.965  0.00  0.00    -0.243 NA
ATOM     25  C   UNL     1     -11.806   8.014  19.192  0.00  0.00    +0.037 A 
ATOM     26  C   UNL     1     -10.784   8.810  19.666  0.00  0.00    +0.124 A 
ATOM     27  C   UNL     1     -11.935   7.963  17.818  0.00  0.00    +0.124 A 
ATOM     28  C   UNL     1     -10.173   9.375  17.551  0.00  0.00    +0.221 A 
ENDBRANCH  24  25
ENDBRANCH  19  20
BRANCH  18  10
ATOM      3  N   UNL     1     -16.615   4.401  26.558  0.00  0.00    -0.288 NA
ATOM     10  C   UNL     1     -17.440   4.784  25.394  0.00  0.00    +0.146 C 
ATOM     11  C   UNL     1     -17.238   5.022  27.728  0.00  0.00    +0.085 C 
ATOM     12  C   UNL     1     -18.065   6.136  25.785  0.00  0.00    +0.030 C 
ATOM     13  C   UNL     1     -17.583   6.402  27.204  0.00  0.00    +0.017 C 
BRANCH   3   9
ATOM      1  O   UNL     1     -17.279   0.528  28.034  0.00  0.00    -0.380 OA
ATOM      9  C   UNL     1     -16.473   2.956  26.713  0.00  0.00    +0.062 C 
ATOM     14  C   UNL     1     -17.782   2.234  26.378  0.00  0.00    +0.047 C 
ATOM     15  C   UNL     1     -16.038   2.615  28.142  0.00  0.00    +0.047 C 
ATOM     16  C   UNL     1     -17.656   0.743  26.674  0.00  0.00    +0.161 C 
ATOM     17  C   UNL     1     -16.009   1.104  28.340  0.00  0.00    +0.161 C 
ENDBRANCH   3   9
ENDBRANCH  18  10
TORSDOF 4
ENDMDL
MODEL 9
REMARK VINA RESULT:      -6.6     29.352     33.079
REMARK  Name = 51136915
REMARK  4 active torsions:
REMARK  status: ('A' for Active; 'I' for Inactive)
REMARK    1  A    between atoms: N_3  and  C_9
REMARK    2  A    between atoms: C_10  and  C_18
REMARK    3  A    between atoms: C_19  and  C_20
REMARK    4  A    between atoms: C_24  and  C_25
REMARK                            x       y       z     vdW  Elec       q    Type
REMARK                         _______ _______ _______ _____ _____    ______ ____
ROOT
ATOM      2  O   UNL     1     -17.172   3.946  25.747  0.00  0.00    -0.336 OA
ATOM      4  N   UNL     1     -15.332   3.205  24.708  0.00  0.00    -0.190 NA
ATOM      5  N   UNL     1     -16.787   4.963  24.864  0.00  0.00    -0.056 NA
ATOM     18  C   UNL     1     -16.263   2.949  25.593  0.00  0.00    +0.245 A 
ATOM     19  C   UNL     1     -15.695   4.451  24.288  0.00  0.00    +0.204 A 
ENDROOT
BRANCH  19  20
ATOM      6  N   UNL     1     -14.814   6.985  21.713  0.00  0.00    -0.254 NA
ATOM     20  C   UNL     1     -14.944   5.158  23.292  0.00  0.00    +0.041 A 
ATOM     21  C   UNL     1     -13.665   4.747  22.932  0.00  0.00    +0.015 A 
ATOM     22  C   UNL     1     -15.468   6.274  22.660  0.00  0.00    +0.123 A 
ATOM     23  C   UNL     1     -12.961   5.452  21.963  0.00  0.00    +0.029 A 
ATOM     24  C   UNL     1     -13.574   6.554  21.389  0.00  0.00    +0.074 A 
BRANCH  24  25
ATOM      7  N   UNL     1     -12.942   8.472  18.257  0.00  0.00    -0.243 NA
ATOM      8  N   UNL     1     -10.923   8.443  19.572  0.00  0.00    -0.243 NA
ATOM     25  C   UNL     1     -12.903   7.334  20.377  0.00  0.00    +0.037 A 
ATOM     26  C   UNL     1     -13.539   7.745  19.224  0.00  0.00    +0.124 A 
ATOM     27  C   UNL     1     -11.581   7.716  20.498  0.00  0.00    +0.124 A 
ATOM     28  C   UNL     1     -11.653   8.782  18.492  0.00  0.00    +0.221 A 
ENDBRANCH  24  25
ENDBRANCH  19  20
BRANCH  18  10
ATOM      3  N   UNL     1     -16.763   2.045  27.857  0.00  0.00    -0.288 NA
ATOM     10  C   UNL     1     -16.462   1.716  26.449  0.00  0.00    +0.146 C 
ATOM     11  C   UNL     1     -17.589   0.952  28.370  0.00  0.00    +0.085 C 
ATOM     12  C   UNL     1     -17.654   0.857  25.985  0.00  0.00    +0.030 C 
ATOM     13  C   UNL     1     -18.539   0.708  27.214  0.00  0.00    +0.017 C 
BRANCH   3   9
ATOM      1  O   UNL     1     -14.334   2.342  31.268  0.00  0.00    -0.380 OA
ATOM      9  C   UNL     1     -15.567   2.256  28.667  0.00  0.00    +0.062 C 
ATOM     14  C   UNL     1     -15.194   0.988  29.442  0.00  0.00    +0.047 C 
ATOM     15  C   UNL     1     -15.781   3.421  29.639  0.00  0.00    +0.047 C 
ATOM     16  C   UNL     1     -14.026   1.265  30.383  0.00  0.00    +0.161 C 
ATOM     17  C   UNL     1     -14.581   3.562  30.569  0.00  0.00    +0.161 C 
ENDBRANCH   3   9
ENDBRANCH  18  10
TORSDOF 4
ENDMDL
MODEL 10
REMARK VINA RESULT:      -6.5     17.307     21.221
REMARK  Name = 51136915
REMARK  4 active torsions:
REMARK  status: ('A' for Active; 'I' for Inactive)
REMARK    1  A    between atoms: N_3  and  C_9
REMARK    2  A    between atoms: C_10  and  C_18
REMARK    3  A    between atoms: C_19  and  C_20
REMARK    4  A    between atoms: C_24  and  C_25
REMARK                            x       y       z     vdW  Elec       q    Type
REMARK                         _______ _______ _______ _____ _____    ______ ____
ROOT
ATOM      2  O   UNL     1      10.348   6.632  -0.660  0.00  0.00    -0.336 OA
ATOM      4  N   UNL     1      10.963   4.925   0.652  0.00  0.00    -0.190 NA
ATOM      5  N   UNL     1       9.945   6.973   0.637  0.00  0.00    -0.056 NA
ATOM     18  C   UNL     1      10.938   5.412  -0.563  0.00  0.00    +0.245 A 
ATOM     19  C   UNL     1      10.343   5.917   1.354  0.00  0.00    +0.204 A 
ENDROOT
BRANCH  19  20
ATOM      6  N   UNL     1      10.488   4.611   4.833  0.00  0.00    -0.254 NA
ATOM     20  C   UNL     1      10.135   5.822   2.770  0.00  0.00    +0.041 A 
ATOM     21  C   UNL     1       9.416   6.795   3.455  0.00  0.00    +0.015 A 
ATOM     22  C   UNL     1      10.647   4.761   3.498  0.00  0.00    +0.123 A 
ATOM     23  C   UNL     1       9.230   6.676   4.828  0.00  0.00    +0.029 A 
ATOM     24  C   UNL     1       9.781   5.576   5.464  0.00  0.00    +0.074 A 
BRANCH  24  25
ATOM      7  N   UNL     1       9.042   6.261   9.052  0.00  0.00    -0.243 NA
ATOM      8  N   UNL     1       9.789   3.980   8.833  0.00  0.00    -0.243 NA
ATOM     25  C   UNL     1       9.630   5.389   6.887  0.00  0.00    +0.037 A 
ATOM     26  C   UNL     1       9.192   6.399   7.718  0.00  0.00    +0.124 A 
ATOM     27  C   UNL     1       9.916   4.188   7.506  0.00  0.00    +0.124 A 
ATOM     28  C   UNL     1       9.353   5.043   9.536  0.00  0.00    +0.221 A 
ENDBRANCH  24  25
ENDBRANCH  19  20
BRANCH  18  10
ATOM      3  N   UNL     1      12.598   3.891  -1.622  0.00  0.00    -0.288 NA
ATOM     10  C   UNL     1      11.468   4.815  -1.849  0.00  0.00    +0.146 C 
ATOM     11  C   UNL     1      12.548   2.905  -2.703  0.00  0.00    +0.085 C 
ATOM     12  C   UNL     1      10.415   3.971  -2.591  0.00  0.00    +0.030 C 
ATOM     13  C   UNL     1      11.064   2.609  -2.789  0.00  0.00    +0.017 C 
BRANCH   3   9
ATOM      1  O   UNL     1      16.761   4.422  -1.737  0.00  0.00    -0.380 OA
ATOM      9  C   UNL     1      13.890   4.567  -1.554  0.00  0.00    +0.062 C 
ATOM     14  C   UNL     1      14.626   4.487  -2.896  0.00  0.00    +0.047 C 
ATOM     15  C   UNL     1      14.754   3.954  -0.447  0.00  0.00    +0.047 C 
ATOM     16  C   UNL     1      16.026   5.079  -2.770  0.00  0.00    +0.161 C 
ATOM     17  C   UNL     1      16.146   4.574  -0.457  0.00  0.00    +0.161 C 
ENDBRANCH   3   9
ENDBRANCH  18  10
TORSDOF 4
ENDMDL
