MODEL 1
REMARK VINA RESULT:      -8.7      0.000      0.000
REMARK  Name = 44716812
REMARK  9 active torsions:
REMARK  status: ('A' for Active; 'I' for Inactive)
REMARK    1  A    between atoms: O_3  and  C_14
REMARK    2  A    between atoms: O_3  and  C_18
REMARK    3  A    between atoms: O_5  and  C_30
REMARK    4  A    between atoms: O_5  and  C_34
REMARK    5  A    between atoms: O_6  and  C_33
REMARK    6  A    between atoms: O_6  and  C_35
REMARK    7  A    between atoms: N_7  and  C_13
REMARK    8  A    between atoms: N_10  and  C_22
REMARK    9  A    between atoms: C_19  and  C_23
REMARK                            x       y       z     vdW  Elec       q    Type
REMARK                         _______ _______ _______ _____ _____    ______ ____
ROOT
ATOM      1  O   UNL     1      -4.506  -9.093  10.185  0.00  0.00    -0.368 OA
ATOM      2  O   UNL     1      -5.865 -11.831  10.446  0.00  0.00    -0.368 OA
ATOM     11  C   UNL     1      -4.509 -11.407  10.703  0.00  0.00    +0.173 C 
ATOM     12  C   UNL     1      -4.164 -10.379   9.644  0.00  0.00    +0.192 C 
ATOM     13  C   UNL     1      -4.446 -10.632  11.998  0.00  0.00    +0.130 C 
ATOM     14  C   UNL     1      -5.074 -10.766   8.503  0.00  0.00    +0.235 C 
ATOM     15  C   UNL     1      -4.874  -9.241  11.565  0.00  0.00    +0.185 C 
ATOM     16  C   UNL     1      -6.319 -11.221   9.230  0.00  0.00    +0.207 C 
ENDROOT
BRANCH  13   7
ATOM      7  N   UNL     1      -3.090 -10.607  12.501  0.00  0.00    -0.306 N 
ATOM      8  N   UNL     1      -3.804 -10.650  14.711  0.00  0.00    -0.214 NA
ATOM      9  N   UNL     1      -1.460 -10.587  14.157  0.00  0.00    -0.223 NA
ATOM     17  C   UNL     1      -2.771 -10.614  13.849  0.00  0.00    +0.216 A 
ATOM     19  C   UNL     1      -3.457 -10.660  16.016  0.00  0.00    +0.076 A 
ATOM     20  C   UNL     1      -1.185 -10.600  15.478  0.00  0.00    +0.116 A 
ATOM     21  C   UNL     1      -2.151 -10.636  16.462  0.00  0.00    +0.048 A 
ATOM     41  H   UNL     1      -2.315 -10.634  11.848  0.00  0.00    +0.149 HD
BRANCH  19  23
ATOM     23  C   UNL     1      -4.562 -10.699  16.944  0.00  0.00    +0.001 A 
ATOM     26  C   UNL     1      -5.768 -10.078  16.620  0.00  0.00    +0.013 A 
ATOM     27  C   UNL     1      -4.423 -11.359  18.165  0.00  0.00    +0.013 A 
ATOM     31  C   UNL     1      -6.836 -10.117  17.516  0.00  0.00    +0.046 A 
ATOM     32  C   UNL     1      -5.491 -11.397  19.061  0.00  0.00    +0.046 A 
ATOM     33  C   UNL     1      -6.697 -10.775  18.737  0.00  0.00    +0.120 A 
BRANCH  33   6
ATOM      6  O   UNL     1      -7.739 -10.813  19.613  0.00  0.00    -0.495 OA
ATOM     35  C   UNL     1      -8.992 -11.274  19.111  0.00  0.00    +0.277 C 
ENDBRANCH  33   6
ENDBRANCH  19  23
ENDBRANCH  13   7
BRANCH  14   3
ATOM      3  O   UNL     1      -5.339  -9.707   7.611  0.00  0.00    -0.442 OA
BRANCH   3  18
ATOM      4  O   UNL     1      -7.427  -9.839   6.688  0.00  0.00    -0.226 OA
ATOM     10  N   UNL     1      -6.918  -8.282   8.361  0.00  0.00    -0.251 N 
ATOM     18  C   UNL     1      -6.655  -9.314   7.481  0.00  0.00    +0.405 C 
ATOM     42  H   UNL     1      -6.142  -7.980   8.945  0.00  0.00    +0.158 HD
BRANCH  10  22
ATOM     22  C   UNL     1      -8.136  -7.591   8.552  0.00  0.00    +0.037 A 
ATOM     24  C   UNL     1      -8.236  -6.243   8.205  0.00  0.00    +0.027 A 
ATOM     25  C   UNL     1      -9.239  -8.257   9.087  0.00  0.00    +0.027 A 
ATOM     28  C   UNL     1      -9.438  -5.562   8.393  0.00  0.00    +0.048 A 
ATOM     29  C   UNL     1     -10.442  -7.576   9.275  0.00  0.00    +0.048 A 
ATOM     30  C   UNL     1     -10.541  -6.228   8.928  0.00  0.00    +0.129 A 
BRANCH  30   5
ATOM      5  O   UNL     1     -11.714  -5.563   9.109  0.00  0.00    -0.456 OA
BRANCH   5  34
ATOM     34  C   UNL     1     -11.998  -5.092  10.380  0.00  0.00    +0.128 A 
ATOM     36  C   UNL     1     -12.399  -5.979  11.379  0.00  0.00    +0.046 A 
ATOM     37  C   UNL     1     -11.883  -3.730  10.660  0.00  0.00    +0.046 A 
ATOM     38  C   UNL     1     -12.686  -5.504  12.659  0.00  0.00    +0.004 A 
ATOM     39  C   UNL     1     -12.170  -3.255  11.941  0.00  0.00    +0.004 A 
ATOM     40  C   UNL     1     -12.572  -4.143  12.939  0.00  0.00    +0.000 A 
ENDBRANCH   5  34
ENDBRANCH  30   5
ENDBRANCH  10  22
ENDBRANCH   3  18
ENDBRANCH  14   3
TORSDOF 8
ENDMDL
MODEL 2
REMARK VINA RESULT:      -8.1      4.289      9.091
REMARK  Name = 44716812
REMARK  9 active torsions:
REMARK  status: ('A' for Active; 'I' for Inactive)
REMARK    1  A    between atoms: O_3  and  C_14
REMARK    2  A    between atoms: O_3  and  C_18
REMARK    3  A    between atoms: O_5  and  C_30
REMARK    4  A    between atoms: O_5  and  C_34
REMARK    5  A    between atoms: O_6  and  C_33
REMARK    6  A    between atoms: O_6  and  C_35
REMARK    7  A    between atoms: N_7  and  C_13
REMARK    8  A    between atoms: N_10  and  C_22
REMARK    9  A    between atoms: C_19  and  C_23
REMARK                            x       y       z     vdW  Elec       q    Type
REMARK                         _______ _______ _______ _____ _____    ______ ____
ROOT
ATOM      1  O   UNL     1      -6.037 -12.346  19.025  0.00  0.00    -0.368 OA
ATOM      2  O   UNL     1      -7.358 -11.274  16.472  0.00  0.00    -0.368 OA
ATOM     11  C   UNL     1      -6.089 -10.975  17.091  0.00  0.00    +0.173 C 
ATOM     12  C   UNL     1      -6.315 -11.005  18.590  0.00  0.00    +0.192 C 
ATOM     13  C   UNL     1      -5.115 -12.103  16.846  0.00  0.00    +0.130 C 
ATOM     14  C   UNL     1      -7.783 -10.672  18.707  0.00  0.00    +0.235 C 
ATOM     15  C   UNL     1      -5.489 -13.097  17.930  0.00  0.00    +0.185 C 
ATOM     16  C   UNL     1      -8.363 -11.361  17.492  0.00  0.00    +0.207 C 
ENDROOT
BRANCH  13   7
ATOM      7  N   UNL     1      -3.757 -11.641  17.034  0.00  0.00    -0.306 N 
ATOM      8  N   UNL     1      -3.555 -11.020  14.804  0.00  0.00    -0.214 NA
ATOM      9  N   UNL     1      -1.734 -10.722  16.354  0.00  0.00    -0.223 NA
ATOM     17  C   UNL     1      -2.981 -11.105  16.019  0.00  0.00    +0.216 A 
ATOM     19  C   UNL     1      -2.773 -10.489  13.841  0.00  0.00    +0.076 A 
ATOM     20  C   UNL     1      -1.008 -10.200  15.344  0.00  0.00    +0.116 A 
ATOM     21  C   UNL     1      -1.479 -10.058  14.055  0.00  0.00    +0.048 A 
ATOM     41  H   UNL     1      -3.348 -11.659  17.961  0.00  0.00    +0.149 HD
BRANCH  19  23
ATOM     23  C   UNL     1      -3.384 -10.395  12.537  0.00  0.00    +0.001 A 
ATOM     26  C   UNL     1      -2.635  -9.957  11.445  0.00  0.00    +0.013 A 
ATOM     27  C   UNL     1      -4.724 -10.743  12.369  0.00  0.00    +0.013 A 
ATOM     31  C   UNL     1      -3.226  -9.868  10.185  0.00  0.00    +0.046 A 
ATOM     32  C   UNL     1      -5.315 -10.654  11.109  0.00  0.00    +0.046 A 
ATOM     33  C   UNL     1      -4.566 -10.215  10.017  0.00  0.00    +0.120 A 
BRANCH  33   6
ATOM      6  O   UNL     1      -5.143 -10.127   8.787  0.00  0.00    -0.495 OA
ATOM     35  C   UNL     1      -6.272  -9.263   8.659  0.00  0.00    +0.277 C 
ENDBRANCH  33   6
ENDBRANCH  19  23
ENDBRANCH  13   7
BRANCH  14   3
ATOM      3  O   UNL     1      -8.369 -11.127  19.905  0.00  0.00    -0.442 OA
BRANCH   3  18
ATOM      4  O   UNL     1     -10.230 -12.449  20.037  0.00  0.00    -0.226 OA
ATOM     10  N   UNL     1     -10.386 -10.138  19.697  0.00  0.00    -0.251 N 
ATOM     18  C   UNL     1      -9.732 -11.340  19.892  0.00  0.00    +0.405 C 
ATOM     42  H   UNL     1      -9.795  -9.316  19.597  0.00  0.00    +0.158 HD
BRANCH  10  22
ATOM     22  C   UNL     1     -11.778  -9.907  19.619  0.00  0.00    +0.037 A 
ATOM     24  C   UNL     1     -12.391  -9.754  18.375  0.00  0.00    +0.027 A 
ATOM     25  C   UNL     1     -12.539  -9.835  20.786  0.00  0.00    +0.027 A 
ATOM     28  C   UNL     1     -13.765  -9.527  18.299  0.00  0.00    +0.048 A 
ATOM     29  C   UNL     1     -13.913  -9.609  20.709  0.00  0.00    +0.048 A 
ATOM     30  C   UNL     1     -14.526  -9.455  19.465  0.00  0.00    +0.129 A 
BRANCH  30   5
ATOM      5  O   UNL     1     -15.867  -9.236  19.389  0.00  0.00    -0.456 OA
BRANCH   5  34
ATOM     34  C   UNL     1     -16.316  -7.934  19.537  0.00  0.00    +0.128 A 
ATOM     36  C   UNL     1     -16.499  -7.401  20.814  0.00  0.00    +0.046 A 
ATOM     37  C   UNL     1     -16.588  -7.157  18.411  0.00  0.00    +0.046 A 
ATOM     38  C   UNL     1     -16.953  -6.090  20.964  0.00  0.00    +0.004 A 
ATOM     39  C   UNL     1     -17.042  -5.846  18.561  0.00  0.00    +0.004 A 
ATOM     40  C   UNL     1     -17.224  -5.313  19.838  0.00  0.00    +0.000 A 
ENDBRANCH   5  34
ENDBRANCH  30   5
ENDBRANCH  10  22
ENDBRANCH   3  18
ENDBRANCH  14   3
TORSDOF 8
ENDMDL
MODEL 3
REMARK VINA RESULT:      -8.0      4.991      9.228
REMARK  Name = 44716812
REMARK  9 active torsions:
REMARK  status: ('A' for Active; 'I' for Inactive)
REMARK    1  A    between atoms: O_3  and  C_14
REMARK    2  A    between atoms: O_3  and  C_18
REMARK    3  A    between atoms: O_5  and  C_30
REMARK    4  A    between atoms: O_5  and  C_34
REMARK    5  A    between atoms: O_6  and  C_33
REMARK    6  A    between atoms: O_6  and  C_35
REMARK    7  A    between atoms: N_7  and  C_13
REMARK    8  A    between atoms: N_10  and  C_22
REMARK    9  A    between atoms: C_19  and  C_23
REMARK                            x       y       z     vdW  Elec       q    Type
REMARK                         _______ _______ _______ _____ _____    ______ ____
ROOT
ATOM      1  O   UNL     1      -4.194 -10.022   9.748  0.00  0.00    -0.368 OA
ATOM      2  O   UNL     1      -6.112 -11.927  11.198  0.00  0.00    -0.368 OA
ATOM     11  C   UNL     1      -4.685 -11.741  11.306  0.00  0.00    +0.173 C 
ATOM     12  C   UNL     1      -4.175 -11.449   9.909  0.00  0.00    +0.192 C 
ATOM     13  C   UNL     1      -4.385 -10.477  12.076  0.00  0.00    +0.130 C 
ATOM     14  C   UNL     1      -5.205 -12.124   9.036  0.00  0.00    +0.235 C 
ATOM     15  C   UNL     1      -4.514  -9.407  11.006  0.00  0.00    +0.185 C 
ATOM     16  C   UNL     1      -6.482 -11.891   9.812  0.00  0.00    +0.207 C 
ENDROOT
BRANCH  13   7
ATOM      7  N   UNL     1      -3.033 -10.512  12.590  0.00  0.00    -0.306 N 
ATOM      8  N   UNL     1      -3.768 -10.603  14.792  0.00  0.00    -0.214 NA
ATOM      9  N   UNL     1      -1.418 -10.599  14.259  0.00  0.00    -0.223 NA
ATOM     17  C   UNL     1      -2.727 -10.574  13.939  0.00  0.00    +0.216 A 
ATOM     19  C   UNL     1      -3.434 -10.667  16.098  0.00  0.00    +0.076 A 
ATOM     20  C   UNL     1      -1.156 -10.664  15.580  0.00  0.00    +0.116 A 
ATOM     21  C   UNL     1      -2.132 -10.700  16.555  0.00  0.00    +0.048 A 
ATOM     41  H   UNL     1      -2.254 -10.543  11.942  0.00  0.00    +0.149 HD
BRANCH  19  23
ATOM     23  C   UNL     1      -4.547 -10.700  17.016  0.00  0.00    +0.001 A 
ATOM     26  C   UNL     1      -4.434 -11.382  18.226  0.00  0.00    +0.013 A 
ATOM     27  C   UNL     1      -5.736 -10.047  16.691  0.00  0.00    +0.013 A 
ATOM     31  C   UNL     1      -5.511 -11.413  19.113  0.00  0.00    +0.046 A 
ATOM     32  C   UNL     1      -6.812 -10.077  17.578  0.00  0.00    +0.046 A 
ATOM     33  C   UNL     1      -6.700 -10.761  18.789  0.00  0.00    +0.120 A 
BRANCH  33   6
ATOM      6  O   UNL     1      -7.750 -10.791  19.654  0.00  0.00    -0.495 OA
ATOM     35  C   UNL     1      -8.751 -11.783  19.427  0.00  0.00    +0.277 C 
ENDBRANCH  33   6
ENDBRANCH  19  23
ENDBRANCH  13   7
BRANCH  14   3
ATOM      3  O   UNL     1      -5.273 -11.592   7.732  0.00  0.00    -0.442 OA
BRANCH   3  18
ATOM      4  O   UNL     1      -5.990 -13.202   6.275  0.00  0.00    -0.226 OA
ATOM     10  N   UNL     1      -3.795 -12.388   6.224  0.00  0.00    -0.251 N 
ATOM     18  C   UNL     1      -5.094 -12.475   6.687  0.00  0.00    +0.405 C 
ATOM     42  H   UNL     1      -3.193 -11.720   6.698  0.00  0.00    +0.158 HD
BRANCH  10  22
ATOM     22  C   UNL     1      -3.196 -13.116   5.171  0.00  0.00    +0.037 A 
ATOM     24  C   UNL     1      -2.819 -14.444   5.366  0.00  0.00    +0.027 A 
ATOM     25  C   UNL     1      -2.983 -12.504   3.935  0.00  0.00    +0.027 A 
ATOM     28  C   UNL     1      -2.229 -15.162   4.325  0.00  0.00    +0.048 A 
ATOM     29  C   UNL     1      -2.393 -13.222   2.895  0.00  0.00    +0.048 A 
ATOM     30  C   UNL     1      -2.016 -14.551   3.090  0.00  0.00    +0.129 A 
BRANCH  30   5
ATOM      5  O   UNL     1      -1.443 -15.252   2.075  0.00  0.00    -0.456 OA
BRANCH   5  34
ATOM     34  C   UNL     1      -0.194 -14.844   1.636  0.00  0.00    +0.128 A 
ATOM     36  C   UNL     1      -0.024 -14.415   0.319  0.00  0.00    +0.046 A 
ATOM     37  C   UNL     1       0.893 -14.863   2.509  0.00  0.00    +0.046 A 
ATOM     38  C   UNL     1       1.234 -14.005  -0.124  0.00  0.00    +0.004 A 
ATOM     39  C   UNL     1       2.151 -14.452   2.066  0.00  0.00    +0.004 A 
ATOM     40  C   UNL     1       2.321 -14.024   0.749  0.00  0.00    +0.000 A 
ENDBRANCH   5  34
ENDBRANCH  30   5
ENDBRANCH  10  22
ENDBRANCH   3  18
ENDBRANCH  14   3
TORSDOF 8
ENDMDL
MODEL 4
REMARK VINA RESULT:      -7.9      4.064      7.073
REMARK  Name = 44716812
REMARK  9 active torsions:
REMARK  status: ('A' for Active; 'I' for Inactive)
REMARK    1  A    between atoms: O_3  and  C_14
REMARK    2  A    between atoms: O_3  and  C_18
REMARK    3  A    between atoms: O_5  and  C_30
REMARK    4  A    between atoms: O_5  and  C_34
REMARK    5  A    between atoms: O_6  and  C_33
REMARK    6  A    between atoms: O_6  and  C_35
REMARK    7  A    between atoms: N_7  and  C_13
REMARK    8  A    between atoms: N_10  and  C_22
REMARK    9  A    between atoms: C_19  and  C_23
REMARK                            x       y       z     vdW  Elec       q    Type
REMARK                         _______ _______ _______ _____ _____    ______ ____
ROOT
ATOM      1  O   UNL     1     -11.362  -8.549  17.562  0.00  0.00    -0.368 OA
ATOM      2  O   UNL     1      -9.391  -8.550  15.211  0.00  0.00    -0.368 OA
ATOM     11  C   UNL     1      -9.182  -8.652  16.636  0.00  0.00    +0.173 C 
ATOM     12  C   UNL     1     -10.202  -7.745  17.294  0.00  0.00    +0.192 C 
ATOM     13  C   UNL     1      -9.557 -10.034  17.116  0.00  0.00    +0.130 C 
ATOM     14  C   UNL     1     -10.469  -6.718  16.220  0.00  0.00    +0.235 C 
ATOM     15  C   UNL     1     -11.063  -9.924  17.274  0.00  0.00    +0.185 C 
ATOM     16  C   UNL     1     -10.386  -7.548  14.959  0.00  0.00    +0.207 C 
ENDROOT
BRANCH  13   7
ATOM      7  N   UNL     1      -8.936 -10.307  18.394  0.00  0.00    -0.306 N 
ATOM      8  N   UNL     1      -6.832 -10.530  17.435  0.00  0.00    -0.214 NA
ATOM      9  N   UNL     1      -7.158 -10.792  19.808  0.00  0.00    -0.223 NA
ATOM     17  C   UNL     1      -7.583 -10.554  18.552  0.00  0.00    +0.216 A 
ATOM     19  C   UNL     1      -5.518 -10.771  17.626  0.00  0.00    +0.076 A 
ATOM     20  C   UNL     1      -5.834 -11.024  19.927  0.00  0.00    +0.116 A 
ATOM     21  C   UNL     1      -4.958 -11.027  18.861  0.00  0.00    +0.048 A 
ATOM     41  H   UNL     1      -9.497 -10.272  19.237  0.00  0.00    +0.149 HD
BRANCH  19  23
ATOM     23  C   UNL     1      -4.709 -10.745  16.431  0.00  0.00    +0.001 A 
ATOM     26  C   UNL     1      -3.322 -10.843  16.525  0.00  0.00    +0.013 A 
ATOM     27  C   UNL     1      -5.317 -10.623  15.181  0.00  0.00    +0.013 A 
ATOM     31  C   UNL     1      -2.541 -10.819  15.369  0.00  0.00    +0.046 A 
ATOM     32  C   UNL     1      -4.536 -10.599  14.026  0.00  0.00    +0.046 A 
ATOM     33  C   UNL     1      -3.147 -10.696  14.120  0.00  0.00    +0.120 A 
BRANCH  33   6
ATOM      6  O   UNL     1      -2.386 -10.672  12.992  0.00  0.00    -0.495 OA
ATOM     35  C   UNL     1      -2.823 -11.474  11.896  0.00  0.00    +0.277 C 
ENDBRANCH  33   6
ENDBRANCH  19  23
ENDBRANCH  13   7
BRANCH  14   3
ATOM      3  O   UNL     1     -11.718  -6.078  16.353  0.00  0.00    -0.442 OA
BRANCH   3  18
ATOM      4  O   UNL     1     -13.351  -7.040  15.073  0.00  0.00    -0.226 OA
ATOM     10  N   UNL     1     -12.358  -5.007  14.473  0.00  0.00    -0.251 N 
ATOM     18  C   UNL     1     -12.561  -6.123  15.261  0.00  0.00    +0.405 C 
ATOM     42  H   UNL     1     -11.652  -4.350  14.797  0.00  0.00    +0.158 HD
BRANCH  10  22
ATOM     22  C   UNL     1     -13.009  -4.662  13.267  0.00  0.00    +0.037 A 
ATOM     24  C   UNL     1     -12.345  -3.898  12.308  0.00  0.00    +0.027 A 
ATOM     25  C   UNL     1     -14.318  -5.088  13.036  0.00  0.00    +0.027 A 
ATOM     28  C   UNL     1     -12.989  -3.560  11.118  0.00  0.00    +0.048 A 
ATOM     29  C   UNL     1     -14.962  -4.750  11.846  0.00  0.00    +0.048 A 
ATOM     30  C   UNL     1     -14.297  -3.985  10.887  0.00  0.00    +0.129 A 
BRANCH  30   5
ATOM      5  O   UNL     1     -14.923  -3.656   9.725  0.00  0.00    -0.456 OA
BRANCH   5  34
ATOM     34  C   UNL     1     -15.345  -2.346   9.569  0.00  0.00    +0.128 A 
ATOM     36  C   UNL     1     -15.038  -1.648   8.401  0.00  0.00    +0.046 A 
ATOM     37  C   UNL     1     -16.076  -1.724  10.582  0.00  0.00    +0.046 A 
ATOM     38  C   UNL     1     -15.461  -0.328   8.245  0.00  0.00    +0.004 A 
ATOM     39  C   UNL     1     -16.499  -0.404  10.425  0.00  0.00    +0.004 A 
ATOM     40  C   UNL     1     -16.192   0.294   9.257  0.00  0.00    +0.000 A 
ENDBRANCH   5  34
ENDBRANCH  30   5
ENDBRANCH  10  22
ENDBRANCH   3  18
ENDBRANCH  14   3
TORSDOF 8
ENDMDL
MODEL 5
REMARK VINA RESULT:      -7.8      5.075      7.654
REMARK  Name = 44716812
REMARK  9 active torsions:
REMARK  status: ('A' for Active; 'I' for Inactive)
REMARK    1  A    between atoms: O_3  and  C_14
REMARK    2  A    between atoms: O_3  and  C_18
REMARK    3  A    between atoms: O_5  and  C_30
REMARK    4  A    between atoms: O_5  and  C_34
REMARK    5  A    between atoms: O_6  and  C_33
REMARK    6  A    between atoms: O_6  and  C_35
REMARK    7  A    between atoms: N_7  and  C_13
REMARK    8  A    between atoms: N_10  and  C_22
REMARK    9  A    between atoms: C_19  and  C_23
REMARK                            x       y       z     vdW  Elec       q    Type
REMARK                         _______ _______ _______ _____ _____    ______ ____
ROOT
ATOM      1  O   UNL     1     -12.626  -8.315  14.851  0.00  0.00    -0.368 OA
ATOM      2  O   UNL     1     -10.978  -5.796  15.445  0.00  0.00    -0.368 OA
ATOM     11  C   UNL     1     -11.595  -6.764  16.320  0.00  0.00    +0.173 C 
ATOM     12  C   UNL     1     -12.904  -7.168  15.671  0.00  0.00    +0.192 C 
ATOM     13  C   UNL     1     -10.786  -8.039  16.335  0.00  0.00    +0.130 C 
ATOM     14  C   UNL     1     -13.245  -5.955  14.839  0.00  0.00    +0.235 C 
ATOM     15  C   UNL     1     -11.278  -8.750  15.086  0.00  0.00    +0.185 C 
ATOM     16  C   UNL     1     -11.883  -5.495  14.373  0.00  0.00    +0.207 C 
ENDROOT
BRANCH  13   7
ATOM      7  N   UNL     1     -11.100  -8.818  17.512  0.00  0.00    -0.306 N 
ATOM      8  N   UNL     1      -8.935  -9.648  17.660  0.00  0.00    -0.214 NA
ATOM      9  N   UNL     1     -10.628 -10.283  19.253  0.00  0.00    -0.223 NA
ATOM     17  C   UNL     1     -10.181  -9.619  18.170  0.00  0.00    +0.216 A 
ATOM     19  C   UNL     1      -8.065 -10.435  18.328  0.00  0.00    +0.076 A 
ATOM     20  C   UNL     1      -9.707 -11.049  19.872  0.00  0.00    +0.116 A 
ATOM     21  C   UNL     1      -8.398 -11.166  19.450  0.00  0.00    +0.048 A 
ATOM     41  H   UNL     1     -12.025  -8.751  17.922  0.00  0.00    +0.149 HD
BRANCH  19  23
ATOM     23  C   UNL     1      -6.728 -10.469  17.785  0.00  0.00    +0.001 A 
ATOM     26  C   UNL     1      -6.464  -9.889  16.545  0.00  0.00    +0.013 A 
ATOM     27  C   UNL     1      -5.701 -11.082  18.502  0.00  0.00    +0.013 A 
ATOM     31  C   UNL     1      -5.171  -9.922  16.021  0.00  0.00    +0.046 A 
ATOM     32  C   UNL     1      -4.408 -11.114  17.978  0.00  0.00    +0.046 A 
ATOM     33  C   UNL     1      -4.144 -10.535  16.737  0.00  0.00    +0.120 A 
BRANCH  33   6
ATOM      6  O   UNL     1      -2.883 -10.567  16.226  0.00  0.00    -0.495 OA
ATOM     35  C   UNL     1      -2.644 -11.465  15.142  0.00  0.00    +0.277 C 
ENDBRANCH  33   6
ENDBRANCH  19  23
ENDBRANCH  13   7
BRANCH  14   3
ATOM      3  O   UNL     1     -14.107  -6.238  13.759  0.00  0.00    -0.442 OA
BRANCH   3  18
ATOM      4  O   UNL     1     -14.951  -4.147  13.383  0.00  0.00    -0.226 OA
ATOM     10  N   UNL     1     -14.166  -5.488  11.632  0.00  0.00    -0.251 N 
ATOM     18  C   UNL     1     -14.458  -5.180  12.947  0.00  0.00    +0.405 C 
ATOM     42  H   UNL     1     -13.755  -6.404  11.466  0.00  0.00    +0.158 HD
BRANCH  10  22
ATOM     22  C   UNL     1     -14.367  -4.688  10.485  0.00  0.00    +0.037 A 
ATOM     24  C   UNL     1     -13.306  -3.961   9.946  0.00  0.00    +0.027 A 
ATOM     25  C   UNL     1     -15.628  -4.626   9.890  0.00  0.00    +0.027 A 
ATOM     28  C   UNL     1     -13.504  -3.172   8.813  0.00  0.00    +0.048 A 
ATOM     29  C   UNL     1     -15.827  -3.837   8.758  0.00  0.00    +0.048 A 
ATOM     30  C   UNL     1     -14.764  -3.110   8.219  0.00  0.00    +0.129 A 
BRANCH  30   5
ATOM      5  O   UNL     1     -14.957  -2.341   7.113  0.00  0.00    -0.456 OA
BRANCH   5  34
ATOM     34  C   UNL     1     -14.707  -0.983   7.221  0.00  0.00    +0.128 A 
ATOM     36  C   UNL     1     -15.487  -0.196   8.069  0.00  0.00    +0.046 A 
ATOM     37  C   UNL     1     -13.678  -0.402   6.480  0.00  0.00    +0.046 A 
ATOM     38  C   UNL     1     -15.237   1.172   8.177  0.00  0.00    +0.004 A 
ATOM     39  C   UNL     1     -13.428   0.966   6.589  0.00  0.00    +0.004 A 
ATOM     40  C   UNL     1     -14.208   1.753   7.437  0.00  0.00    +0.000 A 
ENDBRANCH   5  34
ENDBRANCH  30   5
ENDBRANCH  10  22
ENDBRANCH   3  18
ENDBRANCH  14   3
TORSDOF 8
ENDMDL
MODEL 6
REMARK VINA RESULT:      -7.4     28.315     32.003
REMARK  Name = 44716812
REMARK  9 active torsions:
REMARK  status: ('A' for Active; 'I' for Inactive)
REMARK    1  A    between atoms: O_3  and  C_14
REMARK    2  A    between atoms: O_3  and  C_18
REMARK    3  A    between atoms: O_5  and  C_30
REMARK    4  A    between atoms: O_5  and  C_34
REMARK    5  A    between atoms: O_6  and  C_33
REMARK    6  A    between atoms: O_6  and  C_35
REMARK    7  A    between atoms: N_7  and  C_13
REMARK    8  A    between atoms: N_10  and  C_22
REMARK    9  A    between atoms: C_19  and  C_23
REMARK                            x       y       z     vdW  Elec       q    Type
REMARK                         _______ _______ _______ _____ _____    ______ ____
ROOT
ATOM      1  O   UNL     1      22.502   7.753  22.360  0.00  0.00    -0.368 OA
ATOM      2  O   UNL     1      21.519   5.877  24.579  0.00  0.00    -0.368 OA
ATOM     11  C   UNL     1      21.974   5.613  23.235  0.00  0.00    +0.173 C 
ATOM     12  C   UNL     1      21.471   6.752  22.371  0.00  0.00    +0.192 C 
ATOM     13  C   UNL     1      23.478   5.737  23.164  0.00  0.00    +0.130 C 
ATOM     14  C   UNL     1      20.248   7.218  23.123  0.00  0.00    +0.235 C 
ATOM     15  C   UNL     1      23.673   7.236  23.011  0.00  0.00    +0.185 C 
ATOM     16  C   UNL     1      20.670   7.033  24.563  0.00  0.00    +0.207 C 
ENDROOT
BRANCH  13   7
ATOM      7  N   UNL     1      23.984   5.044  21.999  0.00  0.00    -0.306 N 
ATOM      8  N   UNL     1      23.851   2.977  23.051  0.00  0.00    -0.214 NA
ATOM      9  N   UNL     1      24.651   3.178  20.787  0.00  0.00    -0.223 NA
ATOM     17  C   UNL     1      24.171   3.673  21.943  0.00  0.00    +0.216 A 
ATOM     19  C   UNL     1      24.041   1.644  22.960  0.00  0.00    +0.076 A 
ATOM     20  C   UNL     1      24.816   1.839  20.765  0.00  0.00    +0.116 A 
ATOM     21  C   UNL     1      24.526   1.014  21.832  0.00  0.00    +0.048 A 
ATOM     41  H   UNL     1      24.173   5.566  21.151  0.00  0.00    +0.149 HD
BRANCH  19  23
ATOM     23  C   UNL     1      23.699   0.893  24.145  0.00  0.00    +0.001 A 
ATOM     26  C   UNL     1      22.546   1.210  24.862  0.00  0.00    +0.013 A 
ATOM     27  C   UNL     1      24.522  -0.149  24.571  0.00  0.00    +0.013 A 
ATOM     31  C   UNL     1      22.215   0.484  26.007  0.00  0.00    +0.046 A 
ATOM     32  C   UNL     1      24.191  -0.875  25.715  0.00  0.00    +0.046 A 
ATOM     33  C   UNL     1      23.038  -0.558  26.433  0.00  0.00    +0.120 A 
BRANCH  33   6
ATOM      6  O   UNL     1      22.716  -1.266  27.550  0.00  0.00    -0.495 OA
ATOM     35  C   UNL     1      21.589  -2.138  27.464  0.00  0.00    +0.277 C 
ENDBRANCH  33   6
ENDBRANCH  19  23
ENDBRANCH  13   7
BRANCH  14   3
ATOM      3  O   UNL     1      19.890   8.553  22.844  0.00  0.00    -0.442 OA
BRANCH   3  18
ATOM      4  O   UNL     1      18.785   9.747  21.237  0.00  0.00    -0.226 OA
ATOM     10  N   UNL     1      18.001   7.670  21.981  0.00  0.00    -0.251 N 
ATOM     18  C   UNL     1      18.865   8.748  21.941  0.00  0.00    +0.405 C 
ATOM     42  H   UNL     1      18.237   6.930  22.637  0.00  0.00    +0.158 HD
BRANCH  10  22
ATOM     22  C   UNL     1      16.826   7.468  21.223  0.00  0.00    +0.037 A 
ATOM     24  C   UNL     1      16.832   6.575  20.151  0.00  0.00    +0.027 A 
ATOM     25  C   UNL     1      15.659   8.160  21.547  0.00  0.00    +0.027 A 
ATOM     28  C   UNL     1      15.672   6.375  19.403  0.00  0.00    +0.048 A 
ATOM     29  C   UNL     1      14.499   7.960  20.800  0.00  0.00    +0.048 A 
ATOM     30  C   UNL     1      14.506   7.067  19.727  0.00  0.00    +0.129 A 
BRANCH  30   5
ATOM      5  O   UNL     1      13.374   6.869  18.999  0.00  0.00    -0.456 OA
BRANCH   5  34
ATOM     34  C   UNL     1      13.146   7.711  17.922  0.00  0.00    +0.128 A 
ATOM     36  C   UNL     1      14.163   7.951  16.998  0.00  0.00    +0.046 A 
ATOM     37  C   UNL     1      11.900   8.318  17.763  0.00  0.00    +0.046 A 
ATOM     38  C   UNL     1      13.935   8.800  15.915  0.00  0.00    +0.004 A 
ATOM     39  C   UNL     1      11.672   9.167  16.680  0.00  0.00    +0.004 A 
ATOM     40  C   UNL     1      12.689   9.408  15.756  0.00  0.00    +0.000 A 
ENDBRANCH   5  34
ENDBRANCH  30   5
ENDBRANCH  10  22
ENDBRANCH   3  18
ENDBRANCH  14   3
TORSDOF 8
ENDMDL
MODEL 7
REMARK VINA RESULT:      -7.4     11.923     17.273
REMARK  Name = 44716812
REMARK  9 active torsions:
REMARK  status: ('A' for Active; 'I' for Inactive)
REMARK    1  A    between atoms: O_3  and  C_14
REMARK    2  A    between atoms: O_3  and  C_18
REMARK    3  A    between atoms: O_5  and  C_30
REMARK    4  A    between atoms: O_5  and  C_34
REMARK    5  A    between atoms: O_6  and  C_33
REMARK    6  A    between atoms: O_6  and  C_35
REMARK    7  A    between atoms: N_7  and  C_13
REMARK    8  A    between atoms: N_10  and  C_22
REMARK    9  A    between atoms: C_19  and  C_23
REMARK                            x       y       z     vdW  Elec       q    Type
REMARK                         _______ _______ _______ _____ _____    ______ ____
ROOT
ATOM      1  O   UNL     1     -14.747   8.705  12.303  0.00  0.00    -0.368 OA
ATOM      2  O   UNL     1     -15.502   6.816  14.600  0.00  0.00    -0.368 OA
ATOM     11  C   UNL     1     -14.240   7.408  14.222  0.00  0.00    +0.173 C 
ATOM     12  C   UNL     1     -14.207   7.437  12.707  0.00  0.00    +0.192 C 
ATOM     13  C   UNL     1     -14.214   8.865  14.617  0.00  0.00    +0.130 C 
ATOM     14  C   UNL     1     -15.122   6.295  12.337  0.00  0.00    +0.235 C 
ATOM     15  C   UNL     1     -14.950   9.526  13.464  0.00  0.00    +0.185 C 
ATOM     16  C   UNL     1     -16.179   6.371  13.416  0.00  0.00    +0.207 C 
ENDROOT
BRANCH  13   7
ATOM      7  N   UNL     1     -12.850   9.343  14.682  0.00  0.00    -0.306 N 
ATOM      8  N   UNL     1     -12.601   8.627  16.878  0.00  0.00    -0.214 NA
ATOM      9  N   UNL     1     -10.800   9.721  15.709  0.00  0.00    -0.223 NA
ATOM     17  C   UNL     1     -12.049   9.226  15.806  0.00  0.00    +0.216 A 
ATOM     19  C   UNL     1     -11.791   8.526  17.954  0.00  0.00    +0.076 A 
ATOM     20  C   UNL     1     -10.046   9.586  16.819  0.00  0.00    +0.116 A 
ATOM     21  C   UNL     1     -10.493   8.993  17.982  0.00  0.00    +0.048 A 
ATOM     41  H   UNL     1     -12.423   9.745  13.856  0.00  0.00    +0.149 HD
BRANCH  19  23
ATOM     23  C   UNL     1     -12.379   7.884  19.105  0.00  0.00    +0.001 A 
ATOM     26  C   UNL     1     -11.565   7.243  20.038  0.00  0.00    +0.013 A 
ATOM     27  C   UNL     1     -13.762   7.907  19.285  0.00  0.00    +0.013 A 
ATOM     31  C   UNL     1     -12.133   6.624  21.151  0.00  0.00    +0.046 A 
ATOM     32  C   UNL     1     -14.330   7.288  20.399  0.00  0.00    +0.046 A 
ATOM     33  C   UNL     1     -13.515   6.645  21.331  0.00  0.00    +0.120 A 
BRANCH  33   6
ATOM      6  O   UNL     1     -14.070   6.041  22.417  0.00  0.00    -0.495 OA
ATOM     35  C   UNL     1     -13.475   4.820  22.856  0.00  0.00    +0.277 C 
ENDBRANCH  33   6
ENDBRANCH  19  23
ENDBRANCH  13   7
BRANCH  14   3
ATOM      3  O   UNL     1     -15.674   6.413  11.045  0.00  0.00    -0.442 OA
BRANCH   3  18
ATOM      4  O   UNL     1     -17.372   5.322   9.970  0.00  0.00    -0.226 OA
ATOM     10  N   UNL     1     -15.464   4.191  10.718  0.00  0.00    -0.251 N 
ATOM     18  C   UNL     1     -16.278   5.289  10.519  0.00  0.00    +0.405 C 
ATOM     42  H   UNL     1     -14.584   4.364  11.198  0.00  0.00    +0.158 HD
BRANCH  10  22
ATOM     22  C   UNL     1     -15.702   2.851  10.336  0.00  0.00    +0.037 A 
ATOM     24  C   UNL     1     -15.090   2.331   9.195  0.00  0.00    +0.027 A 
ATOM     25  C   UNL     1     -16.548   2.048  11.102  0.00  0.00    +0.027 A 
ATOM     28  C   UNL     1     -15.325   1.008   8.820  0.00  0.00    +0.048 A 
ATOM     29  C   UNL     1     -16.782   0.725  10.726  0.00  0.00    +0.048 A 
ATOM     30  C   UNL     1     -16.170   0.205   9.585  0.00  0.00    +0.129 A 
BRANCH  30   5
ATOM      5  O   UNL     1     -16.397  -1.086   9.219  0.00  0.00    -0.456 OA
BRANCH   5  34
ATOM     34  C   UNL     1     -15.439  -2.028   9.557  0.00  0.00    +0.128 A 
ATOM     36  C   UNL     1     -14.572  -2.522   8.582  0.00  0.00    +0.046 A 
ATOM     37  C   UNL     1     -15.343  -2.484  10.872  0.00  0.00    +0.046 A 
ATOM     38  C   UNL     1     -13.608  -3.471   8.921  0.00  0.00    +0.004 A 
ATOM     39  C   UNL     1     -14.379  -3.434  11.212  0.00  0.00    +0.004 A 
ATOM     40  C   UNL     1     -13.512  -3.927  10.236  0.00  0.00    +0.000 A 
ENDBRANCH   5  34
ENDBRANCH  30   5
ENDBRANCH  10  22
ENDBRANCH   3  18
ENDBRANCH  14   3
TORSDOF 8
ENDMDL
MODEL 8
REMARK VINA RESULT:      -7.4      8.965     13.097
REMARK  Name = 44716812
REMARK  9 active torsions:
REMARK  status: ('A' for Active; 'I' for Inactive)
REMARK    1  A    between atoms: O_3  and  C_14
REMARK    2  A    between atoms: O_3  and  C_18
REMARK    3  A    between atoms: O_5  and  C_30
REMARK    4  A    between atoms: O_5  and  C_34
REMARK    5  A    between atoms: O_6  and  C_33
REMARK    6  A    between atoms: O_6  and  C_35
REMARK    7  A    between atoms: N_7  and  C_13
REMARK    8  A    between atoms: N_10  and  C_22
REMARK    9  A    between atoms: C_19  and  C_23
REMARK                            x       y       z     vdW  Elec       q    Type
REMARK                         _______ _______ _______ _____ _____    ______ ____
ROOT
ATOM      1  O   UNL     1      -5.165 -13.489   4.029  0.00  0.00    -0.368 OA
ATOM      2  O   UNL     1      -2.265 -13.143   4.968  0.00  0.00    -0.368 OA
ATOM     11  C   UNL     1      -3.359 -12.207   4.877  0.00  0.00    +0.173 C 
ATOM     12  C   UNL     1      -4.139 -12.566   3.628  0.00  0.00    +0.192 C 
ATOM     13  C   UNL     1      -4.339 -12.445   6.002  0.00  0.00    +0.130 C 
ATOM     14  C   UNL     1      -3.093 -13.232   2.768  0.00  0.00    +0.235 C 
ATOM     15  C   UNL     1      -5.180 -13.588   5.462  0.00  0.00    +0.185 C 
ATOM     16  C   UNL     1      -2.258 -13.966   3.793  0.00  0.00    +0.207 C 
ENDROOT
BRANCH  13   7
ATOM      7  N   UNL     1      -5.159 -11.271   6.208  0.00  0.00    -0.306 N 
ATOM      8  N   UNL     1      -4.445 -11.038   8.406  0.00  0.00    -0.214 NA
ATOM      9  N   UNL     1      -6.027  -9.501   7.437  0.00  0.00    -0.223 NA
ATOM     17  C   UNL     1      -5.213 -10.573   7.403  0.00  0.00    +0.216 A 
ATOM     19  C   UNL     1      -4.519 -10.332   9.554  0.00  0.00    +0.076 A 
ATOM     20  C   UNL     1      -6.052  -8.842   8.613  0.00  0.00    +0.116 A 
ATOM     21  C   UNL     1      -5.313  -9.215   9.717  0.00  0.00    +0.048 A 
ATOM     41  H   UNL     1      -5.695 -10.895   5.434  0.00  0.00    +0.149 HD
BRANCH  19  23
ATOM     23  C   UNL     1      -3.696 -10.826  10.632  0.00  0.00    +0.001 A 
ATOM     26  C   UNL     1      -2.768  -9.985  11.244  0.00  0.00    +0.013 A 
ATOM     27  C   UNL     1      -3.832 -12.146  11.063  0.00  0.00    +0.013 A 
ATOM     31  C   UNL     1      -1.974 -10.462  12.287  0.00  0.00    +0.046 A 
ATOM     32  C   UNL     1      -3.038 -12.624  12.105  0.00  0.00    +0.046 A 
ATOM     33  C   UNL     1      -2.108 -11.782  12.716  0.00  0.00    +0.120 A 
BRANCH  33   6
ATOM      6  O   UNL     1      -1.333 -12.249  13.734  0.00  0.00    -0.495 OA
ATOM     35  C   UNL     1      -1.387 -11.539  14.970  0.00  0.00    +0.277 C 
ENDBRANCH  33   6
ENDBRANCH  19  23
ENDBRANCH  13   7
BRANCH  14   3
ATOM      3  O   UNL     1      -3.632 -14.104   1.800  0.00  0.00    -0.442 OA
BRANCH   3  18
ATOM      4  O   UNL     1      -2.591 -15.888   0.819  0.00  0.00    -0.226 OA
ATOM     10  N   UNL     1      -2.104 -13.685   0.195  0.00  0.00    -0.251 N 
ATOM     18  C   UNL     1      -2.744 -14.677   0.912  0.00  0.00    +0.405 C 
ATOM     42  H   UNL     1      -2.367 -12.728   0.416  0.00  0.00    +0.158 HD
BRANCH  10  22
ATOM     22  C   UNL     1      -1.123 -13.835  -0.812  0.00  0.00    +0.037 A 
ATOM     24  C   UNL     1       0.229 -13.873  -0.470  0.00  0.00    +0.027 A 
ATOM     25  C   UNL     1      -1.508 -13.948  -2.149  0.00  0.00    +0.027 A 
ATOM     28  C   UNL     1       1.196 -14.022  -1.464  0.00  0.00    +0.048 A 
ATOM     29  C   UNL     1      -0.541 -14.097  -3.143  0.00  0.00    +0.048 A 
ATOM     30  C   UNL     1       0.811 -14.134  -2.800  0.00  0.00    +0.129 A 
BRANCH  30   5
ATOM      5  O   UNL     1       1.755 -14.282  -3.769  0.00  0.00    -0.456 OA
BRANCH   5  34
ATOM     34  C   UNL     1       1.982 -13.209  -4.616  0.00  0.00    +0.128 A 
ATOM     36  C   UNL     1       2.604 -13.413  -5.847  0.00  0.00    +0.046 A 
ATOM     37  C   UNL     1       1.590 -11.926  -4.235  0.00  0.00    +0.046 A 
ATOM     38  C   UNL     1       2.835 -12.332  -6.700  0.00  0.00    +0.004 A 
ATOM     39  C   UNL     1       1.820 -10.845  -5.088  0.00  0.00    +0.004 A 
ATOM     40  C   UNL     1       2.442 -11.049  -6.319  0.00  0.00    +0.000 A 
ENDBRANCH   5  34
ENDBRANCH  30   5
ENDBRANCH  10  22
ENDBRANCH   3  18
ENDBRANCH  14   3
TORSDOF 8
ENDMDL
MODEL 9
REMARK VINA RESULT:      -7.2      4.128     10.283
REMARK  Name = 44716812
REMARK  9 active torsions:
REMARK  status: ('A' for Active; 'I' for Inactive)
REMARK    1  A    between atoms: O_3  and  C_14
REMARK    2  A    between atoms: O_3  and  C_18
REMARK    3  A    between atoms: O_5  and  C_30
REMARK    4  A    between atoms: O_5  and  C_34
REMARK    5  A    between atoms: O_6  and  C_33
REMARK    6  A    between atoms: O_6  and  C_35
REMARK    7  A    between atoms: N_7  and  C_13
REMARK    8  A    between atoms: N_10  and  C_22
REMARK    9  A    between atoms: C_19  and  C_23
REMARK                            x       y       z     vdW  Elec       q    Type
REMARK                         _______ _______ _______ _____ _____    ______ ____
ROOT
ATOM      1  O   UNL     1      -2.544 -10.017  12.526  0.00  0.00    -0.368 OA
ATOM      2  O   UNL     1      -2.997 -12.836  11.406  0.00  0.00    -0.368 OA
ATOM     11  C   UNL     1      -3.885 -11.706  11.541  0.00  0.00    +0.173 C 
ATOM     12  C   UNL     1      -3.523 -11.019  12.842  0.00  0.00    +0.192 C 
ATOM     13  C   UNL     1      -3.572 -10.674  10.483  0.00  0.00    +0.130 C 
ATOM     14  C   UNL     1      -2.929 -12.145  13.653  0.00  0.00    +0.235 C 
ATOM     15  C   UNL     1      -2.406  -9.922  11.099  0.00  0.00    +0.185 C 
ATOM     16  C   UNL     1      -2.208 -12.952  12.598  0.00  0.00    +0.207 C 
ENDROOT
BRANCH  13   7
ATOM      7  N   UNL     1      -4.701  -9.788  10.299  0.00  0.00    -0.306 N 
ATOM      8  N   UNL     1      -4.974 -10.437   8.085  0.00  0.00    -0.214 NA
ATOM      9  N   UNL     1      -6.424  -8.798   9.095  0.00  0.00    -0.223 NA
ATOM     17  C   UNL     1      -5.396  -9.669   9.107  0.00  0.00    +0.216 A 
ATOM     19  C   UNL     1      -5.677 -10.299   6.941  0.00  0.00    +0.076 A 
ATOM     20  C   UNL     1      -7.082  -8.711   7.921  0.00  0.00    +0.116 A 
ATOM     21  C   UNL     1      -6.751  -9.443   6.799  0.00  0.00    +0.048 A 
ATOM     41  H   UNL     1      -5.046  -9.251  11.086  0.00  0.00    +0.149 HD
BRANCH  19  23
ATOM     23  C   UNL     1      -5.229 -11.121   5.843  0.00  0.00    +0.001 A 
ATOM     26  C   UNL     1      -4.012 -11.797   5.928  0.00  0.00    +0.013 A 
ATOM     27  C   UNL     1      -6.014 -11.241   4.696  0.00  0.00    +0.013 A 
ATOM     31  C   UNL     1      -3.579 -12.592   4.867  0.00  0.00    +0.046 A 
ATOM     32  C   UNL     1      -5.581 -12.036   3.635  0.00  0.00    +0.046 A 
ATOM     33  C   UNL     1      -4.363 -12.711   3.721  0.00  0.00    +0.120 A 
BRANCH  33   6
ATOM      6  O   UNL     1      -3.941 -13.487   2.685  0.00  0.00    -0.495 OA
ATOM     35  C   UNL     1      -4.811 -13.596   1.558  0.00  0.00    +0.277 C 
ENDBRANCH  33   6
ENDBRANCH  19  23
ENDBRANCH  13   7
BRANCH  14   3
ATOM      3  O   UNL     1      -2.059 -11.706  14.672  0.00  0.00    -0.442 OA
BRANCH   3  18
ATOM      4  O   UNL     1      -2.038 -10.672  16.711  0.00  0.00    -0.226 OA
ATOM     10  N   UNL     1      -3.939 -11.784  15.917  0.00  0.00    -0.251 N 
ATOM     18  C   UNL     1      -2.638 -11.323  15.865  0.00  0.00    +0.405 C 
ATOM     42  H   UNL     1      -4.262 -12.311  15.110  0.00  0.00    +0.158 HD
BRANCH  10  22
ATOM     22  C   UNL     1      -4.881 -11.614  16.957  0.00  0.00    +0.037 A 
ATOM     24  C   UNL     1      -5.309 -12.715  17.698  0.00  0.00    +0.027 A 
ATOM     25  C   UNL     1      -5.382 -10.343  17.242  0.00  0.00    +0.027 A 
ATOM     28  C   UNL     1      -6.238 -12.547  18.725  0.00  0.00    +0.048 A 
ATOM     29  C   UNL     1      -6.311 -10.175  18.269  0.00  0.00    +0.048 A 
ATOM     30  C   UNL     1      -6.739 -11.277  19.010  0.00  0.00    +0.129 A 
BRANCH  30   5
ATOM      5  O   UNL     1      -7.644 -11.113  20.013  0.00  0.00    -0.456 OA
BRANCH   5  34
ATOM     34  C   UNL     1      -8.981 -11.314  19.713  0.00  0.00    +0.128 A 
ATOM     36  C   UNL     1      -9.700 -10.327  19.037  0.00  0.00    +0.046 A 
ATOM     37  C   UNL     1      -9.610 -12.501  20.089  0.00  0.00    +0.046 A 
ATOM     38  C   UNL     1     -11.047 -10.528  18.736  0.00  0.00    +0.004 A 
ATOM     39  C   UNL     1     -10.957 -12.702  19.787  0.00  0.00    +0.004 A 
ATOM     40  C   UNL     1     -11.675 -11.716  19.111  0.00  0.00    +0.000 A 
ENDBRANCH   5  34
ENDBRANCH  30   5
ENDBRANCH  10  22
ENDBRANCH   3  18
ENDBRANCH  14   3
TORSDOF 8
ENDMDL
MODEL 10
REMARK VINA RESULT:      -7.2      9.413     14.549
REMARK  Name = 44716812
REMARK  9 active torsions:
REMARK  status: ('A' for Active; 'I' for Inactive)
REMARK    1  A    between atoms: O_3  and  C_14
REMARK    2  A    between atoms: O_3  and  C_18
REMARK    3  A    between atoms: O_5  and  C_30
REMARK    4  A    between atoms: O_5  and  C_34
REMARK    5  A    between atoms: O_6  and  C_33
REMARK    6  A    between atoms: O_6  and  C_35
REMARK    7  A    between atoms: N_7  and  C_13
REMARK    8  A    between atoms: N_10  and  C_22
REMARK    9  A    between atoms: C_19  and  C_23
REMARK                            x       y       z     vdW  Elec       q    Type
REMARK                         _______ _______ _______ _____ _____    ______ ____
ROOT
ATOM      1  O   UNL     1      -2.484 -15.656   2.691  0.00  0.00    -0.368 OA
ATOM      2  O   UNL     1      -2.678 -12.930   1.297  0.00  0.00    -0.368 OA
ATOM     11  C   UNL     1      -1.615 -13.543   2.058  0.00  0.00    +0.173 C 
ATOM     12  C   UNL     1      -2.272 -14.322   3.180  0.00  0.00    +0.192 C 
ATOM     13  C   UNL     1      -0.930 -14.604   1.229  0.00  0.00    +0.130 C 
ATOM     14  C   UNL     1      -3.575 -13.583   3.372  0.00  0.00    +0.235 C 
ATOM     15  C   UNL     1      -1.847 -15.800   1.412  0.00  0.00    +0.185 C 
ATOM     16  C   UNL     1      -3.926 -13.184   1.957  0.00  0.00    +0.207 C 
ENDROOT
BRANCH  13   7
ATOM      7  N   UNL     1       0.382 -14.889   1.765  0.00  0.00    -0.306 N 
ATOM      8  N   UNL     1       1.414 -14.468  -0.273  0.00  0.00    -0.214 NA
ATOM      9  N   UNL     1       2.692 -15.120   1.663  0.00  0.00    -0.223 NA
ATOM     17  C   UNL     1       1.547 -14.823   1.019  0.00  0.00    +0.216 A 
ATOM     19  C   UNL     1       2.569 -14.410  -0.969  0.00  0.00    +0.076 A 
ATOM     20  C   UNL     1       3.807 -15.041   0.908  0.00  0.00    +0.116 A 
ATOM     21  C   UNL     1       3.807 -14.689  -0.426  0.00  0.00    +0.048 A 
ATOM     41  H   UNL     1       0.482 -15.105   2.750  0.00  0.00    +0.149 HD
BRANCH  19  23
ATOM     23  C   UNL     1       2.432 -14.029  -2.355  0.00  0.00    +0.001 A 
ATOM     26  C   UNL     1       3.154 -14.703  -3.339  0.00  0.00    +0.013 A 
ATOM     27  C   UNL     1       1.575 -12.987  -2.709  0.00  0.00    +0.013 A 
ATOM     31  C   UNL     1       3.020 -14.335  -4.678  0.00  0.00    +0.046 A 
ATOM     32  C   UNL     1       1.441 -12.619  -4.047  0.00  0.00    +0.046 A 
ATOM     33  C   UNL     1       2.165 -13.292  -5.032  0.00  0.00    +0.120 A 
BRANCH  33   6
ATOM      6  O   UNL     1       2.034 -12.933  -6.338  0.00  0.00    -0.495 OA
ATOM     35  C   UNL     1       1.160 -11.842  -6.627  0.00  0.00    +0.277 C 
ENDBRANCH  33   6
ENDBRANCH  19  23
ENDBRANCH  13   7
BRANCH  14   3
ATOM      3  O   UNL     1      -4.584 -14.368   3.968  0.00  0.00    -0.442 OA
BRANCH   3  18
ATOM      4  O   UNL     1      -6.289 -14.178   5.479  0.00  0.00    -0.226 OA
ATOM     10  N   UNL     1      -4.270 -13.027   5.755  0.00  0.00    -0.251 N 
ATOM     18  C   UNL     1      -5.158 -13.874   5.121  0.00  0.00    +0.405 C 
ATOM     42  H   UNL     1      -3.369 -12.899   5.301  0.00  0.00    +0.158 HD
BRANCH  10  22
ATOM     22  C   UNL     1      -4.457 -12.314   6.961  0.00  0.00    +0.037 A 
ATOM     24  C   UNL     1      -4.814 -10.966   6.926  0.00  0.00    +0.027 A 
ATOM     25  C   UNL     1      -4.287 -12.959   8.186  0.00  0.00    +0.027 A 
ATOM     28  C   UNL     1      -4.999 -10.263   8.116  0.00  0.00    +0.048 A 
ATOM     29  C   UNL     1      -4.473 -12.256   9.376  0.00  0.00    +0.048 A 
ATOM     30  C   UNL     1      -4.829 -10.908   9.341  0.00  0.00    +0.129 A 
BRANCH  30   5
ATOM      5  O   UNL     1      -5.013 -10.221  10.502  0.00  0.00    -0.456 OA
BRANCH   5  34
ATOM     34  C   UNL     1      -4.007 -10.284  11.453  0.00  0.00    +0.128 A 
ATOM     36  C   UNL     1      -4.314 -10.628  12.769  0.00  0.00    +0.046 A 
ATOM     37  C   UNL     1      -2.689 -10.001  11.094  0.00  0.00    +0.046 A 
ATOM     38  C   UNL     1      -3.301 -10.690  13.728  0.00  0.00    +0.004 A 
ATOM     39  C   UNL     1      -1.677 -10.063  12.052  0.00  0.00    +0.004 A 
ATOM     40  C   UNL     1      -1.984 -10.407  13.369  0.00  0.00    +0.000 A 
ENDBRANCH   5  34
ENDBRANCH  30   5
ENDBRANCH  10  22
ENDBRANCH   3  18
ENDBRANCH  14   3
TORSDOF 8
ENDMDL
