REMARK  Name = 45783373
REMARK  8 active torsions:
REMARK  status: ('A' for Active; 'I' for Inactive)
REMARK    1  A    between atoms: O_3  and  C_28
REMARK    2  A    between atoms: O_3  and  C_29
REMARK    3  A    between atoms: N_4  and  C_13
REMARK    4  A    between atoms: N_7  and  C_25
REMARK    5  A    between atoms: C_9  and  C_14
REMARK    6  A    between atoms: C_13  and  C_15
REMARK    7  A    between atoms: C_16  and  C_19
REMARK    8  A    between atoms: C_25  and  C_28
REMARK                            x       y       z     vdW  Elec       q    Type
REMARK                         _______ _______ _______ _____ _____    ______ ____
ROOT
ATOM      2  O   UNL     1      -1.364  -2.679  -1.414  0.00  0.00    -0.336 OA
ATOM      5  N   UNL     1      -1.454  -1.133   0.204  0.00  0.00    -0.190 NA
ATOM      6  N   UNL     1      -2.504  -1.907  -1.675  0.00  0.00    -0.056 NA
ATOM     14  C   UNL     1      -0.805  -2.156  -0.292  0.00  0.00    +0.245 A 
ATOM     16  C   UNL     1      -2.489  -1.018  -0.678  0.00  0.00    +0.205 A 
ENDROOT
BRANCH  16  19
ATOM      7  N   UNL     1      -1.921   1.498   0.512  0.00  0.00    -0.326 N 
ATOM      8  N   UNL     1      -4.157   2.205   0.194  0.00  0.00    -0.240 NA
ATOM     19  C   UNL     1      -3.492  -0.003  -0.533  0.00  0.00    +0.062 A 
ATOM     23  C   UNL     1      -3.232   1.230   0.044  0.00  0.00    +0.130 A 
ATOM     24  C   UNL     1      -4.783  -0.250  -0.987  0.00  0.00    +0.016 A 
ATOM     26  C   UNL     1      -5.761   0.728  -0.851  0.00  0.00    +0.020 A 
ATOM     27  C   UNL     1      -5.400   1.928  -0.259  0.00  0.00    +0.113 A 
ATOM     30  H   UNL     1      -1.176   0.959   0.083  0.00  0.00    +0.148 HD
BRANCH   7  25
ATOM     25  C   UNL     1      -1.560   2.737   1.119  0.00  0.00    +0.131 C 
BRANCH  25  28
ATOM     28  C   UNL     1      -0.083   2.729   1.478  0.00  0.00    +0.178 C 
BRANCH  28   3
ATOM      3  O   UNL     1       0.170   1.690   2.416  0.00  0.00    -0.381 OA
ATOM     29  C   UNL     1       1.541   1.647   2.788  0.00  0.00    +0.194 C 
ENDBRANCH  28   3
ENDBRANCH  25  28
ENDBRANCH   7  25
ENDBRANCH  16  19
BRANCH  14   9
ATOM      4  N   UNL     1       1.596  -1.883   0.304  0.00  0.00    -0.287 NA
ATOM      9  C   UNL     1       0.461  -2.822   0.205  0.00  0.00    +0.146 C 
ATOM     10  C   UNL     1       0.310  -3.405   1.622  0.00  0.00    +0.030 C 
ATOM     11  C   UNL     1       1.438  -2.781   2.431  0.00  0.00    +0.017 C 
ATOM     12  C   UNL     1       2.454  -2.384   1.379  0.00  0.00    +0.085 C 
BRANCH   4  13
ATOM     13  C   UNL     1       2.323  -1.725  -0.949  0.00  0.00    +0.120 C 
BRANCH  13  15
ATOM      1 CL   UNL     1       5.520   3.370  -1.054  0.00  0.00    -0.084 Cl
ATOM     15  C   UNL     1       3.124  -0.451  -0.976  0.00  0.00    -0.033 A 
ATOM     17  C   UNL     1       2.549   0.724  -1.462  0.00  0.00    +0.006 A 
ATOM     18  C   UNL     1       4.440  -0.444  -0.514  0.00  0.00    +0.006 A 
ATOM     20  C   UNL     1       3.291   1.905  -1.488  0.00  0.00    +0.020 A 
ATOM     21  C   UNL     1       5.181   0.738  -0.539  0.00  0.00    +0.020 A 
ATOM     22  C   UNL     1       4.607   1.912  -1.026  0.00  0.00    +0.041 A 
ENDBRANCH  13  15
ENDBRANCH   4  13
ENDBRANCH  14   9
TORSDOF 7
