REMARK  Name = 75537136
REMARK  5 active torsions:
REMARK  status: ('A' for Active; 'I' for Inactive)
REMARK    1  A    between atoms: O_2  and  C_17
REMARK    2  A    between atoms: O_2  and  C_18
REMARK    3  A    between atoms: N_3  and  C_6
REMARK    4  A    between atoms: N_5  and  C_16
REMARK    5  A    between atoms: C_16  and  C_17
REMARK                            x       y       z     vdW  Elec       q    Type
REMARK                         _______ _______ _______ _____ _____    ______ ____
ROOT
ATOM      1  O   UNL     1      -2.366  -2.037   0.338  0.00  0.00    -0.252 OA
ATOM      3  N   UNL     1       2.317  -0.130  -0.059  0.00  0.00    -0.296 NA
ATOM      4  N   UNL     1      -0.317  -1.078  -0.292  0.00  0.00    -0.278 N 
ATOM      5  N   UNL     1      -2.211  -0.098  -0.996  0.00  0.00    -0.281 N 
ATOM      7  C   UNL     1       0.128  -0.016  -1.171  0.00  0.00    +0.109 C 
ATOM      8  C   UNL     1       1.250   0.785  -0.511  0.00  0.00    +0.108 C 
ATOM     12  C   UNL     1       1.798  -1.100   0.926  0.00  0.00    +0.104 C 
ATOM     13  C   UNL     1       0.665  -1.941   0.332  0.00  0.00    +0.125 C 
ATOM     14  C   UNL     1      -1.146   0.777  -1.456  0.00  0.00    +0.133 C 
ATOM     15  C   UNL     1      -1.713  -1.182  -0.246  0.00  0.00    +0.305 C 
ENDROOT
BRANCH   3   6
ATOM      6  C   UNL     1       3.385   0.647   0.552  0.00  0.00    +0.057 C 
ATOM      9  C   UNL     1       4.253   1.281  -0.556  0.00  0.00    +0.019 C 
ATOM     10  C   UNL     1       4.581  -0.281   0.855  0.00  0.00    +0.019 C 
ATOM     11  C   UNL     1       5.481   0.830   0.267  0.00  0.00    +0.003 C 
ENDBRANCH   3   6
BRANCH   5  16
ATOM     16  C   UNL     1      -3.607   0.230  -1.184  0.00  0.00    +0.137 C 
BRANCH  16  17
ATOM     17  C   UNL     1      -4.098   1.206  -0.131  0.00  0.00    +0.178 C 
BRANCH  17   2
ATOM      2  O   UNL     1      -3.974   0.615   1.155  0.00  0.00    -0.381 OA
ATOM     18  C   UNL     1      -4.427   1.492   2.178  0.00  0.00    +0.194 C 
ENDBRANCH  17   2
ENDBRANCH  16  17
ENDBRANCH   5  16
TORSDOF 4
