REMARK  Name = 28960232
REMARK  12 active torsions:
REMARK  status: ('A' for Active; 'I' for Inactive)
REMARK    1  A    between atoms: N_2  and  C_15
REMARK    2  A    between atoms: N_3  and  C_8
REMARK    3  A    between atoms: N_5  and  C_27
REMARK    4  A    between atoms: C_6  and  C_9
REMARK    5  A    between atoms: C_12  and  C_16
REMARK    6  A    between atoms: C_13  and  C_18
REMARK    7  A    between atoms: C_14  and  C_17
REMARK    8  A    between atoms: C_14  and  C_24
REMARK    9  A    between atoms: C_14  and  C_25
REMARK   10  A    between atoms: C_14  and  C_26
REMARK   11  A    between atoms: C_27  and  C_28
REMARK   12  A    between atoms: C_27  and  C_29
REMARK                            x       y       z     vdW  Elec       q    Type
REMARK                         _______ _______ _______ _____ _____    ______ ____
ROOT
ATOM      2  N   UNL     1      -1.868  -0.736   0.043  0.00  0.00    -0.236 N 
ATOM      4  N   UNL     1      -1.566  -1.916   0.610  0.00  0.00    -0.171 NA
ATOM      9  C   UNL     1       0.284  -0.917  -0.281  0.00  0.00    +0.003 A 
ATOM     12  C   UNL     1      -0.794  -0.097  -0.505  0.00  0.00    +0.046 A 
ATOM     13  C   UNL     1      -0.250  -2.022   0.409  0.00  0.00    +0.064 A 
ATOM     16  C   UNL     1      -0.889   1.213  -1.182  0.00  0.00    +0.066 C 
ATOM     18  C   UNL     1       0.465  -3.213   0.899  0.00  0.00    +0.068 C 
ENDROOT
BRANCH   2  15
ATOM     15  C   UNL     1      -3.186  -0.277   0.058  0.00  0.00    +0.066 A 
ATOM     17  C   UNL     1      -5.819   0.644   0.093  0.00  0.00    -0.042 A 
ATOM     20  C   UNL     1      -3.654   0.535  -0.975  0.00  0.00    +0.028 A 
ATOM     21  C   UNL     1      -4.034  -0.629   1.107  0.00  0.00    +0.028 A 
ATOM     22  C   UNL     1      -4.970   0.996  -0.957  0.00  0.00    +0.006 A 
ATOM     23  C   UNL     1      -5.350  -0.169   1.125  0.00  0.00    +0.006 A 
BRANCH  17  14
ATOM     14  C   UNL     1      -7.226   1.138   0.111  0.00  0.00    -0.013 C 
ATOM     24  C   UNL     1      -8.011   0.654  -1.147  0.00  0.00    +0.015 C 
ATOM     25  C   UNL     1      -7.279   2.697   0.128  0.00  0.00    +0.015 C 
ATOM     26  C   UNL     1      -8.082   0.679   1.338  0.00  0.00    +0.015 C 
ENDBRANCH  17  14
ENDBRANCH   2  15
BRANCH   9   6
ATOM      6  C   UNL     1       1.722  -0.683  -0.686  0.00  0.00    +0.047 C 
ATOM      7  C   UNL     1       2.699  -0.680   0.508  0.00  0.00    +0.039 C 
ATOM      8  C   UNL     1       4.002  -1.296  -0.016  0.00  0.00    +0.098 C 
ATOM     10  C   UNL     1       2.303  -1.743  -1.576  0.00  0.00    -0.021 C 
ATOM     11  C   UNL     1       3.547  -2.071  -1.209  0.00  0.00    -0.009 C 
BRANCH   8   3
ATOM      1  O   UNL     1       6.130  -0.158   1.567  0.00  0.00    -0.253 OA
ATOM      3  N   UNL     1       4.958  -0.305  -0.433  0.00  0.00    -0.293 N 
ATOM      5  N   UNL     1       6.745   1.140  -0.255  0.00  0.00    -0.297 N 
ATOM     19  C   UNL     1       5.961   0.194   0.400  0.00  0.00    +0.300 C 
ATOM     30  H   UNL     1       4.879   0.089  -1.366  0.00  0.00    +0.151 HD
ATOM     31  H   UNL     1       6.480   1.419  -1.196  0.00  0.00    +0.150 HD
BRANCH   5  27
ATOM     27  C   UNL     1       7.853   1.814   0.380  0.00  0.00    +0.068 C 
ATOM     28  C   UNL     1       7.371   3.073   1.088  0.00  0.00    +0.027 C 
ATOM     29  C   UNL     1       8.939   2.134  -0.640  0.00  0.00    +0.027 C 
ENDBRANCH   5  27
ENDBRANCH   8   3
ENDBRANCH   9   6
TORSDOF 5
