MODEL 1
REMARK VINA RESULT:      -6.6      0.000      0.000
REMARK  Name = 40779445
REMARK  8 active torsions:
REMARK  status: ('A' for Active; 'I' for Inactive)
REMARK    1  A    between atoms: O_2  and  C_21
REMARK    2  A    between atoms: O_2  and  C_29
REMARK    3  A    between atoms: N_4  and  C_18
REMARK    4  A    between atoms: N_5  and  C_15
REMARK    5  A    between atoms: C_8  and  C_14
REMARK    6  A    between atoms: C_9  and  C_15
REMARK    7  A    between atoms: C_17  and  C_20
REMARK    8  A    between atoms: C_19  and  C_21
REMARK                            x       y       z     vdW  Elec       q    Type
REMARK                         _______ _______ _______ _____ _____    ______ ____
ROOT
ATOM      3  N   UNL     1      -5.443 -10.366  18.220  0.00  0.00    -0.297 NA
ATOM      7  C   UNL     1      -5.063 -12.425  16.672  0.00  0.00    +0.002 C 
ATOM      8  C   UNL     1      -4.022 -11.314  16.364  0.00  0.00    +0.055 C 
ATOM      9  C   UNL     1      -6.726 -10.768  17.584  0.00  0.00    +0.074 C 
ATOM     10  C   UNL     1      -6.486 -11.851  16.510  0.00  0.00    +0.024 C 
ATOM     11  C   UNL     1      -4.891 -12.798  18.161  0.00  0.00    +0.019 C 
ATOM     12  C   UNL     1      -4.435 -10.054  17.177  0.00  0.00    +0.094 C 
ATOM     13  C   UNL     1      -4.948 -11.518  19.012  0.00  0.00    +0.085 C 
ENDROOT
BRANCH   8  14
ATOM      4  N   UNL     1      -2.483 -10.644  14.460  0.00  0.00    -0.270 N 
ATOM      6  N   UNL     1      -2.431 -10.397  13.140  0.00  0.00    -0.171 NA
ATOM     14  C   UNL     1      -3.725 -10.990  14.907  0.00  0.00    +0.044 A 
ATOM     16  C   UNL     1      -4.542 -10.967  13.803  0.00  0.00    +0.053 A 
ATOM     17  C   UNL     1      -3.691 -10.596  12.744  0.00  0.00    +0.093 A 
ATOM     18  C   UNL     1      -1.279 -10.525  15.248  0.00  0.00    +0.172 C 
BRANCH  17  20
ATOM     20  C   UNL     1      -4.060 -10.426  11.363  0.00  0.00    +0.003 A 
ATOM     22  C   UNL     1      -4.015 -11.514  10.491  0.00  0.00    +0.018 A 
ATOM     23  C   UNL     1      -4.463  -9.177  10.900  0.00  0.00    +0.011 A 
ATOM     24  C   UNL     1      -4.373 -11.366   9.141  0.00  0.00    -0.017 A 
ATOM     25  C   UNL     1      -4.822  -9.011   9.562  0.00  0.00    +0.009 A 
ATOM     26  C   UNL     1      -4.782 -10.095   8.669  0.00  0.00    -0.018 A 
ATOM     27  C   UNL     1      -4.332 -12.449   8.248  0.00  0.00    +0.008 A 
ATOM     28  C   UNL     1      -5.140  -9.946   7.320  0.00  0.00    +0.008 A 
ATOM     30  C   UNL     1      -4.691 -12.282   6.910  0.00  0.00    +0.001 A 
ATOM     31  C   UNL     1      -5.094 -11.034   6.446  0.00  0.00    +0.001 A 
ENDBRANCH  17  20
ENDBRANCH   8  14
BRANCH   9  15
ATOM     15  C   UNL     1      -7.500  -9.572  17.026  0.00  0.00    +0.123 C 
BRANCH  15   5
ATOM      1  O   UNL     1      -9.708  -8.318  15.640  0.00  0.00    -0.272 OA
ATOM      5  N   UNL     1      -7.934  -9.823  15.687  0.00  0.00    -0.311 N 
ATOM     19  C   UNL     1      -9.012  -9.170  15.094  0.00  0.00    +0.251 C 
ATOM     37  H   UNL     1      -7.448 -10.546  15.163  0.00  0.00    +0.149 HD
BRANCH  19  21
ATOM     21  C   UNL     1      -9.246  -9.629  13.671  0.00  0.00    +0.324 C 
BRANCH  21   2
ATOM      2  O   UNL     1      -8.047  -9.583  12.928  0.00  0.00    -0.483 OA
BRANCH   2  29
ATOM     29  C   UNL     1      -8.049 -10.187  11.694  0.00  0.00    +0.121 A 
ATOM     32  C   UNL     1      -7.695 -11.531  11.575  0.00  0.00    +0.045 A 
ATOM     33  C   UNL     1      -8.403  -9.457  10.559  0.00  0.00    +0.045 A 
ATOM     34  C   UNL     1      -7.696 -12.145  10.323  0.00  0.00    +0.004 A 
ATOM     35  C   UNL     1      -8.404 -10.071   9.307  0.00  0.00    +0.004 A 
ATOM     36  C   UNL     1      -8.051 -11.415   9.188  0.00  0.00    +0.000 A 
ENDBRANCH   2  29
ENDBRANCH  21   2
ENDBRANCH  19  21
ENDBRANCH  15   5
ENDBRANCH   9  15
TORSDOF 7
ENDMDL
MODEL 2
REMARK VINA RESULT:      -6.5     24.124     27.428
REMARK  Name = 40779445
REMARK  8 active torsions:
REMARK  status: ('A' for Active; 'I' for Inactive)
REMARK    1  A    between atoms: O_2  and  C_21
REMARK    2  A    between atoms: O_2  and  C_29
REMARK    3  A    between atoms: N_4  and  C_18
REMARK    4  A    between atoms: N_5  and  C_15
REMARK    5  A    between atoms: C_8  and  C_14
REMARK    6  A    between atoms: C_9  and  C_15
REMARK    7  A    between atoms: C_17  and  C_20
REMARK    8  A    between atoms: C_19  and  C_21
REMARK                            x       y       z     vdW  Elec       q    Type
REMARK                         _______ _______ _______ _____ _____    ______ ____
ROOT
ATOM      3  N   UNL     1      13.480   4.719  -2.151  0.00  0.00    -0.297 NA
ATOM      7  C   UNL     1      11.532   3.500  -0.925  0.00  0.00    +0.002 C 
ATOM      8  C   UNL     1      11.186   4.999  -1.138  0.00  0.00    +0.055 C 
ATOM      9  C   UNL     1      14.009   3.947  -0.996  0.00  0.00    +0.074 C 
ATOM     10  C   UNL     1      12.854   3.388  -0.138  0.00  0.00    +0.024 C 
ATOM     11  C   UNL     1      11.784   2.897  -2.324  0.00  0.00    +0.019 C 
ATOM     12  C   UNL     1      12.465   5.696  -1.686  0.00  0.00    +0.094 C 
ATOM     13  C   UNL     1      12.815   3.763  -3.070  0.00  0.00    +0.085 C 
ENDROOT
BRANCH   8  14
ATOM      4  N   UNL     1       9.890   6.942  -0.142  0.00  0.00    -0.270 N 
ATOM      6  N   UNL     1       9.416   7.458   1.004  0.00  0.00    -0.171 NA
ATOM     14  C   UNL     1      10.562   5.765   0.020  0.00  0.00    +0.044 A 
ATOM     16  C   UNL     1      10.525   5.494   1.366  0.00  0.00    +0.053 A 
ATOM     17  C   UNL     1       9.807   6.570   1.922  0.00  0.00    +0.093 A 
ATOM     18  C   UNL     1       9.659   7.645  -1.382  0.00  0.00    +0.172 C 
BRANCH  17  20
ATOM     20  C   UNL     1       9.489   6.765   3.312  0.00  0.00    +0.003 A 
ATOM     22  C   UNL     1       9.961   5.865   4.268  0.00  0.00    +0.018 A 
ATOM     23  C   UNL     1       8.712   7.852   3.701  0.00  0.00    +0.011 A 
ATOM     24  C   UNL     1       9.661   6.042   5.629  0.00  0.00    -0.017 A 
ATOM     25  C   UNL     1       8.403   8.043   5.048  0.00  0.00    +0.009 A 
ATOM     26  C   UNL     1       8.870   7.147   6.025  0.00  0.00    -0.018 A 
ATOM     27  C   UNL     1      10.126   5.147   6.605  0.00  0.00    +0.008 A 
ATOM     28  C   UNL     1       8.569   7.325   7.385  0.00  0.00    +0.008 A 
ATOM     30  C   UNL     1       9.818   5.339   7.952  0.00  0.00    +0.001 A 
ATOM     31  C   UNL     1       9.040   6.425   8.342  0.00  0.00    +0.001 A 
ENDBRANCH  17  20
ENDBRANCH   8  14
BRANCH   9  15
ATOM     15  C   UNL     1      15.002   4.757  -0.159  0.00  0.00    +0.123 C 
BRANCH  15   5
ATOM      1  O   UNL     1      14.599   7.430   0.870  0.00  0.00    -0.272 OA
ATOM      5  N   UNL     1      14.431   5.121   1.101  0.00  0.00    -0.311 N 
ATOM     19  C   UNL     1      14.273   6.440   1.519  0.00  0.00    +0.251 C 
ATOM     37  H   UNL     1      14.167   4.369   1.732  0.00  0.00    +0.149 HD
BRANCH  19  21
ATOM     21  C   UNL     1      13.641   6.533   2.892  0.00  0.00    +0.324 C 
BRANCH  21   2
ATOM      2  O   UNL     1      13.192   7.847   3.146  0.00  0.00    -0.483 OA
BRANCH   2  29
ATOM     29  C   UNL     1      12.804   8.140   4.432  0.00  0.00    +0.121 A 
ATOM     32  C   UNL     1      13.220   7.330   5.487  0.00  0.00    +0.045 A 
ATOM     33  C   UNL     1      11.994   9.248   4.681  0.00  0.00    +0.045 A 
ATOM     34  C   UNL     1      12.826   7.626   6.792  0.00  0.00    +0.004 A 
ATOM     35  C   UNL     1      11.601   9.546   5.985  0.00  0.00    +0.004 A 
ATOM     36  C   UNL     1      12.016   8.735   7.041  0.00  0.00    +0.000 A 
ENDBRANCH   2  29
ENDBRANCH  21   2
ENDBRANCH  19  21
ENDBRANCH  15   5
ENDBRANCH   9  15
TORSDOF 7
ENDMDL
MODEL 3
REMARK VINA RESULT:      -6.3      1.841      2.869
REMARK  Name = 40779445
REMARK  8 active torsions:
REMARK  status: ('A' for Active; 'I' for Inactive)
REMARK    1  A    between atoms: O_2  and  C_21
REMARK    2  A    between atoms: O_2  and  C_29
REMARK    3  A    between atoms: N_4  and  C_18
REMARK    4  A    between atoms: N_5  and  C_15
REMARK    5  A    between atoms: C_8  and  C_14
REMARK    6  A    between atoms: C_9  and  C_15
REMARK    7  A    between atoms: C_17  and  C_20
REMARK    8  A    between atoms: C_19  and  C_21
REMARK                            x       y       z     vdW  Elec       q    Type
REMARK                         _______ _______ _______ _____ _____    ______ ____
ROOT
ATOM      3  N   UNL     1      -6.617 -11.005  18.543  0.00  0.00    -0.297 NA
ATOM      7  C   UNL     1      -4.494 -12.302  17.773  0.00  0.00    +0.002 C 
ATOM      8  C   UNL     1      -4.488 -10.859  17.197  0.00  0.00    +0.055 C 
ATOM      9  C   UNL     1      -7.004 -12.327  17.983  0.00  0.00    +0.074 C 
ATOM     10  C   UNL     1      -5.787 -13.021  17.334  0.00  0.00    +0.024 C 
ATOM     11  C   UNL     1      -4.548 -12.169  19.310  0.00  0.00    +0.019 C 
ATOM     12  C   UNL     1      -5.868 -10.222  17.530  0.00  0.00    +0.094 C 
ATOM     13  C   UNL     1      -5.717 -11.247  19.698  0.00  0.00    +0.085 C 
ENDROOT
BRANCH   8  14
ATOM      4  N   UNL     1      -2.804 -10.622  15.313  0.00  0.00    -0.270 N 
ATOM      6  N   UNL     1      -2.674 -10.446  13.987  0.00  0.00    -0.171 NA
ATOM     14  C   UNL     1      -4.100 -10.668  15.738  0.00  0.00    +0.044 A 
ATOM     16  C   UNL     1      -4.871 -10.511  14.612  0.00  0.00    +0.053 A 
ATOM     17  C   UNL     1      -3.939 -10.379  13.565  0.00  0.00    +0.093 A 
ATOM     18  C   UNL     1      -1.618 -10.740  16.129  0.00  0.00    +0.172 C 
BRANCH  17  20
ATOM     20  C   UNL     1      -4.236 -10.188  12.169  0.00  0.00    +0.003 A 
ATOM     22  C   UNL     1      -5.561 -10.079  11.746  0.00  0.00    +0.018 A 
ATOM     23  C   UNL     1      -3.200 -10.112  11.242  0.00  0.00    +0.011 A 
ATOM     24  C   UNL     1      -5.867  -9.892  10.388  0.00  0.00    -0.017 A 
ATOM     25  C   UNL     1      -3.486  -9.927   9.889  0.00  0.00    +0.009 A 
ATOM     26  C   UNL     1      -4.814  -9.815   9.446  0.00  0.00    -0.018 A 
ATOM     27  C   UNL     1      -7.195  -9.780   9.945  0.00  0.00    +0.008 A 
ATOM     28  C   UNL     1      -5.120  -9.627   8.088  0.00  0.00    +0.008 A 
ATOM     30  C   UNL     1      -7.480  -9.594   8.592  0.00  0.00    +0.001 A 
ATOM     31  C   UNL     1      -6.445  -9.518   7.665  0.00  0.00    +0.001 A 
ENDBRANCH  17  20
ENDBRANCH   8  14
BRANCH   9  15
ATOM     15  C   UNL     1      -8.186 -12.226  17.016  0.00  0.00    +0.123 C 
BRANCH  15   5
ATOM      1  O   UNL     1      -8.733 -11.188  14.372  0.00  0.00    -0.272 OA
ATOM      5  N   UNL     1      -7.877 -12.845  15.765  0.00  0.00    -0.311 N 
ATOM     19  C   UNL     1      -8.177 -12.272  14.531  0.00  0.00    +0.251 C 
ATOM     37  H   UNL     1      -7.453 -13.768  15.789  0.00  0.00    +0.149 HD
BRANCH  19  21
ATOM     21  C   UNL     1      -7.737 -13.143  13.374  0.00  0.00    +0.324 C 
BRANCH  21   2
ATOM      2  O   UNL     1      -6.428 -13.628  13.585  0.00  0.00    -0.483 OA
BRANCH   2  29
ATOM     29  C   UNL     1      -5.584 -13.650  12.499  0.00  0.00    +0.121 A 
ATOM     32  C   UNL     1      -6.102 -13.529  11.211  0.00  0.00    +0.045 A 
ATOM     33  C   UNL     1      -4.209 -13.795  12.687  0.00  0.00    +0.045 A 
ATOM     34  C   UNL     1      -5.247 -13.553  10.109  0.00  0.00    +0.004 A 
ATOM     35  C   UNL     1      -3.354 -13.818  11.587  0.00  0.00    +0.004 A 
ATOM     36  C   UNL     1      -3.872 -13.696  10.297  0.00  0.00    +0.000 A 
ENDBRANCH   2  29
ENDBRANCH  21   2
ENDBRANCH  19  21
ENDBRANCH  15   5
ENDBRANCH   9  15
TORSDOF 7
ENDMDL
MODEL 4
REMARK VINA RESULT:      -6.2     25.191     28.391
REMARK  Name = 40779445
REMARK  8 active torsions:
REMARK  status: ('A' for Active; 'I' for Inactive)
REMARK    1  A    between atoms: O_2  and  C_21
REMARK    2  A    between atoms: O_2  and  C_29
REMARK    3  A    between atoms: N_4  and  C_18
REMARK    4  A    between atoms: N_5  and  C_15
REMARK    5  A    between atoms: C_8  and  C_14
REMARK    6  A    between atoms: C_9  and  C_15
REMARK    7  A    between atoms: C_17  and  C_20
REMARK    8  A    between atoms: C_19  and  C_21
REMARK                            x       y       z     vdW  Elec       q    Type
REMARK                         _______ _______ _______ _____ _____    ______ ____
ROOT
ATOM      3  N   UNL     1      15.882   7.066  -1.816  0.00  0.00    -0.297 NA
ATOM      7  C   UNL     1      15.379   4.573  -1.256  0.00  0.00    +0.002 C 
ATOM      8  C   UNL     1      14.056   5.370  -1.426  0.00  0.00    +0.055 C 
ATOM      9  C   UNL     1      16.673   6.641  -0.631  0.00  0.00    +0.074 C 
ATOM     10  C   UNL     1      16.237   5.238  -0.159  0.00  0.00    +0.024 C 
ATOM     11  C   UNL     1      16.155   4.708  -2.583  0.00  0.00    +0.019 C 
ATOM     12  C   UNL     1      14.434   6.873  -1.557  0.00  0.00    +0.094 C 
ATOM     13  C   UNL     1      16.268   6.197  -2.955  0.00  0.00    +0.085 C 
ENDROOT
BRANCH   8  14
ATOM      4  N   UNL     1      11.970   4.197  -0.580  0.00  0.00    -0.270 N 
ATOM      6  N   UNL     1      11.079   4.153   0.425  0.00  0.00    -0.171 NA
ATOM     14  C   UNL     1      12.942   5.139  -0.415  0.00  0.00    +0.044 A 
ATOM     16  C   UNL     1      12.668   5.756   0.782  0.00  0.00    +0.053 A 
ATOM     17  C   UNL     1      11.511   5.107   1.254  0.00  0.00    +0.093 A 
ATOM     18  C   UNL     1      11.824   3.287  -1.693  0.00  0.00    +0.172 C 
BRANCH  17  20
ATOM     20  C   UNL     1      10.810   5.384   2.481  0.00  0.00    +0.003 A 
ATOM     22  C   UNL     1      10.090   6.571   2.620  0.00  0.00    +0.018 A 
ATOM     23  C   UNL     1      10.849   4.466   3.525  0.00  0.00    +0.011 A 
ATOM     24  C   UNL     1       9.400   6.855   3.809  0.00  0.00    -0.017 A 
ATOM     25  C   UNL     1      10.170   4.731   4.715  0.00  0.00    +0.009 A 
ATOM     26  C   UNL     1       9.440   5.922   4.873  0.00  0.00    -0.018 A 
ATOM     27  C   UNL     1       8.671   8.045   3.968  0.00  0.00    +0.008 A 
ATOM     28  C   UNL     1       8.750   6.205   6.062  0.00  0.00    +0.008 A 
ATOM     30  C   UNL     1       7.991   8.310   5.157  0.00  0.00    +0.001 A 
ATOM     31  C   UNL     1       8.031   7.392   6.203  0.00  0.00    +0.001 A 
ENDBRANCH  17  20
ENDBRANCH   8  14
BRANCH   9  15
ATOM     15  C   UNL     1      16.620   7.667   0.503  0.00  0.00    +0.123 C 
BRANCH  15   5
ATOM      1  O   UNL     1      15.992   9.034   2.974  0.00  0.00    -0.272 OA
ATOM      5  N   UNL     1      16.025   7.103   1.675  0.00  0.00    -0.311 N 
ATOM     19  C   UNL     1      15.756   7.838   2.828  0.00  0.00    +0.251 C 
ATOM     37  H   UNL     1      15.830   6.106   1.670  0.00  0.00    +0.149 HD
BRANCH  19  21
ATOM     21  C   UNL     1      15.123   6.990   3.911  0.00  0.00    +0.324 C 
BRANCH  21   2
ATOM      2  O   UNL     1      13.720   6.954   3.761  0.00  0.00    -0.483 OA
BRANCH   2  29
ATOM     29  C   UNL     1      12.972   7.629   4.696  0.00  0.00    +0.121 A 
ATOM     32  C   UNL     1      12.748   7.063   5.950  0.00  0.00    +0.045 A 
ATOM     33  C   UNL     1      12.434   8.879   4.390  0.00  0.00    +0.045 A 
ATOM     34  C   UNL     1      11.988   7.746   6.900  0.00  0.00    +0.004 A 
ATOM     35  C   UNL     1      11.675   9.563   5.338  0.00  0.00    +0.004 A 
ATOM     36  C   UNL     1      11.451   8.997   6.593  0.00  0.00    +0.000 A 
ENDBRANCH   2  29
ENDBRANCH  21   2
ENDBRANCH  19  21
ENDBRANCH  15   5
ENDBRANCH   9  15
TORSDOF 7
ENDMDL
MODEL 5
REMARK VINA RESULT:      -6.2     26.369     27.784
REMARK  Name = 40779445
REMARK  8 active torsions:
REMARK  status: ('A' for Active; 'I' for Inactive)
REMARK    1  A    between atoms: O_2  and  C_21
REMARK    2  A    between atoms: O_2  and  C_29
REMARK    3  A    between atoms: N_4  and  C_18
REMARK    4  A    between atoms: N_5  and  C_15
REMARK    5  A    between atoms: C_8  and  C_14
REMARK    6  A    between atoms: C_9  and  C_15
REMARK    7  A    between atoms: C_17  and  C_20
REMARK    8  A    between atoms: C_19  and  C_21
REMARK                            x       y       z     vdW  Elec       q    Type
REMARK                         _______ _______ _______ _____ _____    ______ ____
ROOT
ATOM      3  N   UNL     1      14.939  -7.241  32.217  0.00  0.00    -0.297 NA
ATOM      7  C   UNL     1      13.451  -6.981  30.095  0.00  0.00    +0.002 C 
ATOM      8  C   UNL     1      14.662  -7.908  29.800  0.00  0.00    +0.055 C 
ATOM      9  C   UNL     1      14.667  -5.802  31.959  0.00  0.00    +0.074 C 
ATOM     10  C   UNL     1      13.965  -5.615  30.597  0.00  0.00    +0.024 C 
ATOM     11  C   UNL     1      12.668  -7.627  31.259  0.00  0.00    +0.019 C 
ATOM     12  C   UNL     1      15.602  -7.853  31.039  0.00  0.00    +0.094 C 
ATOM     13  C   UNL     1      13.636  -7.920  32.419  0.00  0.00    +0.085 C 
ENDROOT
BRANCH   8  14
ATOM      4  N   UNL     1      16.030  -8.732  27.826  0.00  0.00    -0.270 N 
ATOM      6  N   UNL     1      16.642  -8.350  26.693  0.00  0.00    -0.171 NA
ATOM     14  C   UNL     1      15.417  -7.711  28.493  0.00  0.00    +0.044 A 
ATOM     16  C   UNL     1      15.645  -6.583  27.743  0.00  0.00    +0.053 A 
ATOM     17  C   UNL     1      16.404  -7.036  26.648  0.00  0.00    +0.093 A 
ATOM     18  C   UNL     1      16.074 -10.121  28.219  0.00  0.00    +0.172 C 
BRANCH  17  20
ATOM     20  C   UNL     1      16.906  -6.238  25.560  0.00  0.00    +0.003 A 
ATOM     22  C   UNL     1      16.509  -4.907  25.431  0.00  0.00    +0.018 A 
ATOM     23  C   UNL     1      17.787  -6.795  24.638  0.00  0.00    +0.011 A 
ATOM     24  C   UNL     1      16.991  -4.114  24.376  0.00  0.00    -0.017 A 
ATOM     25  C   UNL     1      18.275  -6.023  23.584  0.00  0.00    +0.009 A 
ATOM     26  C   UNL     1      17.887  -4.680  23.438  0.00  0.00    -0.018 A 
ATOM     27  C   UNL     1      16.603  -2.773  24.231  0.00  0.00    +0.008 A 
ATOM     28  C   UNL     1      18.369  -3.889  22.384  0.00  0.00    +0.008 A 
ATOM     30  C   UNL     1      17.091  -2.001  23.176  0.00  0.00    +0.001 A 
ATOM     31  C   UNL     1      17.973  -2.557  22.254  0.00  0.00    +0.001 A 
ENDBRANCH  17  20
ENDBRANCH   8  14
BRANCH   9  15
ATOM     15  C   UNL     1      15.927  -4.942  32.074  0.00  0.00    +0.123 C 
BRANCH  15   5
ATOM      1  O   UNL     1      18.523  -5.185  30.821  0.00  0.00    -0.272 OA
ATOM      5  N   UNL     1      16.320  -4.436  30.795  0.00  0.00    -0.311 N 
ATOM     19  C   UNL     1      17.597  -4.600  30.265  0.00  0.00    +0.251 C 
ATOM     37  H   UNL     1      15.635  -3.897  30.273  0.00  0.00    +0.149 HD
BRANCH  19  21
ATOM     21  C   UNL     1      17.734  -3.966  28.897  0.00  0.00    +0.324 C 
BRANCH  21   2
ATOM      2  O   UNL     1      18.885  -4.449  28.237  0.00  0.00    -0.483 OA
BRANCH   2  29
ATOM     29  C   UNL     1      19.385  -3.686  27.208  0.00  0.00    +0.121 A 
ATOM     32  C   UNL     1      20.294  -4.240  26.308  0.00  0.00    +0.045 A 
ATOM     33  C   UNL     1      18.985  -2.358  27.066  0.00  0.00    +0.045 A 
ATOM     34  C   UNL     1      20.803  -3.466  25.264  0.00  0.00    +0.004 A 
ATOM     35  C   UNL     1      19.493  -1.584  26.024  0.00  0.00    +0.004 A 
ATOM     36  C   UNL     1      20.401  -2.137  25.122  0.00  0.00    +0.000 A 
ENDBRANCH   2  29
ENDBRANCH  21   2
ENDBRANCH  19  21
ENDBRANCH  15   5
ENDBRANCH   9  15
TORSDOF 7
ENDMDL
MODEL 6
REMARK VINA RESULT:      -6.1     22.809     26.864
REMARK  Name = 40779445
REMARK  8 active torsions:
REMARK  status: ('A' for Active; 'I' for Inactive)
REMARK    1  A    between atoms: O_2  and  C_21
REMARK    2  A    between atoms: O_2  and  C_29
REMARK    3  A    between atoms: N_4  and  C_18
REMARK    4  A    between atoms: N_5  and  C_15
REMARK    5  A    between atoms: C_8  and  C_14
REMARK    6  A    between atoms: C_9  and  C_15
REMARK    7  A    between atoms: C_17  and  C_20
REMARK    8  A    between atoms: C_19  and  C_21
REMARK                            x       y       z     vdW  Elec       q    Type
REMARK                         _______ _______ _______ _____ _____    ______ ____
ROOT
ATOM      3  N   UNL     1     -13.767   9.682  34.512  0.00  0.00    -0.297 NA
ATOM      7  C   UNL     1     -13.166   9.339  32.001  0.00  0.00    +0.002 C 
ATOM      8  C   UNL     1     -14.707   9.367  32.192  0.00  0.00    +0.055 C 
ATOM      9  C   UNL     1     -12.774   8.584  34.371  0.00  0.00    +0.074 C 
ATOM     10  C   UNL     1     -12.562   8.228  32.884  0.00  0.00    +0.024 C 
ATOM     11  C   UNL     1     -12.626  10.685  32.533  0.00  0.00    +0.019 C 
ATOM     12  C   UNL     1     -14.984   9.370  33.723  0.00  0.00    +0.094 C 
ATOM     13  C   UNL     1     -13.160  10.916  33.957  0.00  0.00    +0.085 C 
ENDROOT
BRANCH   8  14
ATOM      4  N   UNL     1     -16.736   8.617  30.864  0.00  0.00    -0.270 N 
ATOM      6  N   UNL     1     -17.315   7.562  30.267  0.00  0.00    -0.171 NA
ATOM     14  C   UNL     1     -15.542   8.328  31.456  0.00  0.00    +0.044 A 
ATOM     16  C   UNL     1     -15.325   6.990  31.232  0.00  0.00    +0.053 A 
ATOM     17  C   UNL     1     -16.449   6.571  30.495  0.00  0.00    +0.093 A 
ATOM     18  C   UNL     1     -17.398   9.900  30.827  0.00  0.00    +0.172 C 
BRANCH  17  20
ATOM     20  C   UNL     1     -16.712   5.242  30.007  0.00  0.00    +0.003 A 
ATOM     22  C   UNL     1     -16.350   4.894  28.705  0.00  0.00    +0.018 A 
ATOM     23  C   UNL     1     -17.325   4.306  30.834  0.00  0.00    +0.011 A 
ATOM     24  C   UNL     1     -16.597   3.602  28.214  0.00  0.00    -0.017 A 
ATOM     25  C   UNL     1     -17.579   3.018  30.363  0.00  0.00    +0.009 A 
ATOM     26  C   UNL     1     -17.221   2.650  29.055  0.00  0.00    -0.018 A 
ATOM     27  C   UNL     1     -16.241   3.234  26.907  0.00  0.00    +0.008 A 
ATOM     28  C   UNL     1     -17.469   1.358  28.564  0.00  0.00    +0.008 A 
ATOM     30  C   UNL     1     -16.495   1.945  26.435  0.00  0.00    +0.001 A 
ATOM     31  C   UNL     1     -17.108   1.009  27.262  0.00  0.00    +0.001 A 
ENDBRANCH  17  20
ENDBRANCH   8  14
BRANCH   9  15
ATOM     15  C   UNL     1     -13.143   7.355  35.206  0.00  0.00    +0.123 C 
BRANCH  15   5
ATOM      1  O   UNL     1     -14.028   4.724  36.020  0.00  0.00    -0.272 OA
ATOM      5  N   UNL     1     -13.901   6.421  34.432  0.00  0.00    -0.311 N 
ATOM     19  C   UNL     1     -14.287   5.169  34.905  0.00  0.00    +0.251 C 
ATOM     37  H   UNL     1     -14.129   6.678  33.476  0.00  0.00    +0.149 HD
BRANCH  19  21
ATOM     21  C   UNL     1     -15.081   4.390  33.878  0.00  0.00    +0.324 C 
BRANCH  21   2
ATOM      2  O   UNL     1     -14.627   3.055  33.805  0.00  0.00    -0.483 OA
BRANCH   2  29
ATOM     29  C   UNL     1     -14.424   2.529  32.551  0.00  0.00    +0.121 A 
ATOM     32  C   UNL     1     -14.817   1.221  32.272  0.00  0.00    +0.045 A 
ATOM     33  C   UNL     1     -13.823   3.303  31.558  0.00  0.00    +0.045 A 
ATOM     34  C   UNL     1     -14.610   0.686  31.000  0.00  0.00    +0.004 A 
ATOM     35  C   UNL     1     -13.616   2.770  30.287  0.00  0.00    +0.004 A 
ATOM     36  C   UNL     1     -14.010   1.461  30.007  0.00  0.00    +0.000 A 
ENDBRANCH   2  29
ENDBRANCH  21   2
ENDBRANCH  19  21
ENDBRANCH  15   5
ENDBRANCH   9  15
TORSDOF 7
ENDMDL
MODEL 7
REMARK VINA RESULT:      -6.1      2.008      7.324
REMARK  Name = 40779445
REMARK  8 active torsions:
REMARK  status: ('A' for Active; 'I' for Inactive)
REMARK    1  A    between atoms: O_2  and  C_21
REMARK    2  A    between atoms: O_2  and  C_29
REMARK    3  A    between atoms: N_4  and  C_18
REMARK    4  A    between atoms: N_5  and  C_15
REMARK    5  A    between atoms: C_8  and  C_14
REMARK    6  A    between atoms: C_9  and  C_15
REMARK    7  A    between atoms: C_17  and  C_20
REMARK    8  A    between atoms: C_19  and  C_21
REMARK                            x       y       z     vdW  Elec       q    Type
REMARK                         _______ _______ _______ _____ _____    ______ ____
ROOT
ATOM      3  N   UNL     1      -5.558 -10.813   9.086  0.00  0.00    -0.297 NA
ATOM      7  C   UNL     1      -5.144  -8.768  10.645  0.00  0.00    +0.002 C 
ATOM      8  C   UNL     1      -4.289  -9.981  11.102  0.00  0.00    +0.055 C 
ATOM      9  C   UNL     1      -6.856 -10.249   9.541  0.00  0.00    +0.074 C 
ATOM     10  C   UNL     1      -6.633  -9.172  10.624  0.00  0.00    +0.024 C 
ATOM     11  C   UNL     1      -4.738  -8.459   9.187  0.00  0.00    +0.019 C 
ATOM     12  C   UNL     1      -4.737 -11.209  10.257  0.00  0.00    +0.094 C 
ATOM     13  C   UNL     1      -4.832  -9.748   8.352  0.00  0.00    +0.085 C 
ENDROOT
BRANCH   8  14
ATOM      4  N   UNL     1      -3.050 -10.427  13.272  0.00  0.00    -0.270 N 
ATOM      6  N   UNL     1      -3.209 -10.706  14.577  0.00  0.00    -0.171 NA
ATOM     14  C   UNL     1      -4.224 -10.296  12.589  0.00  0.00    +0.044 A 
ATOM     16  C   UNL     1      -5.220 -10.506  13.512  0.00  0.00    +0.053 A 
ATOM     17  C   UNL     1      -4.536 -10.753  14.717  0.00  0.00    +0.093 A 
ATOM     18  C   UNL     1      -1.715 -10.297  12.735  0.00  0.00    +0.172 C 
BRANCH  17  20
ATOM     20  C   UNL     1      -5.126 -11.035  16.000  0.00  0.00    +0.003 A 
ATOM     22  C   UNL     1      -6.178 -11.947  16.097  0.00  0.00    +0.018 A 
ATOM     23  C   UNL     1      -4.648 -10.399  17.140  0.00  0.00    +0.011 A 
ATOM     24  C   UNL     1      -6.764 -12.235  17.341  0.00  0.00    -0.017 A 
ATOM     25  C   UNL     1      -5.218 -10.672  18.384  0.00  0.00    +0.009 A 
ATOM     26  C   UNL     1      -6.278 -11.587  18.501  0.00  0.00    -0.018 A 
ATOM     27  C   UNL     1      -7.824 -13.148  17.458  0.00  0.00    +0.008 A 
ATOM     28  C   UNL     1      -6.863 -11.874  19.745  0.00  0.00    +0.008 A 
ATOM     30  C   UNL     1      -8.394 -13.421  18.702  0.00  0.00    +0.001 A 
ATOM     31  C   UNL     1      -7.915 -12.785  19.843  0.00  0.00    +0.001 A 
ENDBRANCH  17  20
ENDBRANCH   8  14
BRANCH   9  15
ATOM     15  C   UNL     1      -7.831 -11.333  10.006  0.00  0.00    +0.123 C 
BRANCH  15   5
ATOM      1  O   UNL     1     -10.144 -12.156  11.536  0.00  0.00    -0.272 OA
ATOM      5  N   UNL     1      -7.978 -11.312  11.429  0.00  0.00    -0.311 N 
ATOM     19  C   UNL     1      -9.133 -11.729  12.087  0.00  0.00    +0.251 C 
ATOM     37  H   UNL     1      -7.209 -10.934  11.975  0.00  0.00    +0.149 HD
BRANCH  19  21
ATOM     21  C   UNL     1      -9.012 -11.601  13.590  0.00  0.00    +0.324 C 
BRANCH  21   2
ATOM      2  O   UNL     1      -9.631 -10.415  14.041  0.00  0.00    -0.483 OA
BRANCH   2  29
ATOM     29  C   UNL     1      -9.545 -10.133  15.384  0.00  0.00    +0.121 A 
ATOM     32  C   UNL     1     -10.423 -10.740  16.281  0.00  0.00    +0.045 A 
ATOM     33  C   UNL     1      -8.581  -9.239  15.849  0.00  0.00    +0.045 A 
ATOM     34  C   UNL     1     -10.337 -10.454  17.644  0.00  0.00    +0.004 A 
ATOM     35  C   UNL     1      -8.494  -8.952  17.210  0.00  0.00    +0.004 A 
ATOM     36  C   UNL     1      -9.372  -9.560  18.108  0.00  0.00    +0.000 A 
ENDBRANCH   2  29
ENDBRANCH  21   2
ENDBRANCH  19  21
ENDBRANCH  15   5
ENDBRANCH   9  15
TORSDOF 7
ENDMDL
MODEL 8
REMARK VINA RESULT:      -6.1     27.450     29.926
REMARK  Name = 40779445
REMARK  8 active torsions:
REMARK  status: ('A' for Active; 'I' for Inactive)
REMARK    1  A    between atoms: O_2  and  C_21
REMARK    2  A    between atoms: O_2  and  C_29
REMARK    3  A    between atoms: N_4  and  C_18
REMARK    4  A    between atoms: N_5  and  C_15
REMARK    5  A    between atoms: C_8  and  C_14
REMARK    6  A    between atoms: C_9  and  C_15
REMARK    7  A    between atoms: C_17  and  C_20
REMARK    8  A    between atoms: C_19  and  C_21
REMARK                            x       y       z     vdW  Elec       q    Type
REMARK                         _______ _______ _______ _____ _____    ______ ____
ROOT
ATOM      3  N   UNL     1      16.430  -7.666  -5.611  0.00  0.00    -0.297 NA
ATOM      7  C   UNL     1      15.229  -6.489  -3.622  0.00  0.00    +0.002 C 
ATOM      8  C   UNL     1      16.513  -5.711  -4.019  0.00  0.00    +0.055 C 
ATOM      9  C   UNL     1      16.123  -8.656  -4.544  0.00  0.00    +0.074 C 
ATOM     10  C   UNL     1      15.601  -7.946  -3.276  0.00  0.00    +0.024 C 
ATOM     11  C   UNL     1      14.330  -6.537  -4.877  0.00  0.00    +0.019 C 
ATOM     12  C   UNL     1      17.274  -6.575  -5.065  0.00  0.00    +0.094 C 
ATOM     13  C   UNL     1      15.147  -7.075  -6.064  0.00  0.00    +0.085 C 
ENDROOT
BRANCH   8  14
ATOM      4  N   UNL     1      17.389  -3.937  -2.429  0.00  0.00    -0.270 N 
ATOM      6  N   UNL     1      18.276  -3.698  -1.447  0.00  0.00    -0.171 NA
ATOM     14  C   UNL     1      17.426  -5.214  -2.906  0.00  0.00    +0.044 A 
ATOM     16  C   UNL     1      18.405  -5.856  -2.188  0.00  0.00    +0.053 A 
ATOM     17  C   UNL     1      18.893  -4.874  -1.305  0.00  0.00    +0.093 A 
ATOM     18  C   UNL     1      16.520  -2.870  -2.869  0.00  0.00    +0.172 C 
BRANCH  17  20
ATOM     20  C   UNL     1      19.939  -5.037  -0.329  0.00  0.00    +0.003 A 
ATOM     22  C   UNL     1      21.235  -5.351  -0.741  0.00  0.00    +0.018 A 
ATOM     23  C   UNL     1      19.657  -4.882   1.025  0.00  0.00    +0.011 A 
ATOM     24  C   UNL     1      22.266  -5.513   0.198  0.00  0.00    -0.017 A 
ATOM     25  C   UNL     1      20.669  -5.039   1.972  0.00  0.00    +0.009 A 
ATOM     26  C   UNL     1      21.980  -5.355   1.575  0.00  0.00    -0.018 A 
ATOM     27  C   UNL     1      23.575  -5.829  -0.199  0.00  0.00    +0.008 A 
ATOM     28  C   UNL     1      23.010  -5.516   2.514  0.00  0.00    +0.008 A 
ATOM     30  C   UNL     1      24.588  -5.986   0.748  0.00  0.00    +0.001 A 
ATOM     31  C   UNL     1      24.306  -5.831   2.103  0.00  0.00    +0.001 A 
ENDBRANCH  17  20
ENDBRANCH   8  14
BRANCH   9  15
ATOM     15  C   UNL     1      17.312  -9.570  -4.238  0.00  0.00    +0.123 C 
BRANCH  15   5
ATOM      1  O   UNL     1      19.883  -9.910  -2.957  0.00  0.00    -0.272 OA
ATOM      5  N   UNL     1      17.578  -9.609  -2.833  0.00  0.00    -0.311 N 
ATOM     19  C   UNL     1      18.854  -9.777  -2.299  0.00  0.00    +0.251 C 
ATOM     37  H   UNL     1      16.784  -9.551  -2.202  0.00  0.00    +0.149 HD
BRANCH  19  21
ATOM     21  C   UNL     1      18.844  -9.779  -0.785  0.00  0.00    +0.324 C 
BRANCH  21   2
ATOM      2  O   UNL     1      19.412  -8.589  -0.282  0.00  0.00    -0.483 OA
BRANCH   2  29
ATOM     29  C   UNL     1      20.343  -8.713   0.722  0.00  0.00    +0.121 A 
ATOM     32  C   UNL     1      19.961  -8.542   2.052  0.00  0.00    +0.045 A 
ATOM     33  C   UNL     1      21.670  -9.009   0.411  0.00  0.00    +0.045 A 
ATOM     34  C   UNL     1      20.905  -8.667   3.072  0.00  0.00    +0.004 A 
ATOM     35  C   UNL     1      22.614  -9.135   1.429  0.00  0.00    +0.004 A 
ATOM     36  C   UNL     1      22.232  -8.965   2.759  0.00  0.00    +0.000 A 
ENDBRANCH   2  29
ENDBRANCH  21   2
ENDBRANCH  19  21
ENDBRANCH  15   5
ENDBRANCH   9  15
TORSDOF 7
ENDMDL
MODEL 9
REMARK VINA RESULT:      -6.0     24.950     27.972
REMARK  Name = 40779445
REMARK  8 active torsions:
REMARK  status: ('A' for Active; 'I' for Inactive)
REMARK    1  A    between atoms: O_2  and  C_21
REMARK    2  A    between atoms: O_2  and  C_29
REMARK    3  A    between atoms: N_4  and  C_18
REMARK    4  A    between atoms: N_5  and  C_15
REMARK    5  A    between atoms: C_8  and  C_14
REMARK    6  A    between atoms: C_9  and  C_15
REMARK    7  A    between atoms: C_17  and  C_20
REMARK    8  A    between atoms: C_19  and  C_21
REMARK                            x       y       z     vdW  Elec       q    Type
REMARK                         _______ _______ _______ _____ _____    ______ ____
ROOT
ATOM      3  N   UNL     1      15.129   3.953  -0.624  0.00  0.00    -0.297 NA
ATOM      7  C   UNL     1      15.204   6.552  -0.784  0.00  0.00    +0.002 C 
ATOM      8  C   UNL     1      15.730   6.077   0.598  0.00  0.00    +0.055 C 
ATOM      9  C   UNL     1      13.818   4.472  -1.095  0.00  0.00    +0.074 C 
ATOM     10  C   UNL     1      13.774   6.012  -0.999  0.00  0.00    +0.024 C 
ATOM     11  C   UNL     1      16.103   5.893  -1.853  0.00  0.00    +0.019 C 
ATOM     12  C   UNL     1      15.467   4.546   0.693  0.00  0.00    +0.094 C 
ATOM     13  C   UNL     1      16.162   4.377  -1.601  0.00  0.00    +0.085 C 
ENDROOT
BRANCH   8  14
ATOM      4  N   UNL     1      16.004   7.790   2.451  0.00  0.00    -0.270 N 
ATOM      6  N   UNL     1      15.413   8.325   3.533  0.00  0.00    -0.171 NA
ATOM     14  C   UNL     1      15.262   6.821   1.841  0.00  0.00    +0.044 A 
ATOM     16  C   UNL     1      14.106   6.714   2.575  0.00  0.00    +0.053 A 
ATOM     17  C   UNL     1      14.255   7.664   3.604  0.00  0.00    +0.093 A 
ATOM     18  C   UNL     1      17.308   8.265   2.051  0.00  0.00    +0.172 C 
BRANCH  17  20
ATOM     20  C   UNL     1      13.312   7.950   4.654  0.00  0.00    +0.003 A 
ATOM     22  C   UNL     1      12.270   8.850   4.428  0.00  0.00    +0.018 A 
ATOM     23  C   UNL     1      13.441   7.328   5.892  0.00  0.00    +0.011 A 
ATOM     24  C   UNL     1      11.341   9.139   5.441  0.00  0.00    -0.017 A 
ATOM     25  C   UNL     1      12.527   7.604   6.910  0.00  0.00    +0.009 A 
ATOM     26  C   UNL     1      11.471   8.507   6.701  0.00  0.00    -0.018 A 
ATOM     27  C   UNL     1      10.286  10.042   5.232  0.00  0.00    +0.008 A 
ATOM     28  C   UNL     1      10.543   8.795   7.714  0.00  0.00    +0.008 A 
ATOM     30  C   UNL     1       9.373  10.317   6.251  0.00  0.00    +0.001 A 
ATOM     31  C   UNL     1       9.501   9.695   7.489  0.00  0.00    +0.001 A 
ENDBRANCH  17  20
ENDBRANCH   8  14
BRANCH   9  15
ATOM     15  C   UNL     1      12.639   3.822  -0.368  0.00  0.00    +0.123 C 
BRANCH  15   5
ATOM      1  O   UNL     1       9.793   4.328  -0.265  0.00  0.00    -0.272 OA
ATOM      5  N   UNL     1      11.960   4.772   0.458  0.00  0.00    -0.311 N 
ATOM     19  C   UNL     1      10.579   4.951   0.444  0.00  0.00    +0.251 C 
ATOM     37  H   UNL     1      12.528   5.369   1.052  0.00  0.00    +0.149 HD
BRANCH  19  21
ATOM     21  C   UNL     1      10.131   6.020   1.418  0.00  0.00    +0.324 C 
BRANCH  21   2
ATOM      2  O   UNL     1      10.857   5.929   2.626  0.00  0.00    -0.483 OA
BRANCH   2  29
ATOM     29  C   UNL     1      10.137   5.981   3.796  0.00  0.00    +0.121 A 
ATOM     32  C   UNL     1      10.506   5.182   4.877  0.00  0.00    +0.045 A 
ATOM     33  C   UNL     1       9.037   6.832   3.902  0.00  0.00    +0.045 A 
ATOM     34  C   UNL     1       9.776   5.233   6.065  0.00  0.00    +0.004 A 
ATOM     35  C   UNL     1       8.307   6.884   5.089  0.00  0.00    +0.004 A 
ATOM     36  C   UNL     1       8.676   6.085   6.170  0.00  0.00    +0.000 A 
ENDBRANCH   2  29
ENDBRANCH  21   2
ENDBRANCH  19  21
ENDBRANCH  15   5
ENDBRANCH   9  15
TORSDOF 7
ENDMDL
MODEL 10
REMARK VINA RESULT:      -6.0     31.599     33.783
REMARK  Name = 40779445
REMARK  8 active torsions:
REMARK  status: ('A' for Active; 'I' for Inactive)
REMARK    1  A    between atoms: O_2  and  C_21
REMARK    2  A    between atoms: O_2  and  C_29
REMARK    3  A    between atoms: N_4  and  C_18
REMARK    4  A    between atoms: N_5  and  C_15
REMARK    5  A    between atoms: C_8  and  C_14
REMARK    6  A    between atoms: C_9  and  C_15
REMARK    7  A    between atoms: C_17  and  C_20
REMARK    8  A    between atoms: C_19  and  C_21
REMARK                            x       y       z     vdW  Elec       q    Type
REMARK                         _______ _______ _______ _____ _____    ______ ____
ROOT
ATOM      3  N   UNL     1      -9.256  10.592  41.336  0.00  0.00    -0.297 NA
ATOM      7  C   UNL     1      -9.462   8.019  40.994  0.00  0.00    +0.002 C 
ATOM      8  C   UNL     1      -8.473   8.336  42.149  0.00  0.00    +0.055 C 
ATOM      9  C   UNL     1      -9.074  10.253  39.899  0.00  0.00    +0.074 C 
ATOM     10  C   UNL     1      -8.987   8.724  39.706  0.00  0.00    +0.024 C 
ATOM     11  C   UNL     1     -10.818   8.648  41.382  0.00  0.00    +0.019 C 
ATOM     12  C   UNL     1      -8.250   9.876  42.158  0.00  0.00    +0.094 C 
ATOM     13  C   UNL     1     -10.604  10.127  41.745  0.00  0.00    +0.085 C 
ENDROOT
BRANCH   8  14
ATOM      4  N   UNL     1      -7.084   6.266  42.626  0.00  0.00    -0.270 N 
ATOM      6  N   UNL     1      -5.837   5.765  42.605  0.00  0.00    -0.171 NA
ATOM     14  C   UNL     1      -7.164   7.562  42.208  0.00  0.00    +0.044 A 
ATOM     16  C   UNL     1      -5.880   7.935  41.892  0.00  0.00    +0.053 A 
ATOM     17  C   UNL     1      -5.107   6.788  42.156  0.00  0.00    +0.093 A 
ATOM     18  C   UNL     1      -8.174   5.428  43.070  0.00  0.00    +0.172 C 
BRANCH  17  20
ATOM     20  C   UNL     1      -3.683   6.653  41.988  0.00  0.00    +0.003 A 
ATOM     22  C   UNL     1      -3.175   5.795  41.012  0.00  0.00    +0.018 A 
ATOM     23  C   UNL     1      -2.816   7.379  42.798  0.00  0.00    +0.011 A 
ATOM     24  C   UNL     1      -1.789   5.653  40.834  0.00  0.00    -0.017 A 
ATOM     25  C   UNL     1      -1.436   7.251  42.636  0.00  0.00    +0.009 A 
ATOM     26  C   UNL     1      -0.906   6.391  41.658  0.00  0.00    -0.018 A 
ATOM     27  C   UNL     1      -1.259   4.794  39.858  0.00  0.00    +0.008 A 
ATOM     28  C   UNL     1       0.479   6.250  41.481  0.00  0.00    +0.008 A 
ATOM     30  C   UNL     1       0.121   4.665  39.696  0.00  0.00    +0.001 A 
ATOM     31  C   UNL     1       0.989   5.392  40.506  0.00  0.00    +0.001 A 
ENDBRANCH  17  20
ENDBRANCH   8  14
BRANCH   9  15
ATOM     15  C   UNL     1      -7.878  10.977  39.277  0.00  0.00    +0.123 C 
BRANCH  15   5
ATOM      1  O   UNL     1      -5.880  11.447  37.239  0.00  0.00    -0.272 OA
ATOM      5  N   UNL     1      -6.920  10.041  38.774  0.00  0.00    -0.311 N 
ATOM     19  C   UNL     1      -5.989  10.353  37.786  0.00  0.00    +0.251 C 
ATOM     37  H   UNL     1      -6.957   9.091  39.133  0.00  0.00    +0.149 HD
BRANCH  19  21
ATOM     21  C   UNL     1      -5.099   9.176  37.446  0.00  0.00    +0.324 C 
BRANCH  21   2
ATOM      2  O   UNL     1      -4.489   8.660  38.610  0.00  0.00    -0.483 OA
BRANCH   2  29
ATOM     29  C   UNL     1      -3.116   8.593  38.622  0.00  0.00    +0.121 A 
ATOM     32  C   UNL     1      -2.389   9.364  39.527  0.00  0.00    +0.045 A 
ATOM     33  C   UNL     1      -2.450   7.755  37.728  0.00  0.00    +0.045 A 
ATOM     34  C   UNL     1      -0.995   9.298  39.540  0.00  0.00    +0.004 A 
ATOM     35  C   UNL     1      -1.058   7.687  37.740  0.00  0.00    +0.004 A 
ATOM     36  C   UNL     1      -0.330   8.458  38.646  0.00  0.00    +0.000 A 
ENDBRANCH   2  29
ENDBRANCH  21   2
ENDBRANCH  19  21
ENDBRANCH  15   5
ENDBRANCH   9  15
TORSDOF 7
ENDMDL
