MODEL 1
REMARK VINA RESULT:      -7.9      0.000      0.000
REMARK  Name = 44716096
REMARK  6 active torsions:
REMARK  status: ('A' for Active; 'I' for Inactive)
REMARK    1  A    between atoms: O_2  and  C_28
REMARK    2  A    between atoms: N_4  and  C_17
REMARK    3  A    between atoms: N_5  and  C_15
REMARK    4  A    between atoms: C_9  and  C_16
REMARK    5  A    between atoms: C_10  and  C_15
REMARK    6  A    between atoms: C_24  and  C_25
REMARK                            x       y       z     vdW  Elec       q    Type
REMARK                         _______ _______ _______ _____ _____    ______ ____
ROOT
ATOM      3  N   UNL     1      13.317   7.626  20.811  0.00  0.00    -0.297 NA
ATOM      8  C   UNL     1      12.032   9.783  20.127  0.00  0.00    +0.005 C 
ATOM      9  C   UNL     1      12.516   9.857  21.589  0.00  0.00    +0.092 C 
ATOM     10  C   UNL     1      14.091   8.384  19.790  0.00  0.00    +0.078 C 
ATOM     11  C   UNL     1      13.277   9.580  19.244  0.00  0.00    +0.025 C 
ATOM     12  C   UNL     1      11.157   8.530  19.940  0.00  0.00    +0.020 C 
ATOM     13  C   UNL     1      13.123   8.501  21.996  0.00  0.00    +0.097 C 
ATOM     14  C   UNL     1      11.974   7.278  20.292  0.00  0.00    +0.085 C 
ENDROOT
BRANCH   9  16
ATOM      1  O   UNL     1      10.513   9.478  22.834  0.00  0.00    -0.275 OA
ATOM      4  N   UNL     1      11.517  11.577  22.925  0.00  0.00    -0.312 N 
ATOM     16  C   UNL     1      11.407  10.258  22.517  0.00  0.00    +0.218 C 
ATOM     31  H   UNL     1      12.323  12.117  22.624  0.00  0.00    +0.149 HD
BRANCH   4  17
ATOM     17  C   UNL     1      10.562  12.215  23.804  0.00  0.00    +0.073 C 
ATOM     18  C   UNL     1      10.980  12.069  25.271  0.00  0.00    +0.022 C 
ATOM     19  C   UNL     1      10.365  13.687  23.426  0.00  0.00    +0.022 C 
ATOM     20  C   UNL     1      12.191  12.934  25.622  0.00  0.00    +0.002 C 
ATOM     21  C   UNL     1      11.576  14.550  23.781  0.00  0.00    +0.002 C 
ATOM     22  C   UNL     1      11.966  14.396  25.248  0.00  0.00    +0.000 C 
ENDBRANCH   4  17
ENDBRANCH   9  16
BRANCH  10  15
ATOM     15  C   UNL     1      14.600   7.482  18.663  0.00  0.00    +0.164 C 
BRANCH  15   5
ATOM      5  N   UNL     1      15.910   6.838  19.020  0.00  0.00    -0.250 N 
ATOM      6  N   UNL     1      16.405   5.835  18.278  0.00  0.00    -0.065 NA
ATOM      7  N   UNL     1      17.560   5.472  18.828  0.00  0.00    -0.130 NA
ATOM     23  C   UNL     1      16.730   7.146  20.062  0.00  0.00    +0.138 A 
ATOM     24  C   UNL     1      17.774   6.265  19.920  0.00  0.00    +0.113 A 
BRANCH  24  25
ATOM     25  C   UNL     1      18.912   6.180  20.777  0.00  0.00    +0.007 A 
ATOM     26  C   UNL     1      18.922   6.862  21.995  0.00  0.00    +0.055 A 
ATOM     27  C   UNL     1      20.014   5.415  20.396  0.00  0.00    +0.010 A 
ATOM     28  C   UNL     1      20.035   6.777  22.832  0.00  0.00    +0.117 A 
ATOM     29  C   UNL     1      21.127   5.331  21.233  0.00  0.00    +0.004 A 
ATOM     30  C   UNL     1      21.138   6.011  22.451  0.00  0.00    +0.045 A 
BRANCH  28   2
ATOM      2  O   UNL     1      20.047   7.443  24.018  0.00  0.00    -0.507 OA
ATOM     32  H   UNL     1      20.968   7.586  24.292  0.00  0.00    +0.292 HD
ENDBRANCH  28   2
ENDBRANCH  24  25
ENDBRANCH  15   5
ENDBRANCH  10  15
TORSDOF 6
ENDMDL
MODEL 2
REMARK VINA RESULT:      -7.5      3.205     10.600
REMARK  Name = 44716096
REMARK  6 active torsions:
REMARK  status: ('A' for Active; 'I' for Inactive)
REMARK    1  A    between atoms: O_2  and  C_28
REMARK    2  A    between atoms: N_4  and  C_17
REMARK    3  A    between atoms: N_5  and  C_15
REMARK    4  A    between atoms: C_9  and  C_16
REMARK    5  A    between atoms: C_10  and  C_15
REMARK    6  A    between atoms: C_24  and  C_25
REMARK                            x       y       z     vdW  Elec       q    Type
REMARK                         _______ _______ _______ _____ _____    ______ ____
ROOT
ATOM      3  N   UNL     1      19.797   8.447  22.264  0.00  0.00    -0.297 NA
ATOM      8  C   UNL     1      20.587   6.225  21.162  0.00  0.00    +0.005 C 
ATOM      9  C   UNL     1      20.711   6.165  22.698  0.00  0.00    +0.092 C 
ATOM     10  C   UNL     1      18.643   7.744  21.639  0.00  0.00    +0.078 C 
ATOM     11  C   UNL     1      19.109   6.508  20.834  0.00  0.00    +0.025 C 
ATOM     12  C   UNL     1      21.389   7.427  20.631  0.00  0.00    +0.020 C 
ATOM     13  C   UNL     1      20.390   7.551  23.291  0.00  0.00    +0.097 C 
ATOM     14  C   UNL     1      20.847   8.721  21.257  0.00  0.00    +0.085 C 
ENDROOT
BRANCH   9  16
ATOM      1  O   UNL     1      22.722   6.281  23.982  0.00  0.00    -0.275 OA
ATOM      4  N   UNL     1      22.473   4.566  22.427  0.00  0.00    -0.312 N 
ATOM     16  C   UNL     1      22.069   5.692  23.124  0.00  0.00    +0.218 C 
ATOM     31  H   UNL     1      21.830   4.144  21.763  0.00  0.00    +0.149 HD
BRANCH   4  17
ATOM     17  C   UNL     1      23.753   3.924  22.633  0.00  0.00    +0.073 C 
ATOM     18  C   UNL     1      23.663   2.418  22.367  0.00  0.00    +0.022 C 
ATOM     19  C   UNL     1      24.841   4.577  21.774  0.00  0.00    +0.022 C 
ATOM     20  C   UNL     1      23.511   2.095  20.881  0.00  0.00    +0.002 C 
ATOM     21  C   UNL     1      24.687   4.250  20.289  0.00  0.00    +0.002 C 
ATOM     22  C   UNL     1      24.611   2.745  20.048  0.00  0.00    +0.000 C 
ENDBRANCH   4  17
ENDBRANCH   9  16
BRANCH  10  15
ATOM     15  C   UNL     1      17.787   8.685  20.788  0.00  0.00    +0.164 C 
BRANCH  15   5
ATOM      5  N   UNL     1      16.390   8.802  21.331  0.00  0.00    -0.250 N 
ATOM      6  N   UNL     1      16.083   9.749  22.231  0.00  0.00    -0.065 NA
ATOM      7  N   UNL     1      14.793   9.610  22.524  0.00  0.00    -0.130 NA
ATOM     23  C   UNL     1      15.311   8.032  21.022  0.00  0.00    +0.138 A 
ATOM     24  C   UNL     1      14.307   8.564  21.791  0.00  0.00    +0.113 A 
BRANCH  24  25
ATOM     25  C   UNL     1      12.956   8.102  21.830  0.00  0.00    +0.007 A 
ATOM     26  C   UNL     1      12.641   6.825  21.365  0.00  0.00    +0.055 A 
ATOM     27  C   UNL     1      11.952   8.929  22.333  0.00  0.00    +0.010 A 
ATOM     28  C   UNL     1      11.321   6.375  21.404  0.00  0.00    +0.117 A 
ATOM     29  C   UNL     1      10.632   8.479  22.372  0.00  0.00    +0.004 A 
ATOM     30  C   UNL     1      10.316   7.202  21.908  0.00  0.00    +0.045 A 
BRANCH  28   2
ATOM      2  O   UNL     1      11.013   5.130  20.950  0.00  0.00    -0.507 OA
ATOM     32  H   UNL     1      10.847   5.174  19.993  0.00  0.00    +0.292 HD
ENDBRANCH  28   2
ENDBRANCH  24  25
ENDBRANCH  15   5
ENDBRANCH  10  15
TORSDOF 6
ENDMDL
MODEL 3
REMARK VINA RESULT:      -7.5     26.679     30.227
REMARK  Name = 44716096
REMARK  6 active torsions:
REMARK  status: ('A' for Active; 'I' for Inactive)
REMARK    1  A    between atoms: O_2  and  C_28
REMARK    2  A    between atoms: N_4  and  C_17
REMARK    3  A    between atoms: N_5  and  C_15
REMARK    4  A    between atoms: C_9  and  C_16
REMARK    5  A    between atoms: C_10  and  C_15
REMARK    6  A    between atoms: C_24  and  C_25
REMARK                            x       y       z     vdW  Elec       q    Type
REMARK                         _______ _______ _______ _____ _____    ______ ____
ROOT
ATOM      3  N   UNL     1     -15.839   3.791  23.186  0.00  0.00    -0.297 NA
ATOM      8  C   UNL     1     -17.408   4.834  24.980  0.00  0.00    +0.005 C 
ATOM      9  C   UNL     1     -16.312   3.965  25.630  0.00  0.00    +0.092 C 
ATOM     10  C   UNL     1     -15.661   5.268  23.228  0.00  0.00    +0.078 C 
ATOM     11  C   UNL     1     -16.699   5.930  24.165  0.00  0.00    +0.025 C 
ATOM     12  C   UNL     1     -18.203   3.985  23.971  0.00  0.00    +0.020 C 
ATOM     13  C   UNL     1     -15.514   3.242  24.528  0.00  0.00    +0.097 C 
ATOM     14  C   UNL     1     -17.249   3.445  22.894  0.00  0.00    +0.085 C 
ENDROOT
BRANCH   9  16
ATOM      1  O   UNL     1     -17.546   2.016  26.249  0.00  0.00    -0.275 OA
ATOM      4  N   UNL     1     -16.617   3.342  27.922  0.00  0.00    -0.312 N 
ATOM     16  C   UNL     1     -16.891   2.990  26.612  0.00  0.00    +0.218 C 
ATOM     31  H   UNL     1     -16.032   4.154  28.099  0.00  0.00    +0.149 HD
BRANCH   4  17
ATOM     17  C   UNL     1     -17.081   2.579  29.060  0.00  0.00    +0.073 C 
ATOM     18  C   UNL     1     -16.139   1.408  29.360  0.00  0.00    +0.022 C 
ATOM     19  C   UNL     1     -17.259   3.477  30.289  0.00  0.00    +0.022 C 
ATOM     20  C   UNL     1     -14.806   1.866  29.952  0.00  0.00    +0.002 C 
ATOM     21  C   UNL     1     -15.925   3.932  30.880  0.00  0.00    +0.002 C 
ATOM     22  C   UNL     1     -15.010   2.748  31.180  0.00  0.00    +0.000 C 
ENDBRANCH   4  17
ENDBRANCH   9  16
BRANCH  10  15
ATOM     15  C   UNL     1     -15.679   5.893  21.831  0.00  0.00    +0.164 C 
BRANCH  15   5
ATOM      5  N   UNL     1     -14.293   6.239  21.364  0.00  0.00    -0.250 N 
ATOM      6  N   UNL     1     -13.221   5.615  21.879  0.00  0.00    -0.065 NA
ATOM      7  N   UNL     1     -12.147   6.122  21.282  0.00  0.00    -0.130 NA
ATOM     23  C   UNL     1     -13.938   7.159  20.425  0.00  0.00    +0.138 A 
ATOM     24  C   UNL     1     -12.568   7.067  20.389  0.00  0.00    +0.113 A 
BRANCH  24  25
ATOM     25  C   UNL     1     -11.706   7.838  19.552  0.00  0.00    +0.007 A 
ATOM     26  C   UNL     1     -11.373   7.376  18.278  0.00  0.00    +0.055 A 
ATOM     27  C   UNL     1     -11.197   9.054  20.009  0.00  0.00    +0.010 A 
ATOM     28  C   UNL     1     -10.531   8.131  17.461  0.00  0.00    +0.117 A 
ATOM     29  C   UNL     1     -10.355   9.808  19.192  0.00  0.00    +0.004 A 
ATOM     30  C   UNL     1     -10.022   9.348  17.918  0.00  0.00    +0.045 A 
BRANCH  28   2
ATOM      2  O   UNL     1     -10.205   7.681  16.220  0.00  0.00    -0.507 OA
ATOM     32  H   UNL     1      -9.720   6.843  16.304  0.00  0.00    +0.292 HD
ENDBRANCH  28   2
ENDBRANCH  24  25
ENDBRANCH  15   5
ENDBRANCH  10  15
TORSDOF 6
ENDMDL
MODEL 4
REMARK VINA RESULT:      -7.4     27.348     30.800
REMARK  Name = 44716096
REMARK  6 active torsions:
REMARK  status: ('A' for Active; 'I' for Inactive)
REMARK    1  A    between atoms: O_2  and  C_28
REMARK    2  A    between atoms: N_4  and  C_17
REMARK    3  A    between atoms: N_5  and  C_15
REMARK    4  A    between atoms: C_9  and  C_16
REMARK    5  A    between atoms: C_10  and  C_15
REMARK    6  A    between atoms: C_24  and  C_25
REMARK                            x       y       z     vdW  Elec       q    Type
REMARK                         _______ _______ _______ _____ _____    ______ ____
ROOT
ATOM      3  N   UNL     1      -6.388 -11.529  16.619  0.00  0.00    -0.297 NA
ATOM      8  C   UNL     1      -4.145 -11.489  17.937  0.00  0.00    +0.005 C 
ATOM      9  C   UNL     1      -4.114 -10.509  16.746  0.00  0.00    +0.092 C 
ATOM     10  C   UNL     1      -6.600 -10.956  17.977  0.00  0.00    +0.078 C 
ATOM     11  C   UNL     1      -5.321 -11.074  18.840  0.00  0.00    +0.025 C 
ATOM     12  C   UNL     1      -4.465 -12.905  17.427  0.00  0.00    +0.020 C 
ATOM     13  C   UNL     1      -5.393 -10.687  15.906  0.00  0.00    +0.097 C 
ATOM     14  C   UNL     1      -5.827 -12.896  16.714  0.00  0.00    +0.085 C 
ENDROOT
BRANCH   9  16
ATOM      1  O   UNL     1      -1.760 -10.726  16.409  0.00  0.00    -0.275 OA
ATOM      4  N   UNL     1      -3.175 -10.799  14.562  0.00  0.00    -0.312 N 
ATOM     16  C   UNL     1      -2.882 -10.695  15.911  0.00  0.00    +0.218 C 
ATOM     31  H   UNL     1      -4.148 -10.795  14.270  0.00  0.00    +0.149 HD
BRANCH   4  17
ATOM     17  C   UNL     1      -2.162 -10.962  13.543  0.00  0.00    +0.073 C 
ATOM     18  C   UNL     1      -1.771 -12.435  13.385  0.00  0.00    +0.022 C 
ATOM     19  C   UNL     1      -2.621 -10.363  12.209  0.00  0.00    +0.022 C 
ATOM     20  C   UNL     1      -2.869 -13.263  12.716  0.00  0.00    +0.002 C 
ATOM     21  C   UNL     1      -3.717 -11.194  11.541  0.00  0.00    +0.002 C 
ATOM     22  C   UNL     1      -3.300 -12.653  11.385  0.00  0.00    +0.000 C 
ENDBRANCH   4  17
ENDBRANCH   9  16
BRANCH  10  15
ATOM     15  C   UNL     1      -7.816 -11.565  18.678  0.00  0.00    +0.164 C 
BRANCH  15   5
ATOM      5  N   UNL     1      -9.028 -10.688  18.541  0.00  0.00    -0.250 N 
ATOM      6  N   UNL     1      -9.920 -10.592  19.540  0.00  0.00    -0.065 NA
ATOM      7  N   UNL     1     -10.873  -9.756  19.138  0.00  0.00    -0.130 NA
ATOM     23  C   UNL     1      -9.381  -9.919  17.475  0.00  0.00    +0.138 A 
ATOM     24  C   UNL     1     -10.557  -9.335  17.876  0.00  0.00    +0.113 A 
BRANCH  24  25
ATOM     25  C   UNL     1     -11.340  -8.426  17.102  0.00  0.00    +0.007 A 
ATOM     26  C   UNL     1     -10.730  -7.341  16.471  0.00  0.00    +0.055 A 
ATOM     27  C   UNL     1     -12.715  -8.624  16.977  0.00  0.00    +0.010 A 
ATOM     28  C   UNL     1     -11.497  -6.454  15.714  0.00  0.00    +0.117 A 
ATOM     29  C   UNL     1     -13.481  -7.736  16.221  0.00  0.00    +0.004 A 
ATOM     30  C   UNL     1     -12.872  -6.652  15.589  0.00  0.00    +0.045 A 
BRANCH  28   2
ATOM      2  O   UNL     1     -10.903  -5.395  15.099  0.00  0.00    -0.507 OA
ATOM     32  H   UNL     1     -11.089  -4.589  15.609  0.00  0.00    +0.292 HD
ENDBRANCH  28   2
ENDBRANCH  24  25
ENDBRANCH  15   5
ENDBRANCH  10  15
TORSDOF 6
ENDMDL
MODEL 5
REMARK VINA RESULT:      -7.4     27.867     29.758
REMARK  Name = 44716096
REMARK  6 active torsions:
REMARK  status: ('A' for Active; 'I' for Inactive)
REMARK    1  A    between atoms: O_2  and  C_28
REMARK    2  A    between atoms: N_4  and  C_17
REMARK    3  A    between atoms: N_5  and  C_15
REMARK    4  A    between atoms: C_9  and  C_16
REMARK    5  A    between atoms: C_10  and  C_15
REMARK    6  A    between atoms: C_24  and  C_25
REMARK                            x       y       z     vdW  Elec       q    Type
REMARK                         _______ _______ _______ _____ _____    ______ ____
ROOT
ATOM      3  N   UNL     1      -5.118 -10.857  11.116  0.00  0.00    -0.297 NA
ATOM      8  C   UNL     1      -4.292  -9.421   9.109  0.00  0.00    +0.005 C 
ATOM      9  C   UNL     1      -5.684  -8.964   9.591  0.00  0.00    +0.092 C 
ATOM     10  C   UNL     1      -3.946 -10.034  11.521  0.00  0.00    +0.078 C 
ATOM     11  C   UNL     1      -3.332  -9.298  10.306  0.00  0.00    +0.025 C 
ATOM     12  C   UNL     1      -4.342 -10.915   8.741  0.00  0.00    +0.020 C 
ATOM     13  C   UNL     1      -6.199  -9.942  10.665  0.00  0.00    +0.097 C 
ATOM     14  C   UNL     1      -4.770 -11.730   9.972  0.00  0.00    +0.085 C 
ENDROOT
BRANCH   9  16
ATOM      1  O   UNL     1      -6.368  -9.232   7.318  0.00  0.00    -0.275 OA
ATOM      4  N   UNL     1      -7.843  -8.256   8.832  0.00  0.00    -0.312 N 
ATOM     16  C   UNL     1      -6.652  -8.849   8.450  0.00  0.00    +0.218 C 
ATOM     31  H   UNL     1      -7.978  -8.012   9.809  0.00  0.00    +0.149 HD
BRANCH   4  17
ATOM     17  C   UNL     1      -8.934  -8.009   7.915  0.00  0.00    +0.073 C 
ATOM     18  C   UNL     1     -10.286  -8.295   8.577  0.00  0.00    +0.022 C 
ATOM     19  C   UNL     1      -8.876  -6.581   7.363  0.00  0.00    +0.022 C 
ATOM     20  C   UNL     1     -10.658  -7.245   9.623  0.00  0.00    +0.002 C 
ATOM     21  C   UNL     1      -9.251  -5.533   8.410  0.00  0.00    +0.002 C 
ATOM     22  C   UNL     1     -10.606  -5.833   9.047  0.00  0.00    +0.000 C 
ENDBRANCH   4  17
ENDBRANCH   9  16
BRANCH  10  15
ATOM     15  C   UNL     1      -2.897 -10.853  12.276  0.00  0.00    +0.164 C 
BRANCH  15   5
ATOM      5  N   UNL     1      -3.073 -10.737  13.764  0.00  0.00    -0.250 N 
ATOM      6  N   UNL     1      -2.023 -10.483  14.560  0.00  0.00    -0.065 NA
ATOM      7  N   UNL     1      -2.477 -10.436  15.809  0.00  0.00    -0.130 NA
ATOM     23  C   UNL     1      -4.227 -10.859  14.476  0.00  0.00    +0.138 A 
ATOM     24  C   UNL     1      -3.824 -10.664  15.774  0.00  0.00    +0.113 A 
BRANCH  24  25
ATOM     25  C   UNL     1      -4.675 -10.693  16.921  0.00  0.00    +0.007 A 
ATOM     26  C   UNL     1      -5.876  -9.985  16.918  0.00  0.00    +0.055 A 
ATOM     27  C   UNL     1      -4.302 -11.432  18.044  0.00  0.00    +0.010 A 
ATOM     28  C   UNL     1      -6.706 -10.015  18.039  0.00  0.00    +0.117 A 
ATOM     29  C   UNL     1      -5.132 -11.462  19.165  0.00  0.00    +0.004 A 
ATOM     30  C   UNL     1      -6.334 -10.754  19.163  0.00  0.00    +0.045 A 
BRANCH  28   2
ATOM      2  O   UNL     1      -7.878  -9.323  18.038  0.00  0.00    -0.507 OA
ATOM     32  H   UNL     1      -7.944  -8.810  18.861  0.00  0.00    +0.292 HD
ENDBRANCH  28   2
ENDBRANCH  24  25
ENDBRANCH  15   5
ENDBRANCH  10  15
TORSDOF 6
ENDMDL
MODEL 6
REMARK VINA RESULT:      -7.3      4.373     11.401
REMARK  Name = 44716096
REMARK  6 active torsions:
REMARK  status: ('A' for Active; 'I' for Inactive)
REMARK    1  A    between atoms: O_2  and  C_28
REMARK    2  A    between atoms: N_4  and  C_17
REMARK    3  A    between atoms: N_5  and  C_15
REMARK    4  A    between atoms: C_9  and  C_16
REMARK    5  A    between atoms: C_10  and  C_15
REMARK    6  A    between atoms: C_24  and  C_25
REMARK                            x       y       z     vdW  Elec       q    Type
REMARK                         _______ _______ _______ _____ _____    ______ ____
ROOT
ATOM      3  N   UNL     1      20.736   5.258  21.943  0.00  0.00    -0.297 NA
ATOM      8  C   UNL     1      22.596   6.751  20.903  0.00  0.00    +0.005 C 
ATOM      9  C   UNL     1      22.767   5.274  20.494  0.00  0.00    +0.092 C 
ATOM     10  C   UNL     1      20.148   6.186  20.939  0.00  0.00    +0.078 C 
ATOM     11  C   UNL     1      21.201   7.198  20.428  0.00  0.00    +0.025 C 
ATOM     12  C   UNL     1      22.589   6.859  22.439  0.00  0.00    +0.020 C 
ATOM     13  C   UNL     1      21.748   4.411  21.261  0.00  0.00    +0.097 C 
ATOM     14  C   UNL     1      21.436   6.016  23.005  0.00  0.00    +0.085 C 
ENDROOT
BRANCH   9  16
ATOM      1  O   UNL     1      25.116   5.216  20.063  0.00  0.00    -0.275 OA
ATOM      4  N   UNL     1      24.240   3.846  21.730  0.00  0.00    -0.312 N 
ATOM     16  C   UNL     1      24.170   4.797  20.727  0.00  0.00    +0.218 C 
ATOM     31  H   UNL     1      23.393   3.603  22.234  0.00  0.00    +0.149 HD
BRANCH   4  17
ATOM     17  C   UNL     1      25.475   3.210  22.133  0.00  0.00    +0.073 C 
ATOM     18  C   UNL     1      25.497   2.957  23.644  0.00  0.00    +0.022 C 
ATOM     19  C   UNL     1      25.710   1.915  21.349  0.00  0.00    +0.022 C 
ATOM     20  C   UNL     1      24.545   1.836  24.063  0.00  0.00    +0.002 C 
ATOM     21  C   UNL     1      24.758   0.795  21.771  0.00  0.00    +0.002 C 
ATOM     22  C   UNL     1      24.806   0.554  23.277  0.00  0.00    +0.000 C 
ENDBRANCH   4  17
ENDBRANCH   9  16
BRANCH  10  15
ATOM     15  C   UNL     1      18.896   6.890  21.466  0.00  0.00    +0.164 C 
BRANCH  15   5
ATOM      5  N   UNL     1      17.735   6.728  20.525  0.00  0.00    -0.250 N 
ATOM      6  N   UNL     1      17.765   5.801  19.554  0.00  0.00    -0.065 NA
ATOM      7  N   UNL     1      16.617   5.890  18.890  0.00  0.00    -0.130 NA
ATOM     23  C   UNL     1      16.571   7.435  20.511  0.00  0.00    +0.138 A 
ATOM     24  C   UNL     1      15.875   6.885  19.463  0.00  0.00    +0.113 A 
BRANCH  24  25
ATOM     25  C   UNL     1      14.575   7.284  19.029  0.00  0.00    +0.007 A 
ATOM     26  C   UNL     1      13.485   7.173  19.894  0.00  0.00    +0.055 A 
ATOM     27  C   UNL     1      14.395   7.785  17.740  0.00  0.00    +0.010 A 
ATOM     28  C   UNL     1      12.216   7.565  19.469  0.00  0.00    +0.117 A 
ATOM     29  C   UNL     1      13.125   8.176  17.315  0.00  0.00    +0.004 A 
ATOM     30  C   UNL     1      12.035   8.066  18.179  0.00  0.00    +0.045 A 
BRANCH  28   2
ATOM      2  O   UNL     1      11.152   7.455  20.311  0.00  0.00    -0.507 OA
ATOM     32  H   UNL     1      11.235   8.121  21.014  0.00  0.00    +0.292 HD
ENDBRANCH  28   2
ENDBRANCH  24  25
ENDBRANCH  15   5
ENDBRANCH  10  15
TORSDOF 6
ENDMDL
MODEL 7
REMARK VINA RESULT:      -7.2     27.694     30.033
REMARK  Name = 44716096
REMARK  6 active torsions:
REMARK  status: ('A' for Active; 'I' for Inactive)
REMARK    1  A    between atoms: O_2  and  C_28
REMARK    2  A    between atoms: N_4  and  C_17
REMARK    3  A    between atoms: N_5  and  C_15
REMARK    4  A    between atoms: C_9  and  C_16
REMARK    5  A    between atoms: C_10  and  C_15
REMARK    6  A    between atoms: C_24  and  C_25
REMARK                            x       y       z     vdW  Elec       q    Type
REMARK                         _______ _______ _______ _____ _____    ______ ____
ROOT
ATOM      3  N   UNL     1      -5.086 -10.277  11.853  0.00  0.00    -0.297 NA
ATOM      8  C   UNL     1      -4.578  -9.747   9.357  0.00  0.00    +0.005 C 
ATOM      9  C   UNL     1      -5.529  -8.700   9.971  0.00  0.00    +0.092 C 
ATOM     10  C   UNL     1      -3.657  -9.895  11.690  0.00  0.00    +0.078 C 
ATOM     11  C   UNL     1      -3.287  -9.738  10.196  0.00  0.00    +0.025 C 
ATOM     12  C   UNL     1      -5.191 -11.150   9.515  0.00  0.00    +0.020 C 
ATOM     13  C   UNL     1      -5.929  -9.143  11.391  0.00  0.00    +0.097 C 
ATOM     14  C   UNL     1      -5.412 -11.446  11.006  0.00  0.00    +0.085 C 
ENDROOT
BRANCH   9  16
ATOM      1  O   UNL     1      -7.799  -8.073   9.571  0.00  0.00    -0.275 OA
ATOM      4  N   UNL     1      -6.502  -8.809   7.784  0.00  0.00    -0.312 N 
ATOM     16  C   UNL     1      -6.737  -8.480   9.108  0.00  0.00    +0.218 C 
ATOM     31  H   UNL     1      -5.568  -9.103   7.511  0.00  0.00    +0.149 HD
BRANCH   4  17
ATOM     17  C   UNL     1      -7.510  -8.709   6.752  0.00  0.00    +0.073 C 
ATOM     18  C   UNL     1      -6.895  -8.892   5.361  0.00  0.00    +0.022 C 
ATOM     19  C   UNL     1      -8.646  -9.708   6.993  0.00  0.00    +0.022 C 
ATOM     20  C   UNL     1      -6.474 -10.337   5.093  0.00  0.00    +0.002 C 
ATOM     21  C   UNL     1      -8.223 -11.152   6.723  0.00  0.00    +0.002 C 
ATOM     22  C   UNL     1      -7.624 -11.311   5.329  0.00  0.00    +0.000 C 
ENDBRANCH   4  17
ENDBRANCH   9  16
BRANCH  10  15
ATOM     15  C   UNL     1      -2.715 -10.863  12.409  0.00  0.00    +0.164 C 
BRANCH  15   5
ATOM      5  N   UNL     1      -2.847 -10.755  13.902  0.00  0.00    -0.250 N 
ATOM      6  N   UNL     1      -1.807 -10.361  14.655  0.00  0.00    -0.065 NA
ATOM      7  N   UNL     1      -2.215 -10.360  15.920  0.00  0.00    -0.130 NA
ATOM     23  C   UNL     1      -3.947 -11.015  14.660  0.00  0.00    +0.138 A 
ATOM     24  C   UNL     1      -3.523 -10.757  15.940  0.00  0.00    +0.113 A 
BRANCH  24  25
ATOM     25  C   UNL     1      -4.317 -10.883  17.119  0.00  0.00    +0.007 A 
ATOM     26  C   UNL     1      -5.536 -10.210  17.216  0.00  0.00    +0.055 A 
ATOM     27  C   UNL     1      -3.874 -11.679  18.175  0.00  0.00    +0.010 A 
ATOM     28  C   UNL     1      -6.311 -10.335  18.369  0.00  0.00    +0.117 A 
ATOM     29  C   UNL     1      -4.649 -11.803  19.328  0.00  0.00    +0.004 A 
ATOM     30  C   UNL     1      -5.868 -11.131  19.426  0.00  0.00    +0.045 A 
BRANCH  28   2
ATOM      2  O   UNL     1      -7.499  -9.678  18.464  0.00  0.00    -0.507 OA
ATOM     32  H   UNL     1      -7.428  -8.826  18.002  0.00  0.00    +0.292 HD
ENDBRANCH  28   2
ENDBRANCH  24  25
ENDBRANCH  15   5
ENDBRANCH  10  15
TORSDOF 6
ENDMDL
MODEL 8
REMARK VINA RESULT:      -7.2      1.727      2.278
REMARK  Name = 44716096
REMARK  6 active torsions:
REMARK  status: ('A' for Active; 'I' for Inactive)
REMARK    1  A    between atoms: O_2  and  C_28
REMARK    2  A    between atoms: N_4  and  C_17
REMARK    3  A    between atoms: N_5  and  C_15
REMARK    4  A    between atoms: C_9  and  C_16
REMARK    5  A    between atoms: C_10  and  C_15
REMARK    6  A    between atoms: C_24  and  C_25
REMARK                            x       y       z     vdW  Elec       q    Type
REMARK                         _______ _______ _______ _____ _____    ______ ____
ROOT
ATOM      3  N   UNL     1      14.162   8.868  21.160  0.00  0.00    -0.297 NA
ATOM      8  C   UNL     1      12.685  10.161  19.452  0.00  0.00    +0.005 C 
ATOM      9  C   UNL     1      13.655  11.109  20.186  0.00  0.00    +0.092 C 
ATOM     10  C   UNL     1      14.512   8.466  19.770  0.00  0.00    +0.078 C 
ATOM     11  C   UNL     1      13.538   9.093  18.744  0.00  0.00    +0.025 C 
ATOM     12  C   UNL     1      11.820   9.414  20.484  0.00  0.00    +0.020 C 
ATOM     13  C   UNL     1      14.388  10.330  21.295  0.00  0.00    +0.097 C 
ATOM     14  C   UNL     1      12.729   8.613  21.429  0.00  0.00    +0.085 C 
ENDROOT
BRANCH   9  16
ATOM      1  O   UNL     1      12.404  13.136  20.012  0.00  0.00    -0.275 OA
ATOM      4  N   UNL     1      12.994  12.353  22.123  0.00  0.00    -0.312 N 
ATOM     16  C   UNL     1      12.941  12.306  20.741  0.00  0.00    +0.218 C 
ATOM     31  H   UNL     1      13.438  11.588  22.623  0.00  0.00    +0.149 HD
BRANCH   4  17
ATOM     17  C   UNL     1      12.402  13.418  22.902  0.00  0.00    +0.073 C 
ATOM     18  C   UNL     1      10.889  13.218  23.049  0.00  0.00    +0.022 C 
ATOM     19  C   UNL     1      13.081  13.543  24.270  0.00  0.00    +0.022 C 
ATOM     20  C   UNL     1      10.540  12.062  23.986  0.00  0.00    +0.002 C 
ATOM     21  C   UNL     1      12.728  12.387  25.206  0.00  0.00    +0.002 C 
ATOM     22  C   UNL     1      11.218  12.215  25.344  0.00  0.00    +0.000 C 
ENDBRANCH   4  17
ENDBRANCH   9  16
BRANCH  10  15
ATOM     15  C   UNL     1      14.601   6.947  19.612  0.00  0.00    +0.164 C 
BRANCH  15   5
ATOM      5  N   UNL     1      16.028   6.474  19.619  0.00  0.00    -0.250 N 
ATOM      6  N   UNL     1      16.538   5.821  18.563  0.00  0.00    -0.065 NA
ATOM      7  N   UNL     1      17.803   5.532  18.852  0.00  0.00    -0.130 NA
ATOM     23  C   UNL     1      16.948   6.623  20.611  0.00  0.00    +0.138 A 
ATOM     24  C   UNL     1      18.070   6.017  20.102  0.00  0.00    +0.113 A 
BRANCH  24  25
ATOM     25  C   UNL     1      19.328   5.903  20.768  0.00  0.00    +0.007 A 
ATOM     26  C   UNL     1      20.314   5.059  20.258  0.00  0.00    +0.055 A 
ATOM     27  C   UNL     1      19.569   6.637  21.929  0.00  0.00    +0.010 A 
ATOM     28  C   UNL     1      21.543   4.950  20.909  0.00  0.00    +0.117 A 
ATOM     29  C   UNL     1      20.797   6.527  22.581  0.00  0.00    +0.004 A 
ATOM     30  C   UNL     1      21.785   5.684  22.071  0.00  0.00    +0.045 A 
BRANCH  28   2
ATOM      2  O   UNL     1      22.505   4.125  20.413  0.00  0.00    -0.507 OA
ATOM     32  H   UNL     1      23.155   3.940  21.112  0.00  0.00    +0.292 HD
ENDBRANCH  28   2
ENDBRANCH  24  25
ENDBRANCH  15   5
ENDBRANCH  10  15
TORSDOF 6
ENDMDL
MODEL 9
REMARK VINA RESULT:      -7.1     28.319     31.622
REMARK  Name = 44716096
REMARK  6 active torsions:
REMARK  status: ('A' for Active; 'I' for Inactive)
REMARK    1  A    between atoms: O_2  and  C_28
REMARK    2  A    between atoms: N_4  and  C_17
REMARK    3  A    between atoms: N_5  and  C_15
REMARK    4  A    between atoms: C_9  and  C_16
REMARK    5  A    between atoms: C_10  and  C_15
REMARK    6  A    between atoms: C_24  and  C_25
REMARK                            x       y       z     vdW  Elec       q    Type
REMARK                         _______ _______ _______ _____ _____    ______ ____
ROOT
ATOM      3  N   UNL     1     -17.806   4.164  25.269  0.00  0.00    -0.297 NA
ATOM      8  C   UNL     1     -15.984   4.205  23.411  0.00  0.00    +0.005 C 
ATOM      9  C   UNL     1     -16.161   5.595  24.055  0.00  0.00    +0.092 C 
ATOM     10  C   UNL     1     -16.627   3.357  25.687  0.00  0.00    +0.078 C 
ATOM     11  C   UNL     1     -15.601   3.226  24.537  0.00  0.00    +0.025 C 
ATOM     12  C   UNL     1     -17.336   3.723  22.855  0.00  0.00    +0.020 C 
ATOM     13  C   UNL     1     -17.355   5.559  25.027  0.00  0.00    +0.097 C 
ATOM     14  C   UNL     1     -18.362   3.651  23.997  0.00  0.00    +0.085 C 
ENDROOT
BRANCH   9  16
ATOM      1  O   UNL     1     -17.392   7.275  22.887  0.00  0.00    -0.275 OA
ATOM      4  N   UNL     1     -15.195   6.839  22.251  0.00  0.00    -0.312 N 
ATOM     16  C   UNL     1     -16.334   6.665  23.018  0.00  0.00    +0.218 C 
ATOM     31  H   UNL     1     -14.365   6.298  22.476  0.00  0.00    +0.149 HD
BRANCH   4  17
ATOM     17  C   UNL     1     -15.109   7.794  21.168  0.00  0.00    +0.073 C 
ATOM     18  C   UNL     1     -14.716   9.182  21.687  0.00  0.00    +0.022 C 
ATOM     19  C   UNL     1     -14.140   7.312  20.084  0.00  0.00    +0.022 C 
ATOM     20  C   UNL     1     -13.256   9.248  22.133  0.00  0.00    +0.002 C 
ATOM     21  C   UNL     1     -12.680   7.381  20.532  0.00  0.00    +0.002 C 
ATOM     22  C   UNL     1     -12.310   8.774  21.033  0.00  0.00    +0.000 C 
ENDBRANCH   4  17
ENDBRANCH   9  16
BRANCH  10  15
ATOM     15  C   UNL     1     -17.031   1.990  26.245  0.00  0.00    +0.164 C 
BRANCH  15   5
ATOM      5  N   UNL     1     -16.456   1.762  27.615  0.00  0.00    -0.250 N 
ATOM      6  N   UNL     1     -16.178   0.520  28.043  0.00  0.00    -0.065 NA
ATOM      7  N   UNL     1     -15.688   0.629  29.274  0.00  0.00    -0.130 NA
ATOM     23  C   UNL     1     -16.154   2.699  28.556  0.00  0.00    +0.138 A 
ATOM     24  C   UNL     1     -15.667   1.955  29.603  0.00  0.00    +0.113 A 
BRANCH  24  25
ATOM     25  C   UNL     1     -15.206   2.478  30.849  0.00  0.00    +0.007 A 
ATOM     26  C   UNL     1     -15.157   1.657  31.975  0.00  0.00    +0.055 A 
ATOM     27  C   UNL     1     -14.805   3.811  30.938  0.00  0.00    +0.010 A 
ATOM     28  C   UNL     1     -14.705   2.169  33.192  0.00  0.00    +0.117 A 
ATOM     29  C   UNL     1     -14.355   4.323  32.155  0.00  0.00    +0.004 A 
ATOM     30  C   UNL     1     -14.304   3.502  33.282  0.00  0.00    +0.045 A 
BRANCH  28   2
ATOM      2  O   UNL     1     -14.658   1.369  34.292  0.00  0.00    -0.507 OA
ATOM     32  H   UNL     1     -15.181   1.777  35.003  0.00  0.00    +0.292 HD
ENDBRANCH  28   2
ENDBRANCH  24  25
ENDBRANCH  15   5
ENDBRANCH  10  15
TORSDOF 6
ENDMDL
MODEL 10
REMARK VINA RESULT:      -7.0     27.181     30.057
REMARK  Name = 44716096
REMARK  6 active torsions:
REMARK  status: ('A' for Active; 'I' for Inactive)
REMARK    1  A    between atoms: O_2  and  C_28
REMARK    2  A    between atoms: N_4  and  C_17
REMARK    3  A    between atoms: N_5  and  C_15
REMARK    4  A    between atoms: C_9  and  C_16
REMARK    5  A    between atoms: C_10  and  C_15
REMARK    6  A    between atoms: C_24  and  C_25
REMARK                            x       y       z     vdW  Elec       q    Type
REMARK                         _______ _______ _______ _____ _____    ______ ____
ROOT
ATOM      3  N   UNL     1     -10.191  -8.267  17.283  0.00  0.00    -0.297 NA
ATOM      8  C   UNL     1     -11.582  -8.949  15.192  0.00  0.00    +0.005 C 
ATOM      9  C   UNL     1     -11.147  -7.470  15.121  0.00  0.00    +0.092 C 
ATOM     10  C   UNL     1      -9.433  -9.248  16.459  0.00  0.00    +0.078 C 
ATOM     11  C   UNL     1     -10.300  -9.796  15.302  0.00  0.00    +0.025 C 
ATOM     12  C   UNL     1     -12.374  -9.187  16.490  0.00  0.00    +0.020 C 
ATOM     13  C   UNL     1     -10.473  -7.072  16.447  0.00  0.00    +0.097 C 
ATOM     14  C   UNL     1     -11.494  -8.835  17.699  0.00  0.00    +0.085 C 
ENDROOT
BRANCH   9  16
ATOM      1  O   UNL     1     -13.050  -6.141  15.684  0.00  0.00    -0.275 OA
ATOM      4  N   UNL     1     -12.425  -6.325  13.449  0.00  0.00    -0.312 N 
ATOM     16  C   UNL     1     -12.306  -6.571  14.806  0.00  0.00    +0.218 C 
ATOM     31  H   UNL     1     -11.726  -6.708  12.819  0.00  0.00    +0.149 HD
BRANCH   4  17
ATOM     17  C   UNL     1     -13.473  -5.506  12.882  0.00  0.00    +0.073 C 
ATOM     18  C   UNL     1     -13.174  -4.016  13.078  0.00  0.00    +0.022 C 
ATOM     19  C   UNL     1     -13.692  -5.838  11.402  0.00  0.00    +0.022 C 
ATOM     20  C   UNL     1     -12.030  -3.526  12.191  0.00  0.00    +0.002 C 
ATOM     21  C   UNL     1     -12.547  -5.346  10.516  0.00  0.00    +0.002 C 
ATOM     22  C   UNL     1     -12.277  -3.858  10.722  0.00  0.00    +0.000 C 
ENDBRANCH   4  17
ENDBRANCH   9  16
BRANCH  10  15
ATOM     15  C   UNL     1      -8.838 -10.376  17.305  0.00  0.00    +0.164 C 
BRANCH  15   5
ATOM      5  N   UNL     1      -7.341 -10.427  17.181  0.00  0.00    -0.250 N 
ATOM      6  N   UNL     1      -6.563 -10.438  18.276  0.00  0.00    -0.065 NA
ATOM      7  N   UNL     1      -5.301 -10.484  17.861  0.00  0.00    -0.130 NA
ATOM     23  C   UNL     1      -6.602 -10.467  16.038  0.00  0.00    +0.138 A 
ATOM     24  C   UNL     1      -5.307 -10.503  16.495  0.00  0.00    +0.113 A 
BRANCH  24  25
ATOM     25  C   UNL     1      -4.139 -10.553  15.676  0.00  0.00    +0.007 A 
ATOM     26  C   UNL     1      -2.874 -10.563  16.263  0.00  0.00    +0.055 A 
ATOM     27  C   UNL     1      -4.264 -10.591  14.287  0.00  0.00    +0.010 A 
ATOM     28  C   UNL     1      -1.733 -10.612  15.461  0.00  0.00    +0.117 A 
ATOM     29  C   UNL     1      -3.124 -10.639  13.485  0.00  0.00    +0.004 A 
ATOM     30  C   UNL     1      -1.858 -10.650  14.072  0.00  0.00    +0.045 A 
BRANCH  28   2
ATOM      2  O   UNL     1      -0.499 -10.620  16.034  0.00  0.00    -0.507 OA
ATOM     32  H   UNL     1      -0.597 -10.560  16.999  0.00  0.00    +0.292 HD
ENDBRANCH  28   2
ENDBRANCH  24  25
ENDBRANCH  15   5
ENDBRANCH  10  15
TORSDOF 6
ENDMDL
