REMARK  Name = 56775328
REMARK  7 active torsions:
REMARK  status: ('A' for Active; 'I' for Inactive)
REMARK    1  A    between atoms: S_1  and  N_10
REMARK    2  A    between atoms: S_1  and  C_19
REMARK    3  A    between atoms: O_9  and  C_29
REMARK    4  A    between atoms: O_9  and  C_32
REMARK    5  A    between atoms: N_11  and  C_18
REMARK    6  A    between atoms: C_18  and  C_20
REMARK    7  A    between atoms: C_25  and  C_31
REMARK                            x       y       z     vdW  Elec       q    Type
REMARK                         _______ _______ _______ _____ _____    ______ ____
ROOT
ATOM      5  O   UNL     1      -0.896   3.711   1.209  0.00  0.00    -0.364 OA
ATOM      8  O   UNL     1       1.933   4.207  -0.902  0.00  0.00    -0.273 OA
ATOM     10  N   UNL     1      -2.875   1.751   0.200  0.00  0.00    -0.172 NA
ATOM     11  N   UNL     1       0.669   2.279  -0.592  0.00  0.00    -0.288 N 
ATOM     12  C   UNL     1      -0.482   1.650   0.045  0.00  0.00    +0.122 C 
ATOM     13  C   UNL     1      -0.873   2.295   1.364  0.00  0.00    +0.156 C 
ATOM     14  C   UNL     1      -1.761   1.766  -0.791  0.00  0.00    +0.134 C 
ATOM     15  C   UNL     1      -2.297   1.796   1.575  0.00  0.00    +0.143 C 
ATOM     16  C   UNL     1       1.061   3.582  -0.297  0.00  0.00    +0.242 C 
ATOM     17  C   UNL     1       0.394   4.201   0.920  0.00  0.00    +0.256 C 
ENDROOT
BRANCH  10   1
ATOM      1  S   UNL     1      -4.180   0.700  -0.076  0.00  0.00    +0.061 S 
ATOM      6  O   UNL     1      -4.706   0.917  -1.411  0.00  0.00    -0.153 OA
ATOM      7  O   UNL     1      -5.066   0.717   1.074  0.00  0.00    -0.153 OA
BRANCH   1  19
ATOM     19  C   UNL     1      -3.344  -0.858  -0.082  0.00  0.00    +0.106 A 
ATOM     21  C   UNL     1      -3.187  -1.570   1.107  0.00  0.00    +0.032 A 
ATOM     22  C   UNL     1      -2.841  -1.374  -1.276  0.00  0.00    +0.032 A 
ATOM     26  C   UNL     1      -2.527  -2.799   1.102  0.00  0.00    +0.047 A 
ATOM     27  C   UNL     1      -2.180  -2.603  -1.281  0.00  0.00    +0.047 A 
ATOM     29  C   UNL     1      -2.023  -3.315  -0.092  0.00  0.00    +0.120 A 
BRANCH  29   9
ATOM      9  O   UNL     1      -1.379  -4.514  -0.096  0.00  0.00    -0.495 OA
ATOM     32  C   UNL     1      -1.254  -5.189   1.155  0.00  0.00    +0.277 C 
ENDBRANCH  29   9
ENDBRANCH   1  19
ENDBRANCH  10   1
BRANCH  11  18
ATOM     18  C   UNL     1       1.299   1.550  -1.684  0.00  0.00    +0.143 C 
BRANCH  18  20
ATOM     20  C   UNL     1       1.929   0.270  -1.215  0.00  0.00    -0.030 A 
ATOM     23  C   UNL     1       3.134   0.302  -0.513  0.00  0.00    +0.017 A 
ATOM     24  C   UNL     1       1.309  -0.951  -1.482  0.00  0.00    +0.005 A 
ATOM     25  C   UNL     1       3.720  -0.887  -0.078  0.00  0.00    +0.055 A 
ATOM     28  C   UNL     1       1.895  -2.140  -1.046  0.00  0.00    +0.001 A 
ATOM     30  C   UNL     1       3.099  -2.108  -0.344  0.00  0.00    +0.012 A 
BRANCH  25  31
ATOM      2  F   UNL     1       5.444  -2.098   1.024  0.00  0.00    -0.166 F 
ATOM      3  F   UNL     1       6.036  -0.291  -0.030  0.00  0.00    -0.166 F 
ATOM      4  F   UNL     1       4.944  -0.145   1.838  0.00  0.00    -0.166 F 
ATOM     31  C   UNL     1       5.008  -0.853   0.672  0.00  0.00    +0.417 C 
ENDBRANCH  25  31
ENDBRANCH  18  20
ENDBRANCH  11  18
TORSDOF 6
