MODEL 1
REMARK VINA RESULT:      -7.7      0.000      0.000
REMARK  Name = 51137599
REMARK  6 active torsions:
REMARK  status: ('A' for Active; 'I' for Inactive)
REMARK    1  A    between atoms: O_5  and  C_22
REMARK    2  A    between atoms: O_5  and  C_24
REMARK    3  A    between atoms: N_6  and  C_13
REMARK    4  A    between atoms: C_9  and  C_14
REMARK    5  A    between atoms: C_13  and  C_15
REMARK    6  A    between atoms: C_18  and  C_22
REMARK                            x       y       z     vdW  Elec       q    Type
REMARK                         _______ _______ _______ _____ _____    ______ ____
ROOT
ATOM      6  N   UNL     1      16.066   7.310  20.288  0.00  0.00    -0.297 NA
ATOM      9  C   UNL     1      13.810   6.671  20.317  0.00  0.00    +0.092 C 
ATOM     10  C   UNL     1      15.004   6.963  21.235  0.00  0.00    +0.097 C 
ATOM     11  C   UNL     1      14.105   7.463  19.031  0.00  0.00    +0.029 C 
ATOM     12  C   UNL     1      15.423   8.176  19.301  0.00  0.00    +0.085 C 
ENDROOT
BRANCH   9  14
ATOM      2  O   UNL     1      12.324   8.232  21.478  0.00  0.00    -0.421 OA
ATOM      7  N   UNL     1      11.421   6.219  21.107  0.00  0.00    -0.112 NA
ATOM      8  N   UNL     1      10.483   6.995  21.762  0.00  0.00    -0.109 NA
ATOM     14  C   UNL     1      12.479   6.982  20.962  0.00  0.00    +0.222 A 
ATOM     18  C   UNL     1      11.052   8.160  21.958  0.00  0.00    +0.254 A 
BRANCH  18  22
ATOM     22  C   UNL     1      10.519   9.366  22.606  0.00  0.00    +0.326 C 
BRANCH  22   5
ATOM      5  O   UNL     1      11.584  10.257  22.948  0.00  0.00    -0.483 OA
BRANCH   5  24
ATOM      1  F   UNL     1      10.136  15.067  25.177  0.00  0.00    -0.205 F 
ATOM     24  C   UNL     1      11.224  11.453  23.502  0.00  0.00    +0.121 A 
ATOM     25  C   UNL     1      11.101  11.572  24.887  0.00  0.00    +0.048 A 
ATOM     26  C   UNL     1      10.979  12.556  22.683  0.00  0.00    +0.048 A 
ATOM     27  C   UNL     1      10.734  12.792  25.452  0.00  0.00    +0.042 A 
ATOM     28  C   UNL     1      10.612  13.776  23.249  0.00  0.00    +0.042 A 
ATOM     29  C   UNL     1      10.489  13.895  24.634  0.00  0.00    +0.124 A 
ENDBRANCH   5  24
ENDBRANCH  22   5
ENDBRANCH  18  22
ENDBRANCH   9  14
BRANCH   6  13
ATOM     13  C   UNL     1      17.199   7.953  20.937  0.00  0.00    +0.119 C 
BRANCH  13  15
ATOM      3  O   UNL     1      21.318   6.282  23.114  0.00  0.00    -0.453 OA
ATOM      4  O   UNL     1      21.648   4.575  21.446  0.00  0.00    -0.453 OA
ATOM     15  C   UNL     1      18.383   7.030  21.041  0.00  0.00    -0.030 A 
ATOM     16  C   UNL     1      19.279   7.168  22.105  0.00  0.00    +0.054 A 
ATOM     17  C   UNL     1      18.577   6.034  20.068  0.00  0.00    +0.009 A 
ATOM     19  C   UNL     1      20.348   6.297  22.158  0.00  0.00    +0.167 A 
ATOM     20  C   UNL     1      19.667   5.164  20.147  0.00  0.00    +0.050 A 
ATOM     21  C   UNL     1      20.537   5.322  21.206  0.00  0.00    +0.166 A 
ATOM     23  C   UNL     1      22.137   5.187  22.655  0.00  0.00    +0.466 C 
ENDBRANCH  13  15
ENDBRANCH   6  13
TORSDOF 6
ENDMDL
MODEL 2
REMARK VINA RESULT:      -7.5     26.495     29.967
REMARK  Name = 51137599
REMARK  6 active torsions:
REMARK  status: ('A' for Active; 'I' for Inactive)
REMARK    1  A    between atoms: O_5  and  C_22
REMARK    2  A    between atoms: O_5  and  C_24
REMARK    3  A    between atoms: N_6  and  C_13
REMARK    4  A    between atoms: C_9  and  C_14
REMARK    5  A    between atoms: C_13  and  C_15
REMARK    6  A    between atoms: C_18  and  C_22
REMARK                            x       y       z     vdW  Elec       q    Type
REMARK                         _______ _______ _______ _____ _____    ______ ____
ROOT
ATOM      6  N   UNL     1     -14.011   6.589  21.535  0.00  0.00    -0.297 NA
ATOM      9  C   UNL     1     -15.669   5.186  22.422  0.00  0.00    +0.092 C 
ATOM     10  C   UNL     1     -14.223   5.188  21.907  0.00  0.00    +0.097 C 
ATOM     11  C   UNL     1     -15.921   6.634  22.878  0.00  0.00    +0.029 C 
ATOM     12  C   UNL     1     -14.607   7.362  22.625  0.00  0.00    +0.085 C 
ENDROOT
BRANCH   9  14
ATOM      2  O   UNL     1     -15.984   4.566  24.769  0.00  0.00    -0.421 OA
ATOM      7  N   UNL     1     -16.084   2.840  23.349  0.00  0.00    -0.112 NA
ATOM      8  N   UNL     1     -16.279   2.354  24.628  0.00  0.00    -0.109 NA
ATOM     14  C   UNL     1     -15.917   4.135  23.479  0.00  0.00    +0.222 A 
ATOM     18  C   UNL     1     -16.211   3.394  25.424  0.00  0.00    +0.254 A 
BRANCH  18  22
ATOM     22  C   UNL     1     -16.347   3.467  26.884  0.00  0.00    +0.326 C 
BRANCH  22   5
ATOM      5  O   UNL     1     -16.285   2.156  27.453  0.00  0.00    -0.483 OA
BRANCH   5  24
ATOM      1  F   UNL     1     -13.966   1.744  32.419  0.00  0.00    -0.205 F 
ATOM     24  C   UNL     1     -15.708   2.055  28.688  0.00  0.00    +0.121 A 
ATOM     25  C   UNL     1     -15.857   0.883  29.432  0.00  0.00    +0.048 A 
ATOM     26  C   UNL     1     -14.971   3.120  29.205  0.00  0.00    +0.048 A 
ATOM     27  C   UNL     1     -15.269   0.779  30.692  0.00  0.00    +0.042 A 
ATOM     28  C   UNL     1     -14.383   3.015  30.464  0.00  0.00    +0.042 A 
ATOM     29  C   UNL     1     -14.531   1.845  31.209  0.00  0.00    +0.124 A 
ENDBRANCH   5  24
ENDBRANCH  22   5
ENDBRANCH  18  22
ENDBRANCH   9  14
BRANCH   6  13
ATOM     13  C   UNL     1     -12.603   6.903  21.338  0.00  0.00    +0.119 C 
BRANCH  13  15
ATOM      3  O   UNL     1      -9.757   9.232  18.026  0.00  0.00    -0.453 OA
ATOM      4  O   UNL     1     -11.567   9.454  16.451  0.00  0.00    -0.453 OA
ATOM     15  C   UNL     1     -12.362   7.583  20.017  0.00  0.00    -0.030 A 
ATOM     16  C   UNL     1     -11.090   8.078  19.714  0.00  0.00    +0.054 A 
ATOM     17  C   UNL     1     -13.417   7.714  19.098  0.00  0.00    +0.009 A 
ATOM     19  C   UNL     1     -10.917   8.692  18.491  0.00  0.00    +0.167 A 
ATOM     20  C   UNL     1     -13.214   8.339  17.865  0.00  0.00    +0.050 A 
ATOM     21  C   UNL     1     -11.950   8.819  17.591  0.00  0.00    +0.166 A 
ATOM     23  C   UNL     1     -10.177   9.712  16.732  0.00  0.00    +0.466 C 
ENDBRANCH  13  15
ENDBRANCH   6  13
TORSDOF 6
ENDMDL
MODEL 3
REMARK VINA RESULT:      -7.4     28.503     31.310
REMARK  Name = 51137599
REMARK  6 active torsions:
REMARK  status: ('A' for Active; 'I' for Inactive)
REMARK    1  A    between atoms: O_5  and  C_22
REMARK    2  A    between atoms: O_5  and  C_24
REMARK    3  A    between atoms: N_6  and  C_13
REMARK    4  A    between atoms: C_9  and  C_14
REMARK    5  A    between atoms: C_13  and  C_15
REMARK    6  A    between atoms: C_18  and  C_22
REMARK                            x       y       z     vdW  Elec       q    Type
REMARK                         _______ _______ _______ _____ _____    ______ ____
ROOT
ATOM      6  N   UNL     1     -15.395   1.883  29.637  0.00  0.00    -0.297 NA
ATOM      9  C   UNL     1     -16.543   2.457  27.674  0.00  0.00    +0.092 C 
ATOM     10  C   UNL     1     -15.304   2.811  28.507  0.00  0.00    +0.097 C 
ATOM     11  C   UNL     1     -16.859   0.999  28.048  0.00  0.00    +0.029 C 
ATOM     12  C   UNL     1     -15.776   0.602  29.042  0.00  0.00    +0.085 C 
ENDROOT
BRANCH   9  14
ATOM      2  O   UNL     1     -16.111   3.990  25.814  0.00  0.00    -0.421 OA
ATOM      7  N   UNL     1     -16.375   1.857  25.194  0.00  0.00    -0.112 NA
ATOM      8  N   UNL     1     -16.138   2.606  24.057  0.00  0.00    -0.109 NA
ATOM     14  C   UNL     1     -16.350   2.705  26.196  0.00  0.00    +0.222 A 
ATOM     18  C   UNL     1     -15.991   3.844  24.466  0.00  0.00    +0.254 A 
BRANCH  18  22
ATOM     22  C   UNL     1     -15.718   5.059  23.689  0.00  0.00    +0.326 C 
BRANCH  22   5
ATOM      5  O   UNL     1     -15.387   4.722  22.339  0.00  0.00    -0.483 OA
BRANCH   5  24
ATOM      1  F   UNL     1     -11.793   8.012  19.798  0.00  0.00    -0.205 F 
ATOM     24  C   UNL     1     -14.493   5.539  21.708  0.00  0.00    +0.121 A 
ATOM     25  C   UNL     1     -14.944   6.488  20.789  0.00  0.00    +0.048 A 
ATOM     26  C   UNL     1     -13.130   5.427  21.981  0.00  0.00    +0.048 A 
ATOM     27  C   UNL     1     -14.032   7.323  20.145  0.00  0.00    +0.042 A 
ATOM     28  C   UNL     1     -12.218   6.262  21.337  0.00  0.00    +0.042 A 
ATOM     29  C   UNL     1     -12.669   7.210  20.418  0.00  0.00    +0.124 A 
ENDBRANCH   5  24
ENDBRANCH  22   5
ENDBRANCH  18  22
ENDBRANCH   9  14
BRANCH   6  13
ATOM     13  C   UNL     1     -14.150   1.798  30.386  0.00  0.00    +0.119 C 
BRANCH  13  15
ATOM      3  O   UNL     1     -13.849   5.786  33.303  0.00  0.00    -0.453 OA
ATOM      4  O   UNL     1     -14.477   4.541  35.268  0.00  0.00    -0.453 OA
ATOM     15  C   UNL     1     -14.246   2.502  31.713  0.00  0.00    -0.030 A 
ATOM     16  C   UNL     1     -13.973   3.870  31.794  0.00  0.00    +0.054 A 
ATOM     17  C   UNL     1     -14.611   1.776  32.860  0.00  0.00    +0.009 A 
ATOM     19  C   UNL     1     -14.077   4.471  33.032  0.00  0.00    +0.167 A 
ATOM     20  C   UNL     1     -14.710   2.410  34.102  0.00  0.00    +0.050 A 
ATOM     21  C   UNL     1     -14.435   3.761  34.155  0.00  0.00    +0.166 A 
ATOM     23  C   UNL     1     -14.106   5.822  34.722  0.00  0.00    +0.466 C 
ENDBRANCH  13  15
ENDBRANCH   6  13
TORSDOF 6
ENDMDL
MODEL 4
REMARK VINA RESULT:      -7.2      3.411      5.798
REMARK  Name = 51137599
REMARK  6 active torsions:
REMARK  status: ('A' for Active; 'I' for Inactive)
REMARK    1  A    between atoms: O_5  and  C_22
REMARK    2  A    between atoms: O_5  and  C_24
REMARK    3  A    between atoms: N_6  and  C_13
REMARK    4  A    between atoms: C_9  and  C_14
REMARK    5  A    between atoms: C_13  and  C_15
REMARK    6  A    between atoms: C_18  and  C_22
REMARK                            x       y       z     vdW  Elec       q    Type
REMARK                         _______ _______ _______ _____ _____    ______ ____
ROOT
ATOM      6  N   UNL     1      21.058   4.965  20.993  0.00  0.00    -0.297 NA
ATOM      9  C   UNL     1      19.264   6.385  20.478  0.00  0.00    +0.092 C 
ATOM     10  C   UNL     1      19.737   4.930  20.361  0.00  0.00    +0.097 C 
ATOM     11  C   UNL     1      20.041   6.951  21.679  0.00  0.00    +0.029 C 
ATOM     12  C   UNL     1      20.883   5.788  22.189  0.00  0.00    +0.085 C 
ENDROOT
BRANCH   9  14
ATOM      2  O   UNL     1      17.100   6.894  19.453  0.00  0.00    -0.421 OA
ATOM      7  N   UNL     1      16.971   6.301  21.606  0.00  0.00    -0.112 NA
ATOM      8  N   UNL     1      15.690   6.557  21.156  0.00  0.00    -0.109 NA
ATOM     14  C   UNL     1      17.761   6.510  20.579  0.00  0.00    +0.222 A 
ATOM     18  C   UNL     1      15.813   6.900  19.895  0.00  0.00    +0.254 A 
BRANCH  18  22
ATOM     22  C   UNL     1      14.779   7.275  18.923  0.00  0.00    +0.326 C 
BRANCH  22   5
ATOM      5  O   UNL     1      13.544   6.625  19.235  0.00  0.00    -0.483 OA
BRANCH   5  24
ATOM      1  F   UNL     1      10.015   9.436  22.373  0.00  0.00    -0.205 F 
ATOM     24  C   UNL     1      12.667   7.325  20.014  0.00  0.00    +0.121 A 
ATOM     25  C   UNL     1      12.025   6.693  21.081  0.00  0.00    +0.048 A 
ATOM     26  C   UNL     1      12.412   8.670  19.746  0.00  0.00    +0.048 A 
ATOM     27  C   UNL     1      11.129   7.406  21.876  0.00  0.00    +0.042 A 
ATOM     28  C   UNL     1      11.517   9.383  20.542  0.00  0.00    +0.042 A 
ATOM     29  C   UNL     1      10.875   8.751  21.608  0.00  0.00    +0.124 A 
ENDBRANCH   5  24
ENDBRANCH  22   5
ENDBRANCH  18  22
ENDBRANCH   9  14
BRANCH   6  13
ATOM     13  C   UNL     1      21.559   3.634  21.304  0.00  0.00    +0.119 C 
BRANCH  13  15
ATOM      3  O   UNL     1      25.786   5.224  19.279  0.00  0.00    -0.453 OA
ATOM      4  O   UNL     1      26.906   3.129  19.684  0.00  0.00    -0.453 OA
ATOM     15  C   UNL     1      22.994   3.463  20.881  0.00  0.00    -0.030 A 
ATOM     16  C   UNL     1      23.665   4.520  20.260  0.00  0.00    +0.054 A 
ATOM     17  C   UNL     1      23.647   2.241  21.117  0.00  0.00    +0.009 A 
ATOM     19  C   UNL     1      24.979   4.315  19.893  0.00  0.00    +0.167 A 
ATOM     20  C   UNL     1      24.979   2.061  20.736  0.00  0.00    +0.050 A 
ATOM     21  C   UNL     1      25.619   3.119  20.124  0.00  0.00    +0.166 A 
ATOM     23  C   UNL     1      27.006   4.464  19.151  0.00  0.00    +0.466 C 
ENDBRANCH  13  15
ENDBRANCH   6  13
TORSDOF 6
ENDMDL
MODEL 5
REMARK VINA RESULT:      -7.1      5.411     11.666
REMARK  Name = 51137599
REMARK  6 active torsions:
REMARK  status: ('A' for Active; 'I' for Inactive)
REMARK    1  A    between atoms: O_5  and  C_22
REMARK    2  A    between atoms: O_5  and  C_24
REMARK    3  A    between atoms: N_6  and  C_13
REMARK    4  A    between atoms: C_9  and  C_14
REMARK    5  A    between atoms: C_13  and  C_15
REMARK    6  A    between atoms: C_18  and  C_22
REMARK                            x       y       z     vdW  Elec       q    Type
REMARK                         _______ _______ _______ _____ _____    ______ ____
ROOT
ATOM      6  N   UNL     1      15.985   7.879  20.443  0.00  0.00    -0.297 NA
ATOM      9  C   UNL     1      18.204   7.123  20.378  0.00  0.00    +0.092 C 
ATOM     10  C   UNL     1      17.236   7.986  21.198  0.00  0.00    +0.097 C 
ATOM     11  C   UNL     1      17.299   6.131  19.626  0.00  0.00    +0.029 C 
ATOM     12  C   UNL     1      15.884   6.466  20.079  0.00  0.00    +0.085 C 
ENDROOT
BRANCH   9  14
ATOM      2  O   UNL     1      20.004   5.485  20.641  0.00  0.00    -0.421 OA
ATOM      7  N   UNL     1      19.647   6.746  22.454  0.00  0.00    -0.112 NA
ATOM      8  N   UNL     1      20.681   5.874  22.737  0.00  0.00    -0.109 NA
ATOM     14  C   UNL     1      19.283   6.484  21.221  0.00  0.00    +0.222 A 
ATOM     18  C   UNL     1      20.855   5.158  21.652  0.00  0.00    +0.254 A 
BRANCH  18  22
ATOM     22  C   UNL     1      21.818   4.082  21.386  0.00  0.00    +0.326 C 
BRANCH  22   5
ATOM      5  O   UNL     1      22.323   3.552  22.614  0.00  0.00    -0.483 OA
BRANCH   5  24
ATOM      1  F   UNL     1      26.067  -0.450  22.209  0.00  0.00    -0.205 F 
ATOM     24  C   UNL     1      23.254   2.557  22.513  0.00  0.00    +0.121 A 
ATOM     25  C   UNL     1      23.671   1.874  23.656  0.00  0.00    +0.048 A 
ATOM     26  C   UNL     1      23.787   2.224  21.268  0.00  0.00    +0.048 A 
ATOM     27  C   UNL     1      24.621   0.859  23.553  0.00  0.00    +0.042 A 
ATOM     28  C   UNL     1      24.736   1.208  21.165  0.00  0.00    +0.042 A 
ATOM     29  C   UNL     1      25.154   0.525  22.308  0.00  0.00    +0.124 A 
ENDBRANCH   5  24
ENDBRANCH  22   5
ENDBRANCH  18  22
ENDBRANCH   9  14
BRANCH   6  13
ATOM     13  C   UNL     1      14.835   8.337  21.209  0.00  0.00    +0.119 C 
BRANCH  13  15
ATOM      3  O   UNL     1      12.439   8.841  16.908  0.00  0.00    -0.453 OA
ATOM      4  O   UNL     1      10.279   8.603  17.948  0.00  0.00    -0.453 OA
ATOM     15  C   UNL     1      13.590   8.405  20.365  0.00  0.00    -0.030 A 
ATOM     16  C   UNL     1      13.698   8.602  18.986  0.00  0.00    +0.054 A 
ATOM     17  C   UNL     1      12.330   8.267  20.971  0.00  0.00    +0.009 A 
ATOM     19  C   UNL     1      12.530   8.655  18.254  0.00  0.00    +0.167 A 
ATOM     20  C   UNL     1      11.162   8.323  20.206  0.00  0.00    +0.050 A 
ATOM     21  C   UNL     1      11.296   8.519  18.847  0.00  0.00    +0.166 A 
ATOM     23  C   UNL     1      11.009   8.806  16.722  0.00  0.00    +0.466 C 
ENDBRANCH  13  15
ENDBRANCH   6  13
TORSDOF 6
ENDMDL
MODEL 6
REMARK VINA RESULT:      -7.0     27.027     29.336
REMARK  Name = 51137599
REMARK  6 active torsions:
REMARK  status: ('A' for Active; 'I' for Inactive)
REMARK    1  A    between atoms: O_5  and  C_22
REMARK    2  A    between atoms: O_5  and  C_24
REMARK    3  A    between atoms: N_6  and  C_13
REMARK    4  A    between atoms: C_9  and  C_14
REMARK    5  A    between atoms: C_13  and  C_15
REMARK    6  A    between atoms: C_18  and  C_22
REMARK                            x       y       z     vdW  Elec       q    Type
REMARK                         _______ _______ _______ _____ _____    ______ ____
ROOT
ATOM      6  N   UNL     1      -2.407 -11.028  13.892  0.00  0.00    -0.297 NA
ATOM      9  C   UNL     1      -3.354 -10.563  15.987  0.00  0.00    +0.092 C 
ATOM     10  C   UNL     1      -3.665 -11.193  14.623  0.00  0.00    +0.097 C 
ATOM     11  C   UNL     1      -1.825 -10.671  16.125  0.00  0.00    +0.029 C 
ATOM     12  C   UNL     1      -1.363 -11.375  14.856  0.00  0.00    +0.085 C 
ENDROOT
BRANCH   9  14
ATOM      2  O   UNL     1      -5.007 -10.376  17.783  0.00  0.00    -0.421 OA
ATOM      7  N   UNL     1      -4.115 -12.417  17.574  0.00  0.00    -0.112 NA
ATOM      8  N   UNL     1      -5.025 -12.452  18.614  0.00  0.00    -0.109 NA
ATOM     14  C   UNL     1      -4.138 -11.186  17.118  0.00  0.00    +0.222 A 
ATOM     18  C   UNL     1      -5.521 -11.241  18.700  0.00  0.00    +0.254 A 
BRANCH  18  22
ATOM     22  C   UNL     1      -6.529 -10.706  19.624  0.00  0.00    +0.326 C 
BRANCH  22   5
ATOM      5  O   UNL     1      -7.766 -11.405  19.467  0.00  0.00    -0.483 OA
BRANCH   5  24
ATOM      1  F   UNL     1     -12.030  -8.463  17.631  0.00  0.00    -0.205 F 
ATOM     24  C   UNL     1      -8.827 -10.674  19.012  0.00  0.00    +0.121 A 
ATOM     25  C   UNL     1      -8.708  -9.933  17.835  0.00  0.00    +0.048 A 
ATOM     26  C   UNL     1     -10.028 -10.667  19.721  0.00  0.00    +0.048 A 
ATOM     27  C   UNL     1      -9.790  -9.187  17.369  0.00  0.00    +0.042 A 
ATOM     28  C   UNL     1     -11.109  -9.921  19.255  0.00  0.00    +0.042 A 
ATOM     29  C   UNL     1     -10.991  -9.180  18.079  0.00  0.00    +0.124 A 
ENDBRANCH   5  24
ENDBRANCH  22   5
ENDBRANCH  18  22
ENDBRANCH   9  14
BRANCH   6  13
ATOM     13  C   UNL     1      -2.351 -11.851  12.693  0.00  0.00    +0.119 C 
BRANCH  13  15
ATOM      3  O   UNL     1      -5.376 -11.633   8.782  0.00  0.00    -0.453 OA
ATOM      4  O   UNL     1      -4.723  -9.374   8.254  0.00  0.00    -0.453 OA
ATOM     15  C   UNL     1      -2.966 -11.156  11.508  0.00  0.00    -0.030 A 
ATOM     16  C   UNL     1      -3.911 -11.824  10.726  0.00  0.00    +0.054 A 
ATOM     17  C   UNL     1      -2.585  -9.838  11.199  0.00  0.00    +0.009 A 
ATOM     19  C   UNL     1      -4.448 -11.145   9.651  0.00  0.00    +0.167 A 
ATOM     20  C   UNL     1      -3.146  -9.173  10.106  0.00  0.00    +0.050 A 
ATOM     21  C   UNL     1      -4.076  -9.856   9.349  0.00  0.00    +0.166 A 
ATOM     23  C   UNL     1      -5.545 -10.504   7.900  0.00  0.00    +0.466 C 
ENDBRANCH  13  15
ENDBRANCH   6  13
TORSDOF 6
ENDMDL
MODEL 7
REMARK VINA RESULT:      -6.7     27.315     30.329
REMARK  Name = 51137599
REMARK  6 active torsions:
REMARK  status: ('A' for Active; 'I' for Inactive)
REMARK    1  A    between atoms: O_5  and  C_22
REMARK    2  A    between atoms: O_5  and  C_24
REMARK    3  A    between atoms: N_6  and  C_13
REMARK    4  A    between atoms: C_9  and  C_14
REMARK    5  A    between atoms: C_13  and  C_15
REMARK    6  A    between atoms: C_18  and  C_22
REMARK                            x       y       z     vdW  Elec       q    Type
REMARK                         _______ _______ _______ _____ _____    ______ ____
ROOT
ATOM      6  N   UNL     1      -6.373 -10.721  17.801  0.00  0.00    -0.297 NA
ATOM      9  C   UNL     1      -4.515 -11.475  16.584  0.00  0.00    +0.092 C 
ATOM     10  C   UNL     1      -5.677 -10.474  16.535  0.00  0.00    +0.097 C 
ATOM     11  C   UNL     1      -4.290 -11.737  18.083  0.00  0.00    +0.029 C 
ATOM     12  C   UNL     1      -5.310 -10.857  18.795  0.00  0.00    +0.085 C 
ENDROOT
BRANCH   9  14
ATOM      2  O   UNL     1      -3.384 -10.954  14.476  0.00  0.00    -0.421 OA
ATOM      7  N   UNL     1      -2.129 -10.605  16.294  0.00  0.00    -0.112 NA
ATOM      8  N   UNL     1      -1.375 -10.272  15.184  0.00  0.00    -0.109 NA
ATOM     14  C   UNL     1      -3.293 -10.997  15.834  0.00  0.00    +0.222 A 
ATOM     18  C   UNL     1      -2.147 -10.492  14.146  0.00  0.00    +0.254 A 
BRANCH  18  22
ATOM     22  C   UNL     1      -1.867 -10.309  12.716  0.00  0.00    +0.326 C 
BRANCH  22   5
ATOM      5  O   UNL     1      -2.548 -11.303  11.946  0.00  0.00    -0.483 OA
BRANCH   5  24
ATOM      1  F   UNL     1      -5.185  -9.552   7.454  0.00  0.00    -0.205 F 
ATOM     24  C   UNL     1      -3.203 -10.867  10.830  0.00  0.00    +0.121 A 
ATOM     25  C   UNL     1      -3.835 -11.785   9.989  0.00  0.00    +0.048 A 
ATOM     26  C   UNL     1      -3.241  -9.506  10.529  0.00  0.00    +0.048 A 
ATOM     27  C   UNL     1      -4.504 -11.340   8.850  0.00  0.00    +0.042 A 
ATOM     28  C   UNL     1      -3.911  -9.062   9.390  0.00  0.00    +0.042 A 
ATOM     29  C   UNL     1      -4.542  -9.979   8.549  0.00  0.00    +0.124 A 
ENDBRANCH   5  24
ENDBRANCH  22   5
ENDBRANCH  18  22
ENDBRANCH   9  14
BRANCH   6  13
ATOM     13  C   UNL     1      -7.311  -9.659  18.134  0.00  0.00    +0.119 C 
BRANCH  13  15
ATOM      3  O   UNL     1     -10.762  -7.591  15.250  0.00  0.00    -0.453 OA
ATOM      4  O   UNL     1     -11.877  -9.694  14.876  0.00  0.00    -0.453 OA
ATOM     15  C   UNL     1      -8.540  -9.705  17.266  0.00  0.00    -0.030 A 
ATOM     16  C   UNL     1      -9.022  -8.530  16.683  0.00  0.00    +0.054 A 
ATOM     17  C   UNL     1      -9.192 -10.932  17.048  0.00  0.00    +0.009 A 
ATOM     19  C   UNL     1     -10.151  -8.624  15.895  0.00  0.00    +0.167 A 
ATOM     20  C   UNL     1     -10.332 -10.998  16.243  0.00  0.00    +0.050 A 
ATOM     21  C   UNL     1     -10.788  -9.824  15.681  0.00  0.00    +0.166 A 
ATOM     23  C   UNL     1     -11.854  -8.278  14.607  0.00  0.00    +0.466 C 
ENDBRANCH  13  15
ENDBRANCH   6  13
TORSDOF 6
ENDMDL
MODEL 8
REMARK VINA RESULT:      -6.7     27.049     30.970
REMARK  Name = 51137599
REMARK  6 active torsions:
REMARK  status: ('A' for Active; 'I' for Inactive)
REMARK    1  A    between atoms: O_5  and  C_22
REMARK    2  A    between atoms: O_5  and  C_24
REMARK    3  A    between atoms: N_6  and  C_13
REMARK    4  A    between atoms: C_9  and  C_14
REMARK    5  A    between atoms: C_13  and  C_15
REMARK    6  A    between atoms: C_18  and  C_22
REMARK                            x       y       z     vdW  Elec       q    Type
REMARK                         _______ _______ _______ _____ _____    ______ ____
ROOT
ATOM      6  N   UNL     1     -10.366  -8.687  17.236  0.00  0.00    -0.297 NA
ATOM      9  C   UNL     1      -8.907 -10.442  17.777  0.00  0.00    +0.092 C 
ATOM     10  C   UNL     1      -8.935  -8.999  17.257  0.00  0.00    +0.097 C 
ATOM     11  C   UNL     1     -10.213 -10.592  18.577  0.00  0.00    +0.029 C 
ATOM     12  C   UNL     1     -10.888  -9.230  18.489  0.00  0.00    +0.085 C 
ENDROOT
BRANCH   9  14
ATOM      2  O   UNL     1      -6.512 -10.949  17.824  0.00  0.00    -0.421 OA
ATOM      7  N   UNL     1      -7.473 -10.902  19.843  0.00  0.00    -0.112 NA
ATOM      8  N   UNL     1      -6.133 -11.195  20.014  0.00  0.00    -0.109 NA
ATOM     14  C   UNL     1      -7.649 -10.766  18.550  0.00  0.00    +0.222 A 
ATOM     18  C   UNL     1      -5.612 -11.213  18.811  0.00  0.00    +0.254 A 
BRANCH  18  22
ATOM     22  C   UNL     1      -4.228 -11.469  18.394  0.00  0.00    +0.326 C 
BRANCH  22   5
ATOM      5  O   UNL     1      -4.204 -12.085  17.104  0.00  0.00    -0.483 OA
BRANCH   5  24
ATOM      1  F   UNL     1      -1.145  -9.617  13.263  0.00  0.00    -0.205 F 
ATOM     24  C   UNL     1      -3.444 -11.472  16.149  0.00  0.00    +0.121 A 
ATOM     25  C   UNL     1      -2.235 -10.869  16.500  0.00  0.00    +0.048 A 
ATOM     26  C   UNL     1      -3.875 -11.448  14.822  0.00  0.00    +0.048 A 
ATOM     27  C   UNL     1      -1.460 -10.243  15.525  0.00  0.00    +0.042 A 
ATOM     28  C   UNL     1      -3.099 -10.822  13.848  0.00  0.00    +0.042 A 
ATOM     29  C   UNL     1      -1.891 -10.219  14.199  0.00  0.00    +0.124 A 
ENDBRANCH   5  24
ENDBRANCH  22   5
ENDBRANCH  18  22
ENDBRANCH   9  14
BRANCH   6  13
ATOM     13  C   UNL     1     -10.621  -7.261  17.099  0.00  0.00    +0.119 C 
BRANCH  13  15
ATOM      3  O   UNL     1     -12.219  -4.576  13.260  0.00  0.00    -0.453 OA
ATOM      4  O   UNL     1     -14.076  -6.055  12.848  0.00  0.00    -0.453 OA
ATOM     15  C   UNL     1     -11.569  -6.967  15.968  0.00  0.00    -0.030 A 
ATOM     16  C   UNL     1     -11.363  -5.842  15.165  0.00  0.00    +0.054 A 
ATOM     17  C   UNL     1     -12.653  -7.828  15.728  0.00  0.00    +0.009 A 
ATOM     19  C   UNL     1     -12.258  -5.616  14.139  0.00  0.00    +0.167 A 
ATOM     20  C   UNL     1     -13.544  -7.577  14.681  0.00  0.00    +0.050 A 
ATOM     21  C   UNL     1     -13.319  -6.459  13.903  0.00  0.00    +0.166 A 
ATOM     23  C   UNL     1     -13.374  -4.862  12.446  0.00  0.00    +0.466 C 
ENDBRANCH  13  15
ENDBRANCH   6  13
TORSDOF 6
ENDMDL
MODEL 9
REMARK VINA RESULT:      -6.6     27.705     30.828
REMARK  Name = 51137599
REMARK  6 active torsions:
REMARK  status: ('A' for Active; 'I' for Inactive)
REMARK    1  A    between atoms: O_5  and  C_22
REMARK    2  A    between atoms: O_5  and  C_24
REMARK    3  A    between atoms: N_6  and  C_13
REMARK    4  A    between atoms: C_9  and  C_14
REMARK    5  A    between atoms: C_13  and  C_15
REMARK    6  A    between atoms: C_18  and  C_22
REMARK                            x       y       z     vdW  Elec       q    Type
REMARK                         _______ _______ _______ _____ _____    ______ ____
ROOT
ATOM      6  N   UNL     1     -15.151   4.667  32.858  0.00  0.00    -0.297 NA
ATOM      9  C   UNL     1     -13.644   6.413  33.285  0.00  0.00    +0.092 C 
ATOM     10  C   UNL     1     -14.580   5.849  32.208  0.00  0.00    +0.097 C 
ATOM     11  C   UNL     1     -14.225   5.896  34.613  0.00  0.00    +0.029 C 
ATOM     12  C   UNL     1     -15.462   5.099  34.220  0.00  0.00    +0.085 C 
ENDROOT
BRANCH   9  14
ATOM      2  O   UNL     1     -13.156   8.431  31.988  0.00  0.00    -0.421 OA
ATOM      7  N   UNL     1     -13.624   8.822  34.140  0.00  0.00    -0.112 NA
ATOM      8  N   UNL     1     -13.372  10.036  33.530  0.00  0.00    -0.109 NA
ATOM     14  C   UNL     1     -13.487   7.914  33.203  0.00  0.00    +0.222 A 
ATOM     18  C   UNL     1     -13.103   9.760  32.276  0.00  0.00    +0.254 A 
BRANCH  18  22
ATOM     22  C   UNL     1     -12.765  10.665  31.170  0.00  0.00    +0.326 C 
BRANCH  22   5
ATOM      5  O   UNL     1     -13.522  10.329  30.005  0.00  0.00    -0.483 OA
BRANCH   5  24
ATOM      1  F   UNL     1     -10.887  10.648  25.193  0.00  0.00    -0.205 F 
ATOM     24  C   UNL     1     -12.868  10.409  28.808  0.00  0.00    +0.121 A 
ATOM     25  C   UNL     1     -11.473  10.377  28.773  0.00  0.00    +0.048 A 
ATOM     26  C   UNL     1     -13.592  10.521  27.621  0.00  0.00    +0.048 A 
ATOM     27  C   UNL     1     -10.805  10.458  27.552  0.00  0.00    +0.042 A 
ATOM     28  C   UNL     1     -12.924  10.601  26.401  0.00  0.00    +0.042 A 
ATOM     29  C   UNL     1     -11.529  10.570  26.365  0.00  0.00    +0.124 A 
ENDBRANCH   5  24
ENDBRANCH  22   5
ENDBRANCH  18  22
ENDBRANCH   9  14
BRANCH   6  13
ATOM     13  C   UNL     1     -16.320   4.159  32.156  0.00  0.00    +0.119 C 
BRANCH  13  15
ATOM      3  O   UNL     1     -13.585   0.267  30.788  0.00  0.00    -0.453 OA
ATOM      4  O   UNL     1     -14.914  -0.124  28.818  0.00  0.00    -0.453 OA
ATOM     15  C   UNL     1     -15.971   3.019  31.237  0.00  0.00    -0.030 A 
ATOM     16  C   UNL     1     -14.881   2.197  31.535  0.00  0.00    +0.054 A 
ATOM     17  C   UNL     1     -16.746   2.791  30.087  0.00  0.00    +0.009 A 
ATOM     19  C   UNL     1     -14.602   1.165  30.663  0.00  0.00    +0.167 A 
ATOM     20  C   UNL     1     -16.442   1.737  29.221  0.00  0.00    +0.050 A 
ATOM     21  C   UNL     1     -15.360   0.940  29.538  0.00  0.00    +0.166 A 
ATOM     23  C   UNL     1     -13.791  -0.546  29.615  0.00  0.00    +0.466 C 
ENDBRANCH  13  15
ENDBRANCH   6  13
TORSDOF 6
ENDMDL
MODEL 10
REMARK VINA RESULT:      -6.5     28.291     30.560
REMARK  Name = 51137599
REMARK  6 active torsions:
REMARK  status: ('A' for Active; 'I' for Inactive)
REMARK    1  A    between atoms: O_5  and  C_22
REMARK    2  A    between atoms: O_5  and  C_24
REMARK    3  A    between atoms: N_6  and  C_13
REMARK    4  A    between atoms: C_9  and  C_14
REMARK    5  A    between atoms: C_13  and  C_15
REMARK    6  A    between atoms: C_18  and  C_22
REMARK                            x       y       z     vdW  Elec       q    Type
REMARK                         _______ _______ _______ _____ _____    ______ ____
ROOT
ATOM      6  N   UNL     1      -6.794  -8.747   8.772  0.00  0.00    -0.297 NA
ATOM      9  C   UNL     1      -4.750  -9.040   9.885  0.00  0.00    +0.092 C 
ATOM     10  C   UNL     1      -6.258  -8.891  10.127  0.00  0.00    +0.097 C 
ATOM     11  C   UNL     1      -4.639  -9.587   8.451  0.00  0.00    +0.029 C 
ATOM     12  C   UNL     1      -6.078  -9.743   7.976  0.00  0.00    +0.085 C 
ENDROOT
BRANCH   9  14
ATOM      2  O   UNL     1      -4.482  -9.713  12.223  0.00  0.00    -0.421 OA
ATOM      7  N   UNL     1      -3.102 -10.762  10.808  0.00  0.00    -0.112 NA
ATOM      8  N   UNL     1      -2.848 -11.234  12.082  0.00  0.00    -0.109 NA
ATOM     14  C   UNL     1      -4.063  -9.877  10.938  0.00  0.00    +0.222 A 
ATOM     18  C   UNL     1      -3.675 -10.594  12.875  0.00  0.00    +0.254 A 
BRANCH  18  22
ATOM     22  C   UNL     1      -3.846 -10.699  14.330  0.00  0.00    +0.326 C 
BRANCH  22   5
ATOM      5  O   UNL     1      -5.084 -10.103  14.728  0.00  0.00    -0.483 OA
BRANCH   5  24
ATOM      1  F   UNL     1      -6.450 -10.601  20.027  0.00  0.00    -0.205 F 
ATOM     24  C   UNL     1      -5.424 -10.227  16.045  0.00  0.00    +0.121 A 
ATOM     25  C   UNL     1      -4.535 -10.820  16.942  0.00  0.00    +0.048 A 
ATOM     26  C   UNL     1      -6.660  -9.760  16.494  0.00  0.00    +0.048 A 
ATOM     27  C   UNL     1      -4.882 -10.947  18.287  0.00  0.00    +0.042 A 
ATOM     28  C   UNL     1      -7.006  -9.886  17.838  0.00  0.00    +0.042 A 
ATOM     29  C   UNL     1      -6.118 -10.480  18.736  0.00  0.00    +0.124 A 
ENDBRANCH   5  24
ENDBRANCH  22   5
ENDBRANCH  18  22
ENDBRANCH   9  14
BRANCH   6  13
ATOM     13  C   UNL     1      -8.237  -8.931   8.723  0.00  0.00    +0.119 C 
BRANCH  13  15
ATOM      3  O   UNL     1     -12.142  -6.103   9.839  0.00  0.00    -0.453 OA
ATOM      4  O   UNL     1     -11.081  -4.105   9.010  0.00  0.00    -0.453 OA
ATOM     15  C   UNL     1      -8.972  -7.619   8.783  0.00  0.00    -0.030 A 
ATOM     16  C   UNL     1     -10.260  -7.569   9.321  0.00  0.00    +0.054 A 
ATOM     17  C   UNL     1      -8.353  -6.453   8.298  0.00  0.00    +0.009 A 
ATOM     19  C   UNL     1     -10.892  -6.343   9.356  0.00  0.00    +0.167 A 
ATOM     20  C   UNL     1      -9.015  -5.224   8.347  0.00  0.00    +0.050 A 
ATOM     21  C   UNL     1     -10.287  -5.202   8.882  0.00  0.00    +0.166 A 
ATOM     23  C   UNL     1     -12.254  -4.682   9.617  0.00  0.00    +0.466 C 
ENDBRANCH  13  15
ENDBRANCH   6  13
TORSDOF 6
ENDMDL
