MODEL 1
REMARK VINA RESULT:      -7.0      0.000      0.000
REMARK  Name = 7134278
REMARK  13 active torsions:
REMARK  status: ('A' for Active; 'I' for Inactive)
REMARK    1  A    between atoms: S_1  and  N_13
REMARK    2  A    between atoms: S_1  and  C_25
REMARK    3  A    between atoms: O_8  and  C_24
REMARK    4  A    between atoms: O_8  and  C_31
REMARK    5  A    between atoms: O_10  and  C_36
REMARK    6  A    between atoms: N_13  and  C_16
REMARK    7  A    between atoms: N_14  and  C_23
REMARK    8  A    between atoms: C_18  and  C_21
REMARK    9  A    between atoms: C_22  and  C_24
REMARK   10  A    between atoms: C_23  and  C_26
REMARK   11  A    between atoms: C_23  and  C_27
REMARK   12  A    between atoms: C_26  and  C_29
REMARK   13  A    between atoms: C_31  and  C_36
REMARK                            x       y       z     vdW  Elec       q    Type
REMARK                         _______ _______ _______ _____ _____    ______ ____
ROOT
ATOM      5  O   UNL     1      11.711   5.920  19.931  0.00  0.00    -0.273 OA
ATOM     12  N   UNL     1      12.189   8.039  20.771  0.00  0.00    -0.288 N 
ATOM     16  C   UNL     1      11.460  10.220  22.559  0.00  0.00    +0.080 C 
ATOM     17  C   UNL     1      12.151  10.503  21.224  0.00  0.00    +0.052 C 
ATOM     18  C   UNL     1      12.937   9.305  20.688  0.00  0.00    +0.163 C 
ATOM     19  C   UNL     1      10.627   8.945  22.471  0.00  0.00    +0.039 C 
ATOM     20  C   UNL     1      11.490   7.769  22.034  0.00  0.00    +0.110 C 
ATOM     22  C   UNL     1      12.230   7.032  19.798  0.00  0.00    +0.242 C 
ENDROOT
BRANCH  18  21
ATOM      4  O   UNL     1      14.470   8.055  22.027  0.00  0.00    -0.274 OA
ATOM     14  N   UNL     1      15.052  10.209  21.361  0.00  0.00    -0.302 N 
ATOM     21  C   UNL     1      14.226   9.099  21.428  0.00  0.00    +0.234 C 
ATOM     38  H   UNL     1      14.711  11.049  20.903  0.00  0.00    +0.150 HD
BRANCH  14  23
ATOM     23  C   UNL     1      16.342  10.274  22.009  0.00  0.00    +0.163 C 
BRANCH  23  27
ATOM      9  O   UNL     1      16.809  12.659  22.018  0.00  0.00    -0.274 OA
ATOM     15  N   UNL     1      16.075  11.675  23.960  0.00  0.00    -0.328 N 
ATOM     27  C   UNL     1      16.457  11.656  22.635  0.00  0.00    +0.231 C 
ATOM     39  H   UNL     1      16.089  12.539  24.492  0.00  0.00    +0.145 HD
ATOM     40  H   UNL     1      15.783  10.840  24.457  0.00  0.00    +0.145 HD
ENDBRANCH  23  27
BRANCH  23  26
ATOM     26  C   UNL     1      17.497  10.032  21.030  0.00  0.00    +0.074 C 
BRANCH  26  29
ATOM      3  S   UNL     1      19.464   8.371  22.094  0.00  0.00    -0.102 S 
ATOM     29  C   UNL     1      18.065   8.637  21.144  0.00  0.00    -0.008 A 
ATOM     33  C   UNL     1      17.603   7.475  20.568  0.00  0.00    +0.011 A 
ATOM     34  C   UNL     1      18.409   6.351  20.910  0.00  0.00    +0.008 A 
ATOM     35  C   UNL     1      19.457   6.697  21.735  0.00  0.00    +0.045 A 
ENDBRANCH  26  29
ENDBRANCH  23  26
ENDBRANCH  14  23
ENDBRANCH  18  21
BRANCH  16  13
ATOM     13  N   UNL     1      10.580  11.363  22.906  0.00  0.00    -0.186 NA
ATOM     37  H   UNL     1       9.596  11.245  22.632  0.00  0.00    +0.148 HD
BRANCH  13   1
ATOM      1  S   UNL     1      10.892  12.195  24.367  0.00  0.00    +0.065 S 
ATOM      6  O   UNL     1      11.341  11.251  25.373  0.00  0.00    -0.153 OA
ATOM      7  O   UNL     1       9.799  13.109  24.628  0.00  0.00    -0.153 OA
BRANCH   1  25
ATOM      2  S   UNL     1      12.870  14.095  25.461  0.00  0.00    -0.077 S 
ATOM     25  C   UNL     1      12.289  13.278  24.072  0.00  0.00    +0.142 A 
ATOM     28  C   UNL     1      13.009  13.601  22.944  0.00  0.00    +0.036 A 
ATOM     30  C   UNL     1      14.053  14.531  23.223  0.00  0.00    +0.010 A 
ATOM     32  C   UNL     1      14.089  14.883  24.554  0.00  0.00    +0.047 A 
ENDBRANCH   1  25
ENDBRANCH  13   1
ENDBRANCH  16  13
BRANCH  22  24
ATOM     24  C   UNL     1      12.949   7.358  18.513  0.00  0.00    +0.256 C 
BRANCH  24   8
ATOM      8  O   UNL     1      11.983   7.314  17.491  0.00  0.00    -0.359 OA
BRANCH   8  31
ATOM     31  C   UNL     1      11.524   8.617  17.133  0.00  0.00    +0.280 C 
BRANCH  31  36
ATOM     11  O   UNL     1      13.038   8.849  15.247  0.00  0.00    -0.248 OA
ATOM     36  C   UNL     1      12.552   9.300  16.272  0.00  0.00    +0.331 C 
BRANCH  36  10
ATOM     10  O   UNL     1      12.872  10.509  16.798  0.00  0.00    -0.479 OA
ATOM     41  H   UNL     1      12.851  11.218  16.119  0.00  0.00    +0.295 HD
ENDBRANCH  36  10
ENDBRANCH  31  36
ENDBRANCH   8  31
ENDBRANCH  24   8
ENDBRANCH  22  24
TORSDOF 13
ENDMDL
MODEL 2
REMARK VINA RESULT:      -6.5      3.110      7.559
REMARK  Name = 7134278
REMARK  13 active torsions:
REMARK  status: ('A' for Active; 'I' for Inactive)
REMARK    1  A    between atoms: S_1  and  N_13
REMARK    2  A    between atoms: S_1  and  C_25
REMARK    3  A    between atoms: O_8  and  C_24
REMARK    4  A    between atoms: O_8  and  C_31
REMARK    5  A    between atoms: O_10  and  C_36
REMARK    6  A    between atoms: N_13  and  C_16
REMARK    7  A    between atoms: N_14  and  C_23
REMARK    8  A    between atoms: C_18  and  C_21
REMARK    9  A    between atoms: C_22  and  C_24
REMARK   10  A    between atoms: C_23  and  C_26
REMARK   11  A    between atoms: C_23  and  C_27
REMARK   12  A    between atoms: C_26  and  C_29
REMARK   13  A    between atoms: C_31  and  C_36
REMARK                            x       y       z     vdW  Elec       q    Type
REMARK                         _______ _______ _______ _____ _____    ______ ____
ROOT
ATOM      5  O   UNL     1      12.543   6.622  19.106  0.00  0.00    -0.273 OA
ATOM     12  N   UNL     1      14.604   7.041  20.105  0.00  0.00    -0.288 N 
ATOM     16  C   UNL     1      17.492   6.656  20.090  0.00  0.00    +0.080 C 
ATOM     17  C   UNL     1      16.731   6.797  21.408  0.00  0.00    +0.052 C 
ATOM     18  C   UNL     1      15.390   7.519  21.255  0.00  0.00    +0.163 C 
ATOM     19  C   UNL     1      16.597   6.042  19.018  0.00  0.00    +0.039 C 
ATOM     20  C   UNL     1      15.329   6.866  18.840  0.00  0.00    +0.110 C 
ATOM     22  C   UNL     1      13.212   6.894  20.107  0.00  0.00    +0.242 C 
ENDROOT
BRANCH  18  21
ATOM      4  O   UNL     1      16.606   9.483  20.646  0.00  0.00    -0.274 OA
ATOM     14  N   UNL     1      14.443   9.709  21.477  0.00  0.00    -0.302 N 
ATOM     21  C   UNL     1      15.564   8.999  21.079  0.00  0.00    +0.234 C 
ATOM     38  H   UNL     1      13.666   9.207  21.897  0.00  0.00    +0.150 HD
BRANCH  14  23
ATOM     23  C   UNL     1      14.363  11.152  21.429  0.00  0.00    +0.163 C 
BRANCH  23  27
ATOM      9  O   UNL     1      13.467  12.734  23.042  0.00  0.00    -0.274 OA
ATOM     15  N   UNL     1      14.082  10.645  23.775  0.00  0.00    -0.328 N 
ATOM     27  C   UNL     1      13.935  11.621  22.812  0.00  0.00    +0.231 C 
ATOM     39  H   UNL     1      13.818  10.822  24.739  0.00  0.00    +0.145 HD
ATOM     40  H   UNL     1      14.467   9.729  23.571  0.00  0.00    +0.145 HD
ENDBRANCH  23  27
BRANCH  23  26
ATOM     26  C   UNL     1      13.371  11.643  20.368  0.00  0.00    +0.074 C 
BRANCH  26  29
ATOM      3  S   UNL     1      15.005  11.615  18.111  0.00  0.00    -0.102 S 
ATOM     29  C   UNL     1      13.654  11.059  19.004  0.00  0.00    -0.008 A 
ATOM     33  C   UNL     1      12.950  10.089  18.325  0.00  0.00    +0.011 A 
ATOM     34  C   UNL     1      13.527   9.799  17.055  0.00  0.00    +0.008 A 
ATOM     35  C   UNL     1      14.651  10.558  16.812  0.00  0.00    +0.045 A 
ENDBRANCH  26  29
ENDBRANCH  23  26
ENDBRANCH  14  23
ENDBRANCH  18  21
BRANCH  16  13
ATOM     13  N   UNL     1      18.678   5.790  20.299  0.00  0.00    -0.186 NA
ATOM     37  H   UNL     1      18.902   5.171  19.509  0.00  0.00    +0.148 HD
BRANCH  13   1
ATOM      1  S   UNL     1      19.991   6.436  21.185  0.00  0.00    +0.065 S 
ATOM      6  O   UNL     1      19.520   6.896  22.477  0.00  0.00    -0.153 OA
ATOM      7  O   UNL     1      20.763   7.300  20.314  0.00  0.00    -0.153 OA
BRANCH   1  25
ATOM      2  S   UNL     1      22.151   5.340  22.873  0.00  0.00    -0.077 S 
ATOM     25  C   UNL     1      21.110   5.081  21.538  0.00  0.00    +0.142 A 
ATOM     28  C   UNL     1      21.315   3.852  20.953  0.00  0.00    +0.036 A 
ATOM     30  C   UNL     1      22.341   3.111  21.609  0.00  0.00    +0.010 A 
ATOM     32  C   UNL     1      22.880   3.804  22.670  0.00  0.00    +0.047 A 
ENDBRANCH   1  25
ENDBRANCH  13   1
ENDBRANCH  16  13
BRANCH  22  24
ATOM     24  C   UNL     1      12.511   7.072  21.431  0.00  0.00    +0.256 C 
BRANCH  24   8
ATOM      8  O   UNL     1      11.167   7.365  21.137  0.00  0.00    -0.359 OA
BRANCH   8  31
ATOM     31  C   UNL     1      10.471   7.882  22.271  0.00  0.00    +0.280 C 
BRANCH  31  36
ATOM     11  O   UNL     1      10.843  10.206  21.669  0.00  0.00    -0.248 OA
ATOM     36  C   UNL     1      10.869   9.314  22.502  0.00  0.00    +0.331 C 
BRANCH  36  10
ATOM     10  O   UNL     1      11.269   9.486  23.788  0.00  0.00    -0.479 OA
ATOM     41  H   UNL     1      10.550   9.281  24.424  0.00  0.00    +0.295 HD
ENDBRANCH  36  10
ENDBRANCH  31  36
ENDBRANCH   8  31
ENDBRANCH  24   8
ENDBRANCH  22  24
TORSDOF 13
ENDMDL
MODEL 3
REMARK VINA RESULT:      -6.3      2.442      7.388
REMARK  Name = 7134278
REMARK  13 active torsions:
REMARK  status: ('A' for Active; 'I' for Inactive)
REMARK    1  A    between atoms: S_1  and  N_13
REMARK    2  A    between atoms: S_1  and  C_25
REMARK    3  A    between atoms: O_8  and  C_24
REMARK    4  A    between atoms: O_8  and  C_31
REMARK    5  A    between atoms: O_10  and  C_36
REMARK    6  A    between atoms: N_13  and  C_16
REMARK    7  A    between atoms: N_14  and  C_23
REMARK    8  A    between atoms: C_18  and  C_21
REMARK    9  A    between atoms: C_22  and  C_24
REMARK   10  A    between atoms: C_23  and  C_26
REMARK   11  A    between atoms: C_23  and  C_27
REMARK   12  A    between atoms: C_26  and  C_29
REMARK   13  A    between atoms: C_31  and  C_36
REMARK                            x       y       z     vdW  Elec       q    Type
REMARK                         _______ _______ _______ _____ _____    ______ ____
ROOT
ATOM      5  O   UNL     1      12.182   6.553  18.876  0.00  0.00    -0.273 OA
ATOM     12  N   UNL     1      14.082   7.130  20.091  0.00  0.00    -0.288 N 
ATOM     16  C   UNL     1      16.988   7.141  20.292  0.00  0.00    +0.080 C 
ATOM     17  C   UNL     1      16.121   7.029  21.546  0.00  0.00    +0.052 C 
ATOM     18  C   UNL     1      14.705   7.577  21.348  0.00  0.00    +0.163 C 
ATOM     19  C   UNL     1      16.272   6.537  19.089  0.00  0.00    +0.039 C 
ATOM     20  C   UNL     1      14.915   7.198  18.883  0.00  0.00    +0.110 C 
ATOM     22  C   UNL     1      12.729   6.798  19.955  0.00  0.00    +0.242 C 
ENDROOT
BRANCH  18  21
ATOM      4  O   UNL     1      14.070   9.709  20.479  0.00  0.00    -0.274 OA
ATOM     14  N   UNL     1      15.416   9.622  22.376  0.00  0.00    -0.302 N 
ATOM     21  C   UNL     1      14.677   9.077  21.339  0.00  0.00    +0.234 C 
ATOM     38  H   UNL     1      15.944   9.001  22.983  0.00  0.00    +0.150 HD
BRANCH  14  23
ATOM     23  C   UNL     1      15.567  11.046  22.577  0.00  0.00    +0.163 C 
BRANCH  23  27
ATOM      9  O   UNL     1      17.457  12.472  22.029  0.00  0.00    -0.274 OA
ATOM     15  N   UNL     1      17.866  10.309  22.685  0.00  0.00    -0.328 N 
ATOM     27  C   UNL     1      17.040  11.370  22.379  0.00  0.00    +0.231 C 
ATOM     39  H   UNL     1      18.874  10.397  22.611  0.00  0.00    +0.145 HD
ATOM     40  H   UNL     1      17.509   9.405  22.976  0.00  0.00    +0.145 HD
ENDBRANCH  23  27
BRANCH  23  26
ATOM     26  C   UNL     1      15.104  11.488  23.970  0.00  0.00    +0.074 C 
BRANCH  26  29
ATOM      3  S   UNL     1      13.038  12.726  25.369  0.00  0.00    -0.102 S 
ATOM     29  C   UNL     1      13.858  12.342  23.917  0.00  0.00    -0.008 A 
ATOM     33  C   UNL     1      13.243  12.892  22.814  0.00  0.00    +0.011 A 
ATOM     34  C   UNL     1      12.082  13.638  23.166  0.00  0.00    +0.008 A 
ATOM     35  C   UNL     1      11.854  13.631  24.525  0.00  0.00    +0.045 A 
ENDBRANCH  26  29
ENDBRANCH  23  26
ENDBRANCH  14  23
ENDBRANCH  18  21
BRANCH  16  13
ATOM     13  N   UNL     1      18.268   6.425  20.517  0.00  0.00    -0.186 NA
ATOM     37  H   UNL     1      18.607   5.890  19.708  0.00  0.00    +0.148 HD
BRANCH  13   1
ATOM      1  S   UNL     1      19.441   7.179  21.506  0.00  0.00    +0.065 S 
ATOM      6  O   UNL     1      19.271   6.738  22.878  0.00  0.00    -0.153 OA
ATOM      7  O   UNL     1      19.501   8.587  21.170  0.00  0.00    -0.153 OA
BRANCH   1  25
ATOM      2  S   UNL     1      21.121   4.854  20.806  0.00  0.00    -0.077 S 
ATOM     25  C   UNL     1      21.043   6.554  20.999  0.00  0.00    +0.142 A 
ATOM     28  C   UNL     1      22.248   7.162  20.726  0.00  0.00    +0.036 A 
ATOM     30  C   UNL     1      23.250   6.219  20.352  0.00  0.00    +0.010 A 
ATOM     32  C   UNL     1      22.772   4.928  20.355  0.00  0.00    +0.047 A 
ENDBRANCH   1  25
ENDBRANCH  13   1
ENDBRANCH  16  13
BRANCH  22  24
ATOM     24  C   UNL     1      11.914   6.730  21.222  0.00  0.00    +0.256 C 
BRANCH  24   8
ATOM      8  O   UNL     1      10.972   7.772  21.150  0.00  0.00    -0.359 OA
BRANCH   8  31
ATOM     31  C   UNL     1      10.591   8.241  22.443  0.00  0.00    +0.280 C 
BRANCH  31  36
ATOM     11  O   UNL     1      10.889  10.350  23.612  0.00  0.00    -0.248 OA
ATOM     36  C   UNL     1      10.954   9.693  22.584  0.00  0.00    +0.331 C 
BRANCH  36  10
ATOM     10  O   UNL     1      11.373  10.189  21.391  0.00  0.00    -0.479 OA
ATOM     41  H   UNL     1      10.863  10.985  21.128  0.00  0.00    +0.295 HD
ENDBRANCH  36  10
ENDBRANCH  31  36
ENDBRANCH   8  31
ENDBRANCH  24   8
ENDBRANCH  22  24
TORSDOF 13
ENDMDL
MODEL 4
REMARK VINA RESULT:      -6.3     14.412     18.893
REMARK  Name = 7134278
REMARK  13 active torsions:
REMARK  status: ('A' for Active; 'I' for Inactive)
REMARK    1  A    between atoms: S_1  and  N_13
REMARK    2  A    between atoms: S_1  and  C_25
REMARK    3  A    between atoms: O_8  and  C_24
REMARK    4  A    between atoms: O_8  and  C_31
REMARK    5  A    between atoms: O_10  and  C_36
REMARK    6  A    between atoms: N_13  and  C_16
REMARK    7  A    between atoms: N_14  and  C_23
REMARK    8  A    between atoms: C_18  and  C_21
REMARK    9  A    between atoms: C_22  and  C_24
REMARK   10  A    between atoms: C_23  and  C_26
REMARK   11  A    between atoms: C_23  and  C_27
REMARK   12  A    between atoms: C_26  and  C_29
REMARK   13  A    between atoms: C_31  and  C_36
REMARK                            x       y       z     vdW  Elec       q    Type
REMARK                         _______ _______ _______ _____ _____    ______ ____
ROOT
ATOM      5  O   UNL     1       8.268   8.443   6.761  0.00  0.00    -0.273 OA
ATOM     12  N   UNL     1       9.889   7.309   5.531  0.00  0.00    -0.288 N 
ATOM     16  C   UNL     1      10.704   6.131   2.994  0.00  0.00    +0.080 C 
ATOM     17  C   UNL     1      11.168   5.527   4.319  0.00  0.00    +0.052 C 
ATOM     18  C   UNL     1      11.134   6.523   5.480  0.00  0.00    +0.163 C 
ATOM     19  C   UNL     1       9.349   6.813   3.161  0.00  0.00    +0.039 C 
ATOM     20  C   UNL     1       9.410   7.866   4.260  0.00  0.00    +0.110 C 
ATOM     22  C   UNL     1       9.234   7.675   6.713  0.00  0.00    +0.242 C 
ENDROOT
BRANCH  18  21
ATOM      4  O   UNL     1      12.162   8.646   5.860  0.00  0.00    -0.274 OA
ATOM     14  N   UNL     1      13.384   6.977   4.792  0.00  0.00    -0.302 N 
ATOM     21  C   UNL     1      12.266   7.505   5.415  0.00  0.00    +0.234 C 
ATOM     38  H   UNL     1      13.328   6.045   4.390  0.00  0.00    +0.150 HD
BRANCH  14  23
ATOM     23  C   UNL     1      14.602   7.726   4.583  0.00  0.00    +0.163 C 
BRANCH  23  27
ATOM      9  O   UNL     1      15.910   7.867   2.539  0.00  0.00    -0.274 OA
ATOM     15  N   UNL     1      15.056   5.826   3.160  0.00  0.00    -0.328 N 
ATOM     27  C   UNL     1      15.248   7.183   3.317  0.00  0.00    +0.231 C 
ATOM     39  H   UNL     1      15.450   5.335   2.364  0.00  0.00    +0.145 HD
ATOM     40  H   UNL     1      14.510   5.272   3.812  0.00  0.00    +0.145 HD
ENDBRANCH  23  27
BRANCH  23  26
ATOM     26  C   UNL     1      15.567   7.610   5.768  0.00  0.00    +0.074 C 
BRANCH  26  29
ATOM      3  S   UNL     1      15.750  10.343   6.271  0.00  0.00    -0.102 S 
ATOM     29  C   UNL     1      16.453   8.825   5.909  0.00  0.00    -0.008 A 
ATOM     33  C   UNL     1      17.822   8.905   5.784  0.00  0.00    +0.011 A 
ATOM     34  C   UNL     1      18.301  10.232   5.988  0.00  0.00    +0.008 A 
ATOM     35  C   UNL     1      17.279  11.115   6.261  0.00  0.00    +0.045 A 
ENDBRANCH  26  29
ENDBRANCH  23  26
ENDBRANCH  14  23
ENDBRANCH  18  21
BRANCH  16  13
ATOM     13  N   UNL     1      10.595   5.057   1.977  0.00  0.00    -0.186 NA
ATOM     37  H   UNL     1       9.716   5.061   1.443  0.00  0.00    +0.148 HD
BRANCH  13   1
ATOM      1  S   UNL     1      12.017   4.597   1.146  0.00  0.00    +0.065 S 
ATOM      6  O   UNL     1      12.506   3.343   1.685  0.00  0.00    -0.153 OA
ATOM      7  O   UNL     1      12.882   5.753   1.025  0.00  0.00    -0.153 OA
BRANCH   1  25
ATOM      2  S   UNL     1      12.527   3.071  -1.329  0.00  0.00    -0.077 S 
ATOM     25  C   UNL     1      11.549   4.240  -0.546  0.00  0.00    +0.142 A 
ATOM     28  C   UNL     1      10.551   4.713  -1.369  0.00  0.00    +0.036 A 
ATOM     30  C   UNL     1      10.589   4.109  -2.659  0.00  0.00    +0.010 A 
ATOM     32  C   UNL     1      11.615   3.197  -2.773  0.00  0.00    +0.047 A 
ENDBRANCH   1  25
ENDBRANCH  13   1
ENDBRANCH  16  13
BRANCH  22  24
ATOM     24  C   UNL     1       9.753   7.069   7.994  0.00  0.00    +0.256 C 
BRANCH  24   8
ATOM      8  O   UNL     1       8.849   6.052   8.352  0.00  0.00    -0.359 OA
BRANCH   8  31
ATOM     31  C   UNL     1       9.518   4.866   8.775  0.00  0.00    +0.280 C 
BRANCH  31  36
ATOM     11  O   UNL     1       8.110   4.701  10.748  0.00  0.00    -0.248 OA
ATOM     36  C   UNL     1       9.207   4.594  10.221  0.00  0.00    +0.331 C 
BRANCH  36  10
ATOM     10  O   UNL     1      10.330   4.204  10.876  0.00  0.00    -0.479 OA
ATOM     41  H   UNL     1      11.043   3.942  10.254  0.00  0.00    +0.295 HD
ENDBRANCH  36  10
ENDBRANCH  31  36
ENDBRANCH   8  31
ENDBRANCH  24   8
ENDBRANCH  22  24
TORSDOF 13
ENDMDL
MODEL 5
REMARK VINA RESULT:      -6.1      2.896      6.861
REMARK  Name = 7134278
REMARK  13 active torsions:
REMARK  status: ('A' for Active; 'I' for Inactive)
REMARK    1  A    between atoms: S_1  and  N_13
REMARK    2  A    between atoms: S_1  and  C_25
REMARK    3  A    between atoms: O_8  and  C_24
REMARK    4  A    between atoms: O_8  and  C_31
REMARK    5  A    between atoms: O_10  and  C_36
REMARK    6  A    between atoms: N_13  and  C_16
REMARK    7  A    between atoms: N_14  and  C_23
REMARK    8  A    between atoms: C_18  and  C_21
REMARK    9  A    between atoms: C_22  and  C_24
REMARK   10  A    between atoms: C_23  and  C_26
REMARK   11  A    between atoms: C_23  and  C_27
REMARK   12  A    between atoms: C_26  and  C_29
REMARK   13  A    between atoms: C_31  and  C_36
REMARK                            x       y       z     vdW  Elec       q    Type
REMARK                         _______ _______ _______ _____ _____    ______ ____
ROOT
ATOM      5  O   UNL     1      12.229   6.576  18.825  0.00  0.00    -0.273 OA
ATOM     12  N   UNL     1      14.108   7.065  20.110  0.00  0.00    -0.288 N 
ATOM     16  C   UNL     1      17.003   6.950  20.414  0.00  0.00    +0.080 C 
ATOM     17  C   UNL     1      16.087   6.870  21.636  0.00  0.00    +0.052 C 
ATOM     18  C   UNL     1      14.704   7.480  21.392  0.00  0.00    +0.163 C 
ATOM     19  C   UNL     1      16.305   6.383  19.183  0.00  0.00    +0.039 C 
ATOM     20  C   UNL     1      14.986   7.102  18.933  0.00  0.00    +0.110 C 
ATOM     22  C   UNL     1      12.748   6.792  19.924  0.00  0.00    +0.242 C 
ENDROOT
BRANCH  18  21
ATOM      4  O   UNL     1      14.192   9.641  20.513  0.00  0.00    -0.274 OA
ATOM     14  N   UNL     1      15.466   9.487  22.456  0.00  0.00    -0.302 N 
ATOM     21  C   UNL     1      14.741   8.979  21.391  0.00  0.00    +0.234 C 
ATOM     38  H   UNL     1      15.946   8.842  23.077  0.00  0.00    +0.150 HD
BRANCH  14  23
ATOM     23  C   UNL     1      15.670  10.902  22.670  0.00  0.00    +0.163 C 
BRANCH  23  27
ATOM      9  O   UNL     1      13.642  12.228  22.485  0.00  0.00    -0.274 OA
ATOM     15  N   UNL     1      13.993  11.019  24.407  0.00  0.00    -0.328 N 
ATOM     27  C   UNL     1      14.346  11.475  23.154  0.00  0.00    +0.231 C 
ATOM     39  H   UNL     1      13.124  11.312  24.840  0.00  0.00    +0.145 HD
ATOM     40  H   UNL     1      14.582  10.394  24.947  0.00  0.00    +0.145 HD
ENDBRANCH  23  27
BRANCH  23  26
ATOM     26  C   UNL     1      16.132  11.622  21.398  0.00  0.00    +0.074 C 
BRANCH  26  29
ATOM      3  S   UNL     1      18.589  11.685  22.708  0.00  0.00    -0.102 S 
ATOM     29  C   UNL     1      17.637  11.682  21.286  0.00  0.00    -0.008 A 
ATOM     33  C   UNL     1      18.409  11.738  20.146  0.00  0.00    +0.011 A 
ATOM     34  C   UNL     1      19.801  11.785  20.446  0.00  0.00    +0.008 A 
ATOM     35  C   UNL     1      20.040  11.762  21.803  0.00  0.00    +0.045 A 
ENDBRANCH  26  29
ENDBRANCH  23  26
ENDBRANCH  14  23
ENDBRANCH  18  21
BRANCH  16  13
ATOM     13  N   UNL     1      18.242   6.179  20.680  0.00  0.00    -0.186 NA
ATOM     37  H   UNL     1      18.575   5.617  19.886  0.00  0.00    +0.148 HD
BRANCH  13   1
ATOM      1  S   UNL     1      19.426   6.892  21.687  0.00  0.00    +0.065 S 
ATOM      6  O   UNL     1      19.208   6.473  23.058  0.00  0.00    -0.153 OA
ATOM      7  O   UNL     1      19.553   8.293  21.340  0.00  0.00    -0.153 OA
BRANCH   1  25
ATOM      2  S   UNL     1      22.363   6.910  21.988  0.00  0.00    -0.077 S 
ATOM     25  C   UNL     1      21.009   6.195  21.220  0.00  0.00    +0.142 A 
ATOM     28  C   UNL     1      21.378   5.186  20.358  0.00  0.00    +0.036 A 
ATOM     30  C   UNL     1      22.790   4.998  20.327  0.00  0.00    +0.010 A 
ATOM     32  C   UNL     1      23.447   5.870  21.166  0.00  0.00    +0.047 A 
ENDBRANCH   1  25
ENDBRANCH  13   1
ENDBRANCH  16  13
BRANCH  22  24
ATOM     24  C   UNL     1      11.886   6.753  21.162  0.00  0.00    +0.256 C 
BRANCH  24   8
ATOM      8  O   UNL     1      11.017   7.857  21.081  0.00  0.00    -0.359 OA
BRANCH   8  31
ATOM     31  C   UNL     1      10.604   8.309  22.369  0.00  0.00    +0.280 C 
BRANCH  31  36
ATOM     11  O   UNL     1      11.027  10.340  23.632  0.00  0.00    -0.248 OA
ATOM     36  C   UNL     1      11.037   9.734  22.572  0.00  0.00    +0.331 C 
BRANCH  36  10
ATOM     10  O   UNL     1      11.451  10.269  21.395  0.00  0.00    -0.479 OA
ATOM     41  H   UNL     1      12.429  10.338  21.350  0.00  0.00    +0.295 HD
ENDBRANCH  36  10
ENDBRANCH  31  36
ENDBRANCH   8  31
ENDBRANCH  24   8
ENDBRANCH  22  24
TORSDOF 13
ENDMDL
MODEL 6
REMARK VINA RESULT:      -5.8     15.146     19.736
REMARK  Name = 7134278
REMARK  13 active torsions:
REMARK  status: ('A' for Active; 'I' for Inactive)
REMARK    1  A    between atoms: S_1  and  N_13
REMARK    2  A    between atoms: S_1  and  C_25
REMARK    3  A    between atoms: O_8  and  C_24
REMARK    4  A    between atoms: O_8  and  C_31
REMARK    5  A    between atoms: O_10  and  C_36
REMARK    6  A    between atoms: N_13  and  C_16
REMARK    7  A    between atoms: N_14  and  C_23
REMARK    8  A    between atoms: C_18  and  C_21
REMARK    9  A    between atoms: C_22  and  C_24
REMARK   10  A    between atoms: C_23  and  C_26
REMARK   11  A    between atoms: C_23  and  C_27
REMARK   12  A    between atoms: C_26  and  C_29
REMARK   13  A    between atoms: C_31  and  C_36
REMARK                            x       y       z     vdW  Elec       q    Type
REMARK                         _______ _______ _______ _____ _____    ______ ____
ROOT
ATOM      5  O   UNL     1       8.108   8.498   3.189  0.00  0.00    -0.273 OA
ATOM     12  N   UNL     1       9.560   6.753   2.671  0.00  0.00    -0.288 N 
ATOM     16  C   UNL     1      10.818   5.096   0.632  0.00  0.00    +0.080 C 
ATOM     17  C   UNL     1      10.486   4.520   2.009  0.00  0.00    +0.052 C 
ATOM     18  C   UNL     1      10.361   5.592   3.095  0.00  0.00    +0.163 C 
ATOM     19  C   UNL     1       9.843   6.210   0.268  0.00  0.00    +0.039 C 
ATOM     20  C   UNL     1       9.842   7.296   1.336  0.00  0.00    +0.110 C 
ATOM     22  C   UNL     1       8.675   7.448   3.505  0.00  0.00    +0.242 C 
ENDROOT
BRANCH  18  21
ATOM      4  O   UNL     1      12.653   6.172   2.754  0.00  0.00    -0.274 OA
ATOM     14  N   UNL     1      11.710   6.496   4.858  0.00  0.00    -0.302 N 
ATOM     21  C   UNL     1      11.698   6.118   3.525  0.00  0.00    +0.234 C 
ATOM     38  H   UNL     1      10.881   6.331   5.423  0.00  0.00    +0.150 HD
BRANCH  14  23
ATOM     23  C   UNL     1      12.883   7.015   5.523  0.00  0.00    +0.163 C 
BRANCH  23  27
ATOM      9  O   UNL     1      11.739   6.542   7.614  0.00  0.00    -0.274 OA
ATOM     15  N   UNL     1      14.012   6.227   7.509  0.00  0.00    -0.328 N 
ATOM     27  C   UNL     1      12.792   6.594   6.982  0.00  0.00    +0.231 C 
ATOM     39  H   UNL     1      14.089   5.909   8.469  0.00  0.00    +0.145 HD
ATOM     40  H   UNL     1      14.873   6.272   6.975  0.00  0.00    +0.145 HD
ENDBRANCH  23  27
BRANCH  23  26
ATOM     26  C   UNL     1      12.986   8.541   5.412  0.00  0.00    +0.074 C 
BRANCH  26  29
ATOM      3  S   UNL     1      15.249   9.920   6.271  0.00  0.00    -0.102 S 
ATOM     29  C   UNL     1      14.393   9.001   5.108  0.00  0.00    -0.008 A 
ATOM     33  C   UNL     1      15.139   8.782   3.971  0.00  0.00    +0.011 A 
ATOM     34  C   UNL     1      16.430   9.378   4.055  0.00  0.00    +0.008 A 
ATOM     35  C   UNL     1      16.622  10.029   5.255  0.00  0.00    +0.045 A 
ENDBRANCH  26  29
ENDBRANCH  23  26
ENDBRANCH  14  23
ENDBRANCH  18  21
BRANCH  16  13
ATOM     13  N   UNL     1      10.738   4.017  -0.382  0.00  0.00    -0.186 NA
ATOM     37  H   UNL     1       9.810   3.897  -0.807  0.00  0.00    +0.148 HD
BRANCH  13   1
ATOM      1  S   UNL     1      12.099   3.762  -1.386  0.00  0.00    +0.065 S 
ATOM      6  O   UNL     1      12.273   4.905  -2.261  0.00  0.00    -0.153 OA
ATOM      7  O   UNL     1      12.046   2.413  -1.912  0.00  0.00    -0.153 OA
BRANCH   1  25
ATOM      2  S   UNL     1      14.968   4.371  -1.046  0.00  0.00    -0.077 S 
ATOM     25  C   UNL     1      13.544   3.747  -0.326  0.00  0.00    +0.142 A 
ATOM     28  C   UNL     1      13.759   3.333   0.969  0.00  0.00    +0.036 A 
ATOM     30  C   UNL     1      15.110   3.530   1.378  0.00  0.00    +0.010 A 
ATOM     32  C   UNL     1      15.876   4.087   0.378  0.00  0.00    +0.047 A 
ENDBRANCH   1  25
ENDBRANCH  13   1
ENDBRANCH  16  13
BRANCH  22  24
ATOM     24  C   UNL     1       8.406   6.849   4.862  0.00  0.00    +0.256 C 
BRANCH  24   8
ATOM      8  O   UNL     1       9.256   7.510   5.768  0.00  0.00    -0.359 OA
BRANCH   8  31
ATOM     31  C   UNL     1       8.530   8.336   6.678  0.00  0.00    +0.280 C 
BRANCH  31  36
ATOM     11  O   UNL     1       9.147  10.684   6.767  0.00  0.00    -0.248 OA
ATOM     36  C   UNL     1       9.369   9.521   7.068  0.00  0.00    +0.331 C 
BRANCH  36  10
ATOM     10  O   UNL     1      10.427   9.119   7.817  0.00  0.00    -0.479 OA
ATOM     41  H   UNL     1      10.341   8.182   8.097  0.00  0.00    +0.295 HD
ENDBRANCH  36  10
ENDBRANCH  31  36
ENDBRANCH   8  31
ENDBRANCH  24   8
ENDBRANCH  22  24
TORSDOF 13
ENDMDL
MODEL 7
REMARK VINA RESULT:      -5.8     27.797     31.052
REMARK  Name = 7134278
REMARK  13 active torsions:
REMARK  status: ('A' for Active; 'I' for Inactive)
REMARK    1  A    between atoms: S_1  and  N_13
REMARK    2  A    between atoms: S_1  and  C_25
REMARK    3  A    between atoms: O_8  and  C_24
REMARK    4  A    between atoms: O_8  and  C_31
REMARK    5  A    between atoms: O_10  and  C_36
REMARK    6  A    between atoms: N_13  and  C_16
REMARK    7  A    between atoms: N_14  and  C_23
REMARK    8  A    between atoms: C_18  and  C_21
REMARK    9  A    between atoms: C_22  and  C_24
REMARK   10  A    between atoms: C_23  and  C_26
REMARK   11  A    between atoms: C_23  and  C_27
REMARK   12  A    between atoms: C_26  and  C_29
REMARK   13  A    between atoms: C_31  and  C_36
REMARK                            x       y       z     vdW  Elec       q    Type
REMARK                         _______ _______ _______ _____ _____    ______ ____
ROOT
ATOM      5  O   UNL     1     -17.758   0.507  22.711  0.00  0.00    -0.273 OA
ATOM     12  N   UNL     1     -17.534   2.185  24.310  0.00  0.00    -0.288 N 
ATOM     16  C   UNL     1     -17.195   2.912  27.111  0.00  0.00    +0.080 C 
ATOM     17  C   UNL     1     -17.995   3.807  26.164  0.00  0.00    +0.052 C 
ATOM     18  C   UNL     1     -17.629   3.604  24.692  0.00  0.00    +0.163 C 
ATOM     19  C   UNL     1     -17.276   1.455  26.667  0.00  0.00    +0.039 C 
ATOM     20  C   UNL     1     -16.800   1.304  25.228  0.00  0.00    +0.110 C 
ATOM     22  C   UNL     1     -17.960   1.668  23.080  0.00  0.00    +0.242 C 
ENDROOT
BRANCH  18  21
ATOM      4  O   UNL     1     -15.263   3.877  24.867  0.00  0.00    -0.274 OA
ATOM     14  N   UNL     1     -16.451   5.253  23.412  0.00  0.00    -0.302 N 
ATOM     21  C   UNL     1     -16.314   4.238  24.344  0.00  0.00    +0.234 C 
ATOM     38  H   UNL     1     -17.384   5.519  23.108  0.00  0.00    +0.150 HD
BRANCH  14  23
ATOM     23  C   UNL     1     -15.338   6.036  22.926  0.00  0.00    +0.163 C 
BRANCH  23  27
ATOM      9  O   UNL     1     -16.746   7.916  22.303  0.00  0.00    -0.274 OA
ATOM     15  N   UNL     1     -15.011   8.279  23.764  0.00  0.00    -0.328 N 
ATOM     27  C   UNL     1     -15.780   7.492  22.933  0.00  0.00    +0.231 C 
ATOM     39  H   UNL     1     -15.209   9.268  23.874  0.00  0.00    +0.145 HD
ATOM     40  H   UNL     1     -14.218   7.914  24.282  0.00  0.00    +0.145 HD
ENDBRANCH  23  27
BRANCH  23  26
ATOM     26  C   UNL     1     -14.903   5.616  21.517  0.00  0.00    +0.074 C 
BRANCH  26  29
ATOM      3  S   UNL     1     -13.993   7.664  19.864  0.00  0.00    -0.102 S 
ATOM     29  C   UNL     1     -13.730   6.423  21.013  0.00  0.00    -0.008 A 
ATOM     33  C   UNL     1     -12.401   6.308  21.356  0.00  0.00    +0.011 A 
ATOM     34  C   UNL     1     -11.587   7.252  20.665  0.00  0.00    +0.008 A 
ATOM     35  C   UNL     1     -12.326   8.052  19.821  0.00  0.00    +0.045 A 
ENDBRANCH  26  29
ENDBRANCH  23  26
ENDBRANCH  14  23
ENDBRANCH  18  21
BRANCH  16  13
ATOM     13  N   UNL     1     -17.740   3.041  28.484  0.00  0.00    -0.186 NA
ATOM     37  H   UNL     1     -18.512   2.397  28.701  0.00  0.00    +0.148 HD
BRANCH  13   1
ATOM      1  S   UNL     1     -16.645   3.405  29.746  0.00  0.00    +0.065 S 
ATOM      6  O   UNL     1     -17.380   3.591  30.983  0.00  0.00    -0.153 OA
ATOM      7  O   UNL     1     -15.701   4.399  29.275  0.00  0.00    -0.153 OA
BRANCH   1  25
ATOM      2  S   UNL     1     -13.976   2.271  30.301  0.00  0.00    -0.077 S 
ATOM     25  C   UNL     1     -15.633   1.950  30.006  0.00  0.00    +0.142 A 
ATOM     28  C   UNL     1     -15.907   0.600  30.020  0.00  0.00    +0.036 A 
ATOM     30  C   UNL     1     -14.743  -0.181  30.277  0.00  0.00    +0.010 A 
ATOM     32  C   UNL     1     -13.623   0.602  30.448  0.00  0.00    +0.047 A 
ENDBRANCH   1  25
ENDBRANCH  13   1
ENDBRANCH  16  13
BRANCH  22  24
ATOM     24  C   UNL     1     -18.720   2.604  22.175  0.00  0.00    +0.256 C 
BRANCH  24   8
ATOM      8  O   UNL     1     -17.770   3.193  21.319  0.00  0.00    -0.359 OA
BRANCH   8  31
ATOM     31  C   UNL     1     -18.357   3.648  20.101  0.00  0.00    +0.280 C 
BRANCH  31  36
ATOM     11  O   UNL     1     -17.529   5.577  18.879  0.00  0.00    -0.248 OA
ATOM     36  C   UNL     1     -18.024   5.099  19.887  0.00  0.00    +0.331 C 
BRANCH  36  10
ATOM     10  O   UNL     1     -18.355   5.822  20.987  0.00  0.00    -0.479 OA
ATOM     41  H   UNL     1     -18.985   6.544  20.773  0.00  0.00    +0.295 HD
ENDBRANCH  36  10
ENDBRANCH  31  36
ENDBRANCH   8  31
ENDBRANCH  24   8
ENDBRANCH  22  24
TORSDOF 13
ENDMDL
MODEL 8
REMARK VINA RESULT:      -5.8     28.859     31.735
REMARK  Name = 7134278
REMARK  13 active torsions:
REMARK  status: ('A' for Active; 'I' for Inactive)
REMARK    1  A    between atoms: S_1  and  N_13
REMARK    2  A    between atoms: S_1  and  C_25
REMARK    3  A    between atoms: O_8  and  C_24
REMARK    4  A    between atoms: O_8  and  C_31
REMARK    5  A    between atoms: O_10  and  C_36
REMARK    6  A    between atoms: N_13  and  C_16
REMARK    7  A    between atoms: N_14  and  C_23
REMARK    8  A    between atoms: C_18  and  C_21
REMARK    9  A    between atoms: C_22  and  C_24
REMARK   10  A    between atoms: C_23  and  C_26
REMARK   11  A    between atoms: C_23  and  C_27
REMARK   12  A    between atoms: C_26  and  C_29
REMARK   13  A    between atoms: C_31  and  C_36
REMARK                            x       y       z     vdW  Elec       q    Type
REMARK                         _______ _______ _______ _____ _____    ______ ____
ROOT
ATOM      5  O   UNL     1      -4.264  -9.903  16.967  0.00  0.00    -0.273 OA
ATOM     12  N   UNL     1      -6.301 -10.844  17.590  0.00  0.00    -0.288 N 
ATOM     16  C   UNL     1      -7.823 -12.411  19.517  0.00  0.00    +0.080 C 
ATOM     17  C   UNL     1      -8.158 -12.470  18.026  0.00  0.00    +0.052 C 
ATOM     18  C   UNL     1      -7.680 -11.239  17.253  0.00  0.00    +0.163 C 
ATOM     19  C   UNL     1      -6.342 -12.110  19.722  0.00  0.00    +0.039 C 
ATOM     20  C   UNL     1      -5.954 -10.818  19.016  0.00  0.00    +0.110 C 
ATOM     22  C   UNL     1      -5.371 -10.357  16.663  0.00  0.00    +0.242 C 
ENDROOT
BRANCH  18  21
ATOM      4  O   UNL     1      -8.137  -8.896  17.346  0.00  0.00    -0.274 OA
ATOM     14  N   UNL     1      -9.815 -10.395  17.944  0.00  0.00    -0.302 N 
ATOM     21  C   UNL     1      -8.549 -10.042  17.505  0.00  0.00    +0.234 C 
ATOM     38  H   UNL     1     -10.019 -11.376  18.117  0.00  0.00    +0.150 HD
BRANCH  14  23
ATOM     23  C   UNL     1     -10.835  -9.428  18.277  0.00  0.00    +0.163 C 
BRANCH  23  27
ATOM      9  O   UNL     1     -12.640 -10.138  19.742  0.00  0.00    -0.274 OA
ATOM     15  N   UNL     1     -10.519  -9.976  20.610  0.00  0.00    -0.328 N 
ATOM     27  C   UNL     1     -11.450  -9.866  19.598  0.00  0.00    +0.231 C 
ATOM     39  H   UNL     1     -10.795 -10.276  21.539  0.00  0.00    +0.145 HD
ATOM     40  H   UNL     1      -9.539  -9.752  20.477  0.00  0.00    +0.145 HD
ENDBRANCH  23  27
BRANCH  23  26
ATOM     26  C   UNL     1     -11.914  -9.324  17.193  0.00  0.00    +0.074 C 
BRANCH  26  29
ATOM      3  S   UNL     1     -12.708  -7.877  14.949  0.00  0.00    -0.102 S 
ATOM     29  C   UNL     1     -11.805  -8.047  16.394  0.00  0.00    -0.008 A 
ATOM     33  C   UNL     1     -11.045  -6.931  16.663  0.00  0.00    +0.011 A 
ATOM     34  C   UNL     1     -11.205  -5.922  15.670  0.00  0.00    +0.008 A 
ATOM     35  C   UNL     1     -12.083  -6.306  14.679  0.00  0.00    +0.045 A 
ENDBRANCH  26  29
ENDBRANCH  23  26
ENDBRANCH  14  23
ENDBRANCH  18  21
BRANCH  16  13
ATOM     13  N   UNL     1      -8.155 -13.714  20.145  0.00  0.00    -0.186 NA
ATOM     37  H   UNL     1      -7.452 -14.060  20.810  0.00  0.00    +0.148 HD
BRANCH  13   1
ATOM      1  S   UNL     1      -9.796 -14.033  20.502  0.00  0.00    +0.065 S 
ATOM      6  O   UNL     1     -10.281 -15.091  19.636  0.00  0.00    -0.153 OA
ATOM      7  O   UNL     1     -10.503 -12.773  20.619  0.00  0.00    -0.153 OA
BRANCH   1  25
ATOM      2  S   UNL     1     -11.368 -14.541  22.949  0.00  0.00    -0.077 S 
ATOM     25  C   UNL     1      -9.856 -14.708  22.161  0.00  0.00    +0.142 A 
ATOM     28  C   UNL     1      -8.928 -15.345  22.954  0.00  0.00    +0.036 A 
ATOM     30  C   UNL     1      -9.464 -15.702  24.225  0.00  0.00    +0.010 A 
ATOM     32  C   UNL     1     -10.782 -15.323  24.355  0.00  0.00    +0.047 A 
ENDBRANCH   1  25
ENDBRANCH  13   1
ENDBRANCH  16  13
BRANCH  22  24
ATOM     24  C   UNL     1      -5.766 -10.414  15.209  0.00  0.00    +0.256 C 
BRANCH  24   8
ATOM      8  O   UNL     1      -4.573 -10.351  14.466  0.00  0.00    -0.359 OA
BRANCH   8  31
ATOM     31  C   UNL     1      -4.207 -11.623  13.932  0.00  0.00    +0.280 C 
BRANCH  31  36
ATOM     11  O   UNL     1      -1.872 -12.003  13.380  0.00  0.00    -0.248 OA
ATOM     36  C   UNL     1      -2.755 -11.894  14.216  0.00  0.00    +0.331 C 
BRANCH  36  10
ATOM     10  O   UNL     1      -2.553 -12.005  15.554  0.00  0.00    -0.479 OA
ATOM     41  H   UNL     1      -3.316 -12.428  16.004  0.00  0.00    +0.295 HD
ENDBRANCH  36  10
ENDBRANCH  31  36
ENDBRANCH   8  31
ENDBRANCH  24   8
ENDBRANCH  22  24
TORSDOF 13
ENDMDL
MODEL 9
REMARK VINA RESULT:      -5.8     28.981     30.878
REMARK  Name = 7134278
REMARK  13 active torsions:
REMARK  status: ('A' for Active; 'I' for Inactive)
REMARK    1  A    between atoms: S_1  and  N_13
REMARK    2  A    between atoms: S_1  and  C_25
REMARK    3  A    between atoms: O_8  and  C_24
REMARK    4  A    between atoms: O_8  and  C_31
REMARK    5  A    between atoms: O_10  and  C_36
REMARK    6  A    between atoms: N_13  and  C_16
REMARK    7  A    between atoms: N_14  and  C_23
REMARK    8  A    between atoms: C_18  and  C_21
REMARK    9  A    between atoms: C_22  and  C_24
REMARK   10  A    between atoms: C_23  and  C_26
REMARK   11  A    between atoms: C_23  and  C_27
REMARK   12  A    between atoms: C_26  and  C_29
REMARK   13  A    between atoms: C_31  and  C_36
REMARK                            x       y       z     vdW  Elec       q    Type
REMARK                         _______ _______ _______ _____ _____    ______ ____
ROOT
ATOM      5  O   UNL     1     -13.526  -7.305  16.177  0.00  0.00    -0.273 OA
ATOM     12  N   UNL     1     -11.351  -8.119  16.349  0.00  0.00    -0.288 N 
ATOM     16  C   UNL     1      -9.468  -9.901  17.679  0.00  0.00    +0.080 C 
ATOM     17  C   UNL     1      -9.007  -8.553  17.124  0.00  0.00    +0.052 C 
ATOM     18  C   UNL     1      -9.919  -8.013  16.020  0.00  0.00    +0.163 C 
ATOM     19  C   UNL     1     -10.936  -9.839  18.089  0.00  0.00    +0.039 C 
ATOM     20  C   UNL     1     -11.803  -9.396  16.917  0.00  0.00    +0.110 C 
ATOM     22  C   UNL     1     -12.311  -7.154  16.020  0.00  0.00    +0.242 C 
ENDROOT
BRANCH  18  21
ATOM      4  O   UNL     1     -10.635  -8.897  13.919  0.00  0.00    -0.274 OA
ATOM     14  N   UNL     1      -8.417  -9.183  14.564  0.00  0.00    -0.302 N 
ATOM     21  C   UNL     1      -9.717  -8.732  14.719  0.00  0.00    +0.234 C 
ATOM     38  H   UNL     1      -7.759  -9.059  15.330  0.00  0.00    +0.150 HD
BRANCH  14  23
ATOM     23  C   UNL     1      -7.968  -9.924  13.408  0.00  0.00    +0.163 C 
BRANCH  23  27
ATOM      9  O   UNL     1      -9.174 -11.966  13.937  0.00  0.00    -0.274 OA
ATOM     15  N   UNL     1      -6.885 -12.054  13.767  0.00  0.00    -0.328 N 
ATOM     27  C   UNL     1      -8.100 -11.401  13.746  0.00  0.00    +0.231 C 
ATOM     39  H   UNL     1      -6.833 -13.048  13.964  0.00  0.00    +0.145 HD
ATOM     40  H   UNL     1      -6.005 -11.576  13.605  0.00  0.00    +0.145 HD
ENDBRANCH  23  27
BRANCH  23  26
ATOM     26  C   UNL     1      -6.521  -9.589  13.028  0.00  0.00    +0.074 C 
BRANCH  26  29
ATOM      3  S   UNL     1      -7.769  -9.149  10.577  0.00  0.00    -0.102 S 
ATOM     29  C   UNL     1      -6.398  -9.108  11.601  0.00  0.00    -0.008 A 
ATOM     33  C   UNL     1      -5.286  -8.611  10.958  0.00  0.00    +0.011 A 
ATOM     34  C   UNL     1      -5.563  -8.261   9.605  0.00  0.00    +0.008 A 
ATOM     35  C   UNL     1      -6.877  -8.502   9.266  0.00  0.00    +0.045 A 
ENDBRANCH  26  29
ENDBRANCH  23  26
ENDBRANCH  14  23
ENDBRANCH  18  21
BRANCH  16  13
ATOM     13  N   UNL     1      -8.640 -10.255  18.857  0.00  0.00    -0.186 NA
ATOM     37  H   UNL     1      -8.981  -9.875  19.750  0.00  0.00    +0.148 HD
BRANCH  13   1
ATOM      1  S   UNL     1      -7.917 -11.804  18.889  0.00  0.00    +0.065 S 
ATOM      6  O   UNL     1      -8.471 -12.616  17.823  0.00  0.00    -0.153 OA
ATOM      7  O   UNL     1      -7.888 -12.278  20.259  0.00  0.00    -0.153 OA
BRANCH   1  25
ATOM      2  S   UNL     1      -5.894 -10.687  17.052  0.00  0.00    -0.077 S 
ATOM     25  C   UNL     1      -6.187 -11.590  18.478  0.00  0.00    +0.142 A 
ATOM     28  C   UNL     1      -5.017 -12.006  19.075  0.00  0.00    +0.036 A 
ATOM     30  C   UNL     1      -3.866 -11.576  18.354  0.00  0.00    +0.010 A 
ATOM     32  C   UNL     1      -4.199 -10.850  17.232  0.00  0.00    +0.047 A 
ENDBRANCH   1  25
ENDBRANCH  13   1
ENDBRANCH  16  13
BRANCH  22  24
ATOM     24  C   UNL     1     -11.800  -5.854  15.450  0.00  0.00    +0.256 C 
BRANCH  24   8
ATOM      8  O   UNL     1     -12.072  -5.887  14.070  0.00  0.00    -0.359 OA
BRANCH   8  31
ATOM     31  C   UNL     1     -13.136  -5.006  13.713  0.00  0.00    +0.280 C 
BRANCH  31  36
ATOM     11  O   UNL     1     -13.113  -4.410  11.358  0.00  0.00    -0.248 OA
ATOM     36  C   UNL     1     -12.745  -4.202  12.503  0.00  0.00    +0.331 C 
BRANCH  36  10
ATOM     10  O   UNL     1     -11.913  -3.192  12.863  0.00  0.00    -0.479 OA
ATOM     41  H   UNL     1     -12.170  -2.796  13.723  0.00  0.00    +0.295 HD
ENDBRANCH  36  10
ENDBRANCH  31  36
ENDBRANCH   8  31
ENDBRANCH  24   8
ENDBRANCH  22  24
TORSDOF 13
ENDMDL
MODEL 10
REMARK VINA RESULT:      -5.8     27.320     30.403
REMARK  Name = 7134278
REMARK  13 active torsions:
REMARK  status: ('A' for Active; 'I' for Inactive)
REMARK    1  A    between atoms: S_1  and  N_13
REMARK    2  A    between atoms: S_1  and  C_25
REMARK    3  A    between atoms: O_8  and  C_24
REMARK    4  A    between atoms: O_8  and  C_31
REMARK    5  A    between atoms: O_10  and  C_36
REMARK    6  A    between atoms: N_13  and  C_16
REMARK    7  A    between atoms: N_14  and  C_23
REMARK    8  A    between atoms: C_18  and  C_21
REMARK    9  A    between atoms: C_22  and  C_24
REMARK   10  A    between atoms: C_23  and  C_26
REMARK   11  A    between atoms: C_23  and  C_27
REMARK   12  A    between atoms: C_26  and  C_29
REMARK   13  A    between atoms: C_31  and  C_36
REMARK                            x       y       z     vdW  Elec       q    Type
REMARK                         _______ _______ _______ _____ _____    ______ ____
ROOT
ATOM      5  O   UNL     1      -3.167 -12.744  11.058  0.00  0.00    -0.273 OA
ATOM     12  N   UNL     1      -4.429 -10.789  11.165  0.00  0.00    -0.288 N 
ATOM     16  C   UNL     1      -6.149  -8.870   9.807  0.00  0.00    +0.080 C 
ATOM     17  C   UNL     1      -5.203  -8.418  10.920  0.00  0.00    +0.052 C 
ATOM     18  C   UNL     1      -4.805  -9.551  11.869  0.00  0.00    +0.163 C 
ATOM     19  C   UNL     1      -5.583 -10.089   9.085  0.00  0.00    +0.039 C 
ATOM     20  C   UNL     1      -5.308 -11.217  10.070  0.00  0.00    +0.110 C 
ATOM     22  C   UNL     1      -3.394 -11.643  11.568  0.00  0.00    +0.242 C 
ENDROOT
BRANCH  18  21
ATOM      4  O   UNL     1      -7.091  -9.678  12.553  0.00  0.00    -0.274 OA
ATOM     14  N   UNL     1      -5.440 -10.485  13.983  0.00  0.00    -0.302 N 
ATOM     21  C   UNL     1      -5.913  -9.908  12.816  0.00  0.00    +0.234 C 
ATOM     38  H   UNL     1      -4.436 -10.553  14.126  0.00  0.00    +0.150 HD
BRANCH  14  23
ATOM     23  C   UNL     1      -6.302 -10.900  15.066  0.00  0.00    +0.163 C 
BRANCH  23  27
ATOM      9  O   UNL     1      -5.656  -9.171  16.649  0.00  0.00    -0.274 OA
ATOM     15  N   UNL     1      -7.806  -9.172  15.838  0.00  0.00    -0.328 N 
ATOM     27  C   UNL     1      -6.529  -9.680  15.948  0.00  0.00    +0.231 C 
ATOM     39  H   UNL     1      -8.084  -8.349  16.361  0.00  0.00    +0.145 HD
ATOM     40  H   UNL     1      -8.516  -9.600  15.252  0.00  0.00    +0.145 HD
ENDBRANCH  23  27
BRANCH  23  26
ATOM     26  C   UNL     1      -5.696 -12.046  15.885  0.00  0.00    +0.074 C 
BRANCH  26  29
ATOM      3  S   UNL     1      -8.075 -12.953  17.016  0.00  0.00    -0.102 S 
ATOM     29  C   UNL     1      -6.484 -12.333  17.141  0.00  0.00    -0.008 A 
ATOM     33  C   UNL     1      -6.097 -12.164  18.452  0.00  0.00    +0.011 A 
ATOM     34  C   UNL     1      -7.121 -12.547  19.366  0.00  0.00    +0.008 A 
ATOM     35  C   UNL     1      -8.252 -12.995  18.718  0.00  0.00    +0.045 A 
ENDBRANCH  26  29
ENDBRANCH  23  26
ENDBRANCH  14  23
ENDBRANCH  18  21
BRANCH  16  13
ATOM     13  N   UNL     1      -6.330  -7.761   8.838  0.00  0.00    -0.186 NA
ATOM     37  H   UNL     1      -5.531  -7.606   8.211  0.00  0.00    +0.148 HD
BRANCH  13   1
ATOM      1  S   UNL     1      -7.894  -7.514   8.193  0.00  0.00    +0.065 S 
ATOM      6  O   UNL     1      -8.158  -6.091   8.101  0.00  0.00    -0.153 OA
ATOM      7  O   UNL     1      -8.821  -8.410   8.855  0.00  0.00    -0.153 OA
BRANCH   1  25
ATOM      2  S   UNL     1      -9.063  -7.417   5.483  0.00  0.00    -0.077 S 
ATOM     25  C   UNL     1      -7.869  -8.105   6.501  0.00  0.00    +0.142 A 
ATOM     28  C   UNL     1      -7.079  -9.012   5.831  0.00  0.00    +0.036 A 
ATOM     30  C   UNL     1      -7.457  -9.145   4.464  0.00  0.00    +0.010 A 
ATOM     32  C   UNL     1      -8.523  -8.335   4.141  0.00  0.00    +0.047 A 
ENDBRANCH   1  25
ENDBRANCH  13   1
ENDBRANCH  16  13
BRANCH  22  24
ATOM     24  C   UNL     1      -2.510 -11.157  12.690  0.00  0.00    +0.256 C 
BRANCH  24   8
ATOM      8  O   UNL     1      -2.927 -11.833  13.851  0.00  0.00    -0.359 OA
BRANCH   8  31
ATOM     31  C   UNL     1      -1.899 -11.886  14.839  0.00  0.00    +0.280 C 
BRANCH  31  36
ATOM     11  O   UNL     1      -0.707  -9.906  15.589  0.00  0.00    -0.248 OA
ATOM     36  C   UNL     1      -1.748 -10.538  15.488  0.00  0.00    +0.331 C 
BRANCH  36  10
ATOM     10  O   UNL     1      -2.947 -10.107  15.956  0.00  0.00    -0.479 OA
ATOM     41  H   UNL     1      -3.665 -10.749  15.765  0.00  0.00    +0.295 HD
ENDBRANCH  36  10
ENDBRANCH  31  36
ENDBRANCH   8  31
ENDBRANCH  24   8
ENDBRANCH  22  24
TORSDOF 13
ENDMDL
