MODEL 1
REMARK VINA RESULT:      -5.9      0.000      0.000
REMARK  Name = 26744196
REMARK  9 active torsions:
REMARK  status: ('A' for Active; 'I' for Inactive)
REMARK    1  A    between atoms: O_1  and  C_9
REMARK    2  A    between atoms: O_3  and  C_22
REMARK    3  A    between atoms: O_3  and  C_23
REMARK    4  A    between atoms: N_4  and  C_11
REMARK    5  A    between atoms: C_7  and  C_12
REMARK    6  A    between atoms: C_11  and  C_13
REMARK    7  A    between atoms: C_14  and  C_15
REMARK    8  A    between atoms: C_15  and  C_20
REMARK    9  A    between atoms: C_15  and  C_21
REMARK                            x       y       z     vdW  Elec       q    Type
REMARK                         _______ _______ _______ _____ _____    ______ ____
ROOT
ATOM      4  N   UNL     1      -3.204 -10.579  14.278  0.00  0.00    -0.285 NA
ATOM      7  C   UNL     1      -3.491 -11.251  15.562  0.00  0.00    +0.149 C 
ATOM      8  C   UNL     1      -2.316 -10.864  16.479  0.00  0.00    +0.061 C 
ATOM      9  C   UNL     1      -1.400 -10.013  15.609  0.00  0.00    +0.130 C 
ATOM     10  C   UNL     1      -1.751 -10.442  14.197  0.00  0.00    +0.116 C 
ENDROOT
BRANCH   7  12
ATOM      2  O   UNL     1      -5.302  -9.627  15.805  0.00  0.00    -0.336 OA
ATOM      5  N   UNL     1      -5.632 -11.540  16.922  0.00  0.00    -0.194 NA
ATOM      6  N   UNL     1      -6.539  -9.494  16.446  0.00  0.00    -0.061 NA
ATOM     12  C   UNL     1      -4.836 -10.859  16.137  0.00  0.00    +0.245 A 
ATOM     14  C   UNL     1      -6.664 -10.661  17.085  0.00  0.00    +0.174 A 
BRANCH  14  15
ATOM     15  C   UNL     1      -7.837 -10.976  17.908  0.00  0.00    +0.054 C 
ATOM     20  C   UNL     1      -7.489 -11.246  19.394  0.00  0.00    +0.015 C 
ATOM     21  C   UNL     1      -8.940  -9.888  17.842  0.00  0.00    +0.015 C 
ENDBRANCH  14  15
ENDBRANCH   7  12
BRANCH   9   1
ATOM      1  O   UNL     1      -0.041 -10.267  15.912  0.00  0.00    -0.390 OA
ATOM     24  H   UNL     1       0.070 -10.150  16.871  0.00  0.00    +0.210 HD
ENDBRANCH   9   1
BRANCH   4  11
ATOM     11  C   UNL     1      -3.754 -11.283  13.126  0.00  0.00    +0.120 C 
BRANCH  11  13
ATOM     13  C   UNL     1      -4.322 -10.332  12.107  0.00  0.00    -0.033 A 
ATOM     16  C   UNL     1      -3.575  -9.990  10.980  0.00  0.00    +0.008 A 
ATOM     17  C   UNL     1      -5.596  -9.794  12.289  0.00  0.00    +0.008 A 
ATOM     18  C   UNL     1      -4.101  -9.108  10.035  0.00  0.00    +0.046 A 
ATOM     19  C   UNL     1      -6.122  -8.913  11.345  0.00  0.00    +0.046 A 
ATOM     22  C   UNL     1      -5.375  -8.570  10.218  0.00  0.00    +0.120 A 
BRANCH  22   3
ATOM      3  O   UNL     1      -5.889  -7.711   9.295  0.00  0.00    -0.495 OA
ATOM     23  C   UNL     1      -7.216  -7.967   8.839  0.00  0.00    +0.277 C 
ENDBRANCH  22   3
ENDBRANCH  11  13
ENDBRANCH   4  11
TORSDOF 6
ENDMDL
MODEL 2
REMARK VINA RESULT:      -5.7      2.458      6.760
REMARK  Name = 26744196
REMARK  9 active torsions:
REMARK  status: ('A' for Active; 'I' for Inactive)
REMARK    1  A    between atoms: O_1  and  C_9
REMARK    2  A    between atoms: O_3  and  C_22
REMARK    3  A    between atoms: O_3  and  C_23
REMARK    4  A    between atoms: N_4  and  C_11
REMARK    5  A    between atoms: C_7  and  C_12
REMARK    6  A    between atoms: C_11  and  C_13
REMARK    7  A    between atoms: C_14  and  C_15
REMARK    8  A    between atoms: C_15  and  C_20
REMARK    9  A    between atoms: C_15  and  C_21
REMARK                            x       y       z     vdW  Elec       q    Type
REMARK                         _______ _______ _______ _____ _____    ______ ____
ROOT
ATOM      4  N   UNL     1      -3.273 -11.790  14.217  0.00  0.00    -0.285 NA
ATOM      7  C   UNL     1      -2.224 -11.821  13.179  0.00  0.00    +0.149 C 
ATOM      8  C   UNL     1      -2.221 -13.273  12.667  0.00  0.00    +0.061 C 
ATOM      9  C   UNL     1      -3.269 -13.990  13.508  0.00  0.00    +0.130 C 
ATOM     10  C   UNL     1      -3.359 -13.143  14.763  0.00  0.00    +0.116 C 
ENDROOT
BRANCH   7  12
ATOM      2  O   UNL     1      -1.414 -10.015  11.746  0.00  0.00    -0.336 OA
ATOM      5  N   UNL     1      -3.549 -10.584  11.382  0.00  0.00    -0.194 NA
ATOM      6  N   UNL     1      -1.870  -9.176  10.722  0.00  0.00    -0.061 NA
ATOM     12  C   UNL     1      -2.463 -10.812  12.077  0.00  0.00    +0.245 A 
ATOM     14  C   UNL     1      -3.137  -9.572  10.564  0.00  0.00    +0.174 A 
BRANCH  14  15
ATOM     15  C   UNL     1      -4.026  -8.956   9.573  0.00  0.00    +0.054 C 
ATOM     20  C   UNL     1      -4.545  -9.956   8.508  0.00  0.00    +0.015 C 
ATOM     21  C   UNL     1      -5.238  -8.226  10.207  0.00  0.00    +0.015 C 
ENDBRANCH  14  15
ENDBRANCH   7  12
BRANCH   9   1
ATOM      1  O   UNL     1      -2.863 -15.315  13.796  0.00  0.00    -0.390 OA
ATOM     24  H   UNL     1      -1.893 -15.340  13.741  0.00  0.00    +0.210 HD
ENDBRANCH   9   1
BRANCH   4  11
ATOM     11  C   UNL     1      -3.026 -10.795  15.255  0.00  0.00    +0.120 C 
BRANCH  11  13
ATOM     13  C   UNL     1      -4.219 -10.616  16.155  0.00  0.00    -0.033 A 
ATOM     16  C   UNL     1      -5.380 -10.019  15.664  0.00  0.00    +0.008 A 
ATOM     17  C   UNL     1      -4.164 -11.049  17.480  0.00  0.00    +0.008 A 
ATOM     18  C   UNL     1      -6.486  -9.852  16.498  0.00  0.00    +0.046 A 
ATOM     19  C   UNL     1      -5.270 -10.882  18.314  0.00  0.00    +0.046 A 
ATOM     22  C   UNL     1      -6.431 -10.285  17.823  0.00  0.00    +0.120 A 
BRANCH  22   3
ATOM      3  O   UNL     1      -7.510 -10.123  18.637  0.00  0.00    -0.495 OA
ATOM     23  C   UNL     1      -7.998 -11.286  19.304  0.00  0.00    +0.277 C 
ENDBRANCH  22   3
ENDBRANCH  11  13
ENDBRANCH   4  11
TORSDOF 6
ENDMDL
MODEL 3
REMARK VINA RESULT:      -5.7     20.144     22.546
REMARK  Name = 26744196
REMARK  9 active torsions:
REMARK  status: ('A' for Active; 'I' for Inactive)
REMARK    1  A    between atoms: O_1  and  C_9
REMARK    2  A    between atoms: O_3  and  C_22
REMARK    3  A    between atoms: O_3  and  C_23
REMARK    4  A    between atoms: N_4  and  C_11
REMARK    5  A    between atoms: C_7  and  C_12
REMARK    6  A    between atoms: C_11  and  C_13
REMARK    7  A    between atoms: C_14  and  C_15
REMARK    8  A    between atoms: C_15  and  C_20
REMARK    9  A    between atoms: C_15  and  C_21
REMARK                            x       y       z     vdW  Elec       q    Type
REMARK                         _______ _______ _______ _____ _____    ______ ____
ROOT
ATOM      4  N   UNL     1     -15.362   1.695  29.447  0.00  0.00    -0.285 NA
ATOM      7  C   UNL     1     -15.414   1.479  30.907  0.00  0.00    +0.149 C 
ATOM      8  C   UNL     1     -14.540   0.236  31.152  0.00  0.00    +0.061 C 
ATOM      9  C   UNL     1     -14.078  -0.201  29.767  0.00  0.00    +0.130 C 
ATOM     10  C   UNL     1     -15.127   0.386  28.842  0.00  0.00    +0.116 C 
ENDROOT
BRANCH   7  12
ATOM      2  O   UNL     1     -13.752   3.222  31.329  0.00  0.00    -0.336 OA
ATOM      5  N   UNL     1     -15.531   3.305  32.687  0.00  0.00    -0.194 NA
ATOM      6  N   UNL     1     -13.537   4.308  32.185  0.00  0.00    -0.061 NA
ATOM     12  C   UNL     1     -14.948   2.687  31.692  0.00  0.00    +0.245 A 
ATOM     14  C   UNL     1     -14.628   4.292  32.957  0.00  0.00    +0.174 A 
BRANCH  14  15
ATOM     15  C   UNL     1     -14.839   5.276  34.025  0.00  0.00    +0.054 C 
ATOM     20  C   UNL     1     -14.313   4.805  35.405  0.00  0.00    +0.015 C 
ATOM     21  C   UNL     1     -14.232   6.666  33.705  0.00  0.00    +0.015 C 
ENDBRANCH  14  15
ENDBRANCH   7  12
BRANCH   9   1
ATOM      1  O   UNL     1     -14.028  -1.612  29.677  0.00  0.00    -0.390 OA
ATOM     24  H   UNL     1     -13.760  -1.951  30.548  0.00  0.00    +0.210 HD
ENDBRANCH   9   1
BRANCH   4  11
ATOM     11  C   UNL     1     -16.559   2.337  28.918  0.00  0.00    +0.120 C 
BRANCH  11  13
ATOM     13  C   UNL     1     -16.567   2.353  27.412  0.00  0.00    -0.033 A 
ATOM     16  C   UNL     1     -17.210   1.335  26.708  0.00  0.00    +0.008 A 
ATOM     17  C   UNL     1     -15.934   3.386  26.722  0.00  0.00    +0.008 A 
ATOM     18  C   UNL     1     -17.218   1.349  25.313  0.00  0.00    +0.046 A 
ATOM     19  C   UNL     1     -15.941   3.400  25.327  0.00  0.00    +0.046 A 
ATOM     22  C   UNL     1     -16.584   2.382  24.623  0.00  0.00    +0.120 A 
BRANCH  22   3
ATOM      3  O   UNL     1     -16.592   2.397  23.261  0.00  0.00    -0.495 OA
ATOM     23  C   UNL     1     -17.835   2.121  22.618  0.00  0.00    +0.277 C 
ENDBRANCH  22   3
ENDBRANCH  11  13
ENDBRANCH   4  11
TORSDOF 6
ENDMDL
MODEL 4
REMARK VINA RESULT:      -5.7     23.341     25.719
REMARK  Name = 26744196
REMARK  9 active torsions:
REMARK  status: ('A' for Active; 'I' for Inactive)
REMARK    1  A    between atoms: O_1  and  C_9
REMARK    2  A    between atoms: O_3  and  C_22
REMARK    3  A    between atoms: O_3  and  C_23
REMARK    4  A    between atoms: N_4  and  C_11
REMARK    5  A    between atoms: C_7  and  C_12
REMARK    6  A    between atoms: C_11  and  C_13
REMARK    7  A    between atoms: C_14  and  C_15
REMARK    8  A    between atoms: C_15  and  C_20
REMARK    9  A    between atoms: C_15  and  C_21
REMARK                            x       y       z     vdW  Elec       q    Type
REMARK                         _______ _______ _______ _____ _____    ______ ____
ROOT
ATOM      4  N   UNL     1      10.520   5.544   6.057  0.00  0.00    -0.285 NA
ATOM      7  C   UNL     1      10.588   6.730   6.935  0.00  0.00    +0.149 C 
ATOM      8  C   UNL     1      10.347   6.183   8.354  0.00  0.00    +0.061 C 
ATOM      9  C   UNL     1      10.108   4.689   8.165  0.00  0.00    +0.130 C 
ATOM     10  C   UNL     1       9.645   4.582   6.725  0.00  0.00    +0.116 C 
ENDROOT
BRANCH   7  12
ATOM      2  O   UNL     1      11.885   8.792   7.137  0.00  0.00    -0.336 OA
ATOM      5  N   UNL     1      13.071   7.032   6.425  0.00  0.00    -0.194 NA
ATOM      6  N   UNL     1      13.191   9.257   6.943  0.00  0.00    -0.061 NA
ATOM     12  C   UNL     1      11.901   7.473   6.810  0.00  0.00    +0.245 A 
ATOM     14  C   UNL     1      13.830   8.162   6.522  0.00  0.00    +0.174 A 
BRANCH  14  15
ATOM     15  C   UNL     1      15.259   8.177   6.188  0.00  0.00    +0.054 C 
ATOM     20  C   UNL     1      15.581   7.476   4.843  0.00  0.00    +0.015 C 
ATOM     21  C   UNL     1      15.868   9.602   6.169  0.00  0.00    +0.015 C 
ENDBRANCH  14  15
ENDBRANCH   7  12
BRANCH   9   1
ATOM      1  O   UNL     1       9.126   4.219   9.069  0.00  0.00    -0.390 OA
ATOM     24  H   UNL     1       8.261   4.520   8.742  0.00  0.00    +0.210 HD
ENDBRANCH   9   1
BRANCH   4  11
ATOM     11  C   UNL     1      10.064   5.855   4.707  0.00  0.00    +0.120 C 
BRANCH  11  13
ATOM     13  C   UNL     1      11.039   5.379   3.663  0.00  0.00    -0.033 A 
ATOM     16  C   UNL     1      10.938   4.085   3.153  0.00  0.00    +0.008 A 
ATOM     17  C   UNL     1      12.043   6.232   3.206  0.00  0.00    +0.008 A 
ATOM     18  C   UNL     1      11.842   3.643   2.186  0.00  0.00    +0.046 A 
ATOM     19  C   UNL     1      12.947   5.791   2.239  0.00  0.00    +0.046 A 
ATOM     22  C   UNL     1      12.846   4.497   1.729  0.00  0.00    +0.120 A 
BRANCH  22   3
ATOM      3  O   UNL     1      13.727   4.067   0.784  0.00  0.00    -0.495 OA
ATOM     23  C   UNL     1      15.023   3.678   1.236  0.00  0.00    +0.277 C 
ENDBRANCH  22   3
ENDBRANCH  11  13
ENDBRANCH   4  11
TORSDOF 6
ENDMDL
MODEL 5
REMARK VINA RESULT:      -5.6     20.205     22.242
REMARK  Name = 26744196
REMARK  9 active torsions:
REMARK  status: ('A' for Active; 'I' for Inactive)
REMARK    1  A    between atoms: O_1  and  C_9
REMARK    2  A    between atoms: O_3  and  C_22
REMARK    3  A    between atoms: O_3  and  C_23
REMARK    4  A    between atoms: N_4  and  C_11
REMARK    5  A    between atoms: C_7  and  C_12
REMARK    6  A    between atoms: C_11  and  C_13
REMARK    7  A    between atoms: C_14  and  C_15
REMARK    8  A    between atoms: C_15  and  C_20
REMARK    9  A    between atoms: C_15  and  C_21
REMARK                            x       y       z     vdW  Elec       q    Type
REMARK                         _______ _______ _______ _____ _____    ______ ____
ROOT
ATOM      4  N   UNL     1     -11.092   9.789  17.600  0.00  0.00    -0.285 NA
ATOM      7  C   UNL     1     -10.570  10.869  18.461  0.00  0.00    +0.149 C 
ATOM      8  C   UNL     1     -10.348  12.058  17.508  0.00  0.00    +0.061 C 
ATOM      9  C   UNL     1     -10.729  11.535  16.129  0.00  0.00    +0.130 C 
ATOM     10  C   UNL     1     -10.562  10.033  16.260  0.00  0.00    +0.116 C 
ENDROOT
BRANCH   7  12
ATOM      2  O   UNL     1     -12.416  12.183  19.379  0.00  0.00    -0.336 OA
ATOM      5  N   UNL     1     -11.560  10.685  20.807  0.00  0.00    -0.194 NA
ATOM      6  N   UNL     1     -13.149  12.313  20.564  0.00  0.00    -0.061 NA
ATOM     12  C   UNL     1     -11.501  11.204  19.606  0.00  0.00    +0.245 A 
ATOM     14  C   UNL     1     -12.585  11.397  21.358  0.00  0.00    +0.174 A 
BRANCH  14  15
ATOM     15  C   UNL     1     -13.042  11.174  22.734  0.00  0.00    +0.054 C 
ATOM     20  C   UNL     1     -13.618   9.754  22.967  0.00  0.00    +0.015 C 
ATOM     21  C   UNL     1     -11.946  11.451  23.796  0.00  0.00    +0.015 C 
ENDBRANCH  14  15
ENDBRANCH   7  12
BRANCH   9   1
ATOM      1  O   UNL     1      -9.878  12.073  15.134  0.00  0.00    -0.390 OA
ATOM     24  H   UNL     1      -9.099  11.494  15.072  0.00  0.00    +0.210 HD
ENDBRANCH   9   1
BRANCH   4  11
ATOM     11  C   UNL     1     -10.759   8.455  18.087  0.00  0.00    +0.120 C 
BRANCH  11  13
ATOM     13  C   UNL     1     -11.823   7.911  19.001  0.00  0.00    -0.033 A 
ATOM     16  C   UNL     1     -11.462   7.221  20.159  0.00  0.00    +0.008 A 
ATOM     17  C   UNL     1     -13.170   8.095  18.692  0.00  0.00    +0.008 A 
ATOM     18  C   UNL     1     -12.448   6.716  21.007  0.00  0.00    +0.046 A 
ATOM     19  C   UNL     1     -14.157   7.590  19.539  0.00  0.00    +0.046 A 
ATOM     22  C   UNL     1     -13.796   6.901  20.697  0.00  0.00    +0.120 A 
BRANCH  22   3
ATOM      3  O   UNL     1     -14.758   6.408  21.524  0.00  0.00    -0.495 OA
ATOM     23  C   UNL     1     -14.364   5.389  22.442  0.00  0.00    +0.277 C 
ENDBRANCH  22   3
ENDBRANCH  11  13
ENDBRANCH   4  11
TORSDOF 6
ENDMDL
MODEL 6
REMARK VINA RESULT:      -5.5     24.014     26.667
REMARK  Name = 26744196
REMARK  9 active torsions:
REMARK  status: ('A' for Active; 'I' for Inactive)
REMARK    1  A    between atoms: O_1  and  C_9
REMARK    2  A    between atoms: O_3  and  C_22
REMARK    3  A    between atoms: O_3  and  C_23
REMARK    4  A    between atoms: N_4  and  C_11
REMARK    5  A    between atoms: C_7  and  C_12
REMARK    6  A    between atoms: C_11  and  C_13
REMARK    7  A    between atoms: C_14  and  C_15
REMARK    8  A    between atoms: C_15  and  C_20
REMARK    9  A    between atoms: C_15  and  C_21
REMARK                            x       y       z     vdW  Elec       q    Type
REMARK                         _______ _______ _______ _____ _____    ______ ____
ROOT
ATOM      4  N   UNL     1      10.893   7.081   6.200  0.00  0.00    -0.285 NA
ATOM      7  C   UNL     1      10.323   5.896   5.528  0.00  0.00    +0.149 C 
ATOM      8  C   UNL     1       8.831   6.229   5.341  0.00  0.00    +0.061 C 
ATOM      9  C   UNL     1       8.651   7.600   5.980  0.00  0.00    +0.130 C 
ATOM     10  C   UNL     1       9.804   7.690   6.961  0.00  0.00    +0.116 C 
ENDROOT
BRANCH   7  12
ATOM      2  O   UNL     1      11.749   6.575   3.662  0.00  0.00    -0.336 OA
ATOM      5  N   UNL     1      11.023   4.461   3.536  0.00  0.00    -0.194 NA
ATOM      6  N   UNL     1      12.287   6.050   2.481  0.00  0.00    -0.061 NA
ATOM     12  C   UNL     1      11.019   5.575   4.222  0.00  0.00    +0.245 A 
ATOM     14  C   UNL     1      11.813   4.800   2.476  0.00  0.00    +0.174 A 
BRANCH  14  15
ATOM     15  C   UNL     1      12.125   3.855   1.398  0.00  0.00    +0.054 C 
ATOM     20  C   UNL     1      11.917   4.449  -0.018  0.00  0.00    +0.015 C 
ATOM     21  C   UNL     1      13.559   3.273   1.491  0.00  0.00    +0.015 C 
ENDBRANCH  14  15
ENDBRANCH   7  12
BRANCH   9   1
ATOM      1  O   UNL     1       7.398   7.690   6.633  0.00  0.00    -0.390 OA
ATOM     24  H   UNL     1       6.711   7.690   5.945  0.00  0.00    +0.210 HD
ENDBRANCH   9   1
BRANCH   4  11
ATOM     11  C   UNL     1      12.042   6.767   7.041  0.00  0.00    +0.120 C 
BRANCH  11  13
ATOM     13  C   UNL     1      13.205   7.682   6.765  0.00  0.00    -0.033 A 
ATOM     16  C   UNL     1      13.037   9.065   6.836  0.00  0.00    +0.008 A 
ATOM     17  C   UNL     1      14.451   7.147   6.439  0.00  0.00    +0.008 A 
ATOM     18  C   UNL     1      14.114   9.913   6.580  0.00  0.00    +0.046 A 
ATOM     19  C   UNL     1      15.529   7.994   6.183  0.00  0.00    +0.046 A 
ATOM     22  C   UNL     1      15.361   9.377   6.254  0.00  0.00    +0.120 A 
BRANCH  22   3
ATOM      3  O   UNL     1      16.413  10.204   6.005  0.00  0.00    -0.495 OA
ATOM     23  C   UNL     1      17.647   9.591   5.635  0.00  0.00    +0.277 C 
ENDBRANCH  22   3
ENDBRANCH  11  13
ENDBRANCH   4  11
TORSDOF 6
ENDMDL
MODEL 7
REMARK VINA RESULT:      -5.4     28.307     31.414
REMARK  Name = 26744196
REMARK  9 active torsions:
REMARK  status: ('A' for Active; 'I' for Inactive)
REMARK    1  A    between atoms: O_1  and  C_9
REMARK    2  A    between atoms: O_3  and  C_22
REMARK    3  A    between atoms: O_3  and  C_23
REMARK    4  A    between atoms: N_4  and  C_11
REMARK    5  A    between atoms: C_7  and  C_12
REMARK    6  A    between atoms: C_11  and  C_13
REMARK    7  A    between atoms: C_14  and  C_15
REMARK    8  A    between atoms: C_15  and  C_20
REMARK    9  A    between atoms: C_15  and  C_21
REMARK                            x       y       z     vdW  Elec       q    Type
REMARK                         _______ _______ _______ _____ _____    ______ ____
ROOT
ATOM      4  N   UNL     1      20.957   6.764  23.318  0.00  0.00    -0.285 NA
ATOM      7  C   UNL     1      22.303   6.260  23.657  0.00  0.00    +0.149 C 
ATOM      8  C   UNL     1      22.353   6.275  25.196  0.00  0.00    +0.061 C 
ATOM      9  C   UNL     1      21.008   6.846  25.628  0.00  0.00    +0.130 C 
ATOM     10  C   UNL     1      20.552   7.638  24.417  0.00  0.00    +0.116 C 
ENDROOT
BRANCH   7  12
ATOM      2  O   UNL     1      22.165   3.824  23.815  0.00  0.00    -0.336 OA
ATOM      5  N   UNL     1      23.158   4.566  21.950  0.00  0.00    -0.194 NA
ATOM      6  N   UNL     1      22.523   2.684  23.086  0.00  0.00    -0.061 NA
ATOM     12  C   UNL     1      22.575   4.889  23.076  0.00  0.00    +0.245 A 
ATOM     14  C   UNL     1      23.103   3.203  22.000  0.00  0.00    +0.174 A 
BRANCH  14  15
ATOM     15  C   UNL     1      23.646   2.358  20.930  0.00  0.00    +0.054 C 
ATOM     20  C   UNL     1      24.663   3.095  20.023  0.00  0.00    +0.015 C 
ATOM     21  C   UNL     1      24.296   1.051  21.453  0.00  0.00    +0.015 C 
ENDBRANCH  14  15
ENDBRANCH   7  12
BRANCH   9   1
ATOM      1  O   UNL     1      21.154   7.669  26.770  0.00  0.00    -0.390 OA
ATOM     24  H   UNL     1      21.835   8.333  26.565  0.00  0.00    +0.210 HD
ENDBRANCH   9   1
BRANCH   4  11
ATOM     11  C   UNL     1      20.906   7.445  22.030  0.00  0.00    +0.120 C 
BRANCH  11  13
ATOM     13  C   UNL     1      19.633   7.143  21.286  0.00  0.00    -0.033 A 
ATOM     16  C   UNL     1      18.555   8.026  21.362  0.00  0.00    +0.008 A 
ATOM     17  C   UNL     1      19.530   5.982  20.521  0.00  0.00    +0.008 A 
ATOM     18  C   UNL     1      17.374   7.747  20.674  0.00  0.00    +0.046 A 
ATOM     19  C   UNL     1      18.349   5.702  19.833  0.00  0.00    +0.046 A 
ATOM     22  C   UNL     1      17.272   6.584  19.909  0.00  0.00    +0.120 A 
BRANCH  22   3
ATOM      3  O   UNL     1      16.120   6.312  19.236  0.00  0.00    -0.495 OA
ATOM     23  C   UNL     1      14.895   6.661  19.880  0.00  0.00    +0.277 C 
ENDBRANCH  22   3
ENDBRANCH  11  13
ENDBRANCH   4  11
TORSDOF 6
ENDMDL
MODEL 8
REMARK VINA RESULT:      -5.4     22.272     24.723
REMARK  Name = 26744196
REMARK  9 active torsions:
REMARK  status: ('A' for Active; 'I' for Inactive)
REMARK    1  A    between atoms: O_1  and  C_9
REMARK    2  A    between atoms: O_3  and  C_22
REMARK    3  A    between atoms: O_3  and  C_23
REMARK    4  A    between atoms: N_4  and  C_11
REMARK    5  A    between atoms: C_7  and  C_12
REMARK    6  A    between atoms: C_11  and  C_13
REMARK    7  A    between atoms: C_14  and  C_15
REMARK    8  A    between atoms: C_15  and  C_20
REMARK    9  A    between atoms: C_15  and  C_21
REMARK                            x       y       z     vdW  Elec       q    Type
REMARK                         _______ _______ _______ _____ _____    ______ ____
ROOT
ATOM      4  N   UNL     1       9.480   7.233   7.010  0.00  0.00    -0.285 NA
ATOM      7  C   UNL     1      10.712   6.428   6.887  0.00  0.00    +0.149 C 
ATOM      8  C   UNL     1      10.498   5.235   7.836  0.00  0.00    +0.061 C 
ATOM      9  C   UNL     1       9.139   5.481   8.480  0.00  0.00    +0.130 C 
ATOM     10  C   UNL     1       8.951   6.981   8.349  0.00  0.00    +0.116 C 
ENDROOT
BRANCH   7  12
ATOM      2  O   UNL     1      11.872   6.759   4.761  0.00  0.00    -0.336 OA
ATOM      5  N   UNL     1      10.495   4.993   4.787  0.00  0.00    -0.194 NA
ATOM      6  N   UNL     1      11.961   6.178   3.490  0.00  0.00    -0.061 NA
ATOM     12  C   UNL     1      10.988   6.001   5.461  0.00  0.00    +0.245 A 
ATOM     14  C   UNL     1      11.121   5.143   3.583  0.00  0.00    +0.174 A 
BRANCH  14  15
ATOM     15  C   UNL     1      10.888   4.228   2.460  0.00  0.00    +0.054 C 
ATOM     20  C   UNL     1      10.246   4.917   1.230  0.00  0.00    +0.015 C 
ATOM     21  C   UNL     1      12.169   3.481   2.005  0.00  0.00    +0.015 C 
ENDBRANCH  14  15
ENDBRANCH   7  12
BRANCH   9   1
ATOM      1  O   UNL     1       9.143   5.068   9.833  0.00  0.00    -0.390 OA
ATOM     24  H   UNL     1       9.731   5.670  10.320  0.00  0.00    +0.210 HD
ENDBRANCH   9   1
BRANCH   4  11
ATOM     11  C   UNL     1       9.695   8.654   6.765  0.00  0.00    +0.120 C 
BRANCH  11  13
ATOM     13  C   UNL     1       8.801   9.176   5.672  0.00  0.00    -0.033 A 
ATOM     16  C   UNL     1       8.227   8.292   4.759  0.00  0.00    +0.008 A 
ATOM     17  C   UNL     1       8.546  10.544   5.573  0.00  0.00    +0.008 A 
ATOM     18  C   UNL     1       7.398   8.775   3.746  0.00  0.00    +0.046 A 
ATOM     19  C   UNL     1       7.717  11.027   4.560  0.00  0.00    +0.046 A 
ATOM     22  C   UNL     1       7.143  10.143   3.647  0.00  0.00    +0.120 A 
BRANCH  22   3
ATOM      3  O   UNL     1       6.334  10.614   2.659  0.00  0.00    -0.495 OA
ATOM     23  C   UNL     1       4.940  10.333   2.774  0.00  0.00    +0.277 C 
ENDBRANCH  22   3
ENDBRANCH  11  13
ENDBRANCH   4  11
TORSDOF 6
ENDMDL
MODEL 9
REMARK VINA RESULT:      -5.3      2.304      6.896
REMARK  Name = 26744196
REMARK  9 active torsions:
REMARK  status: ('A' for Active; 'I' for Inactive)
REMARK    1  A    between atoms: O_1  and  C_9
REMARK    2  A    between atoms: O_3  and  C_22
REMARK    3  A    between atoms: O_3  and  C_23
REMARK    4  A    between atoms: N_4  and  C_11
REMARK    5  A    between atoms: C_7  and  C_12
REMARK    6  A    between atoms: C_11  and  C_13
REMARK    7  A    between atoms: C_14  and  C_15
REMARK    8  A    between atoms: C_15  and  C_20
REMARK    9  A    between atoms: C_15  and  C_21
REMARK                            x       y       z     vdW  Elec       q    Type
REMARK                         _______ _______ _______ _____ _____    ______ ____
ROOT
ATOM      4  N   UNL     1      -4.585 -11.411  15.310  0.00  0.00    -0.285 NA
ATOM      7  C   UNL     1      -3.763 -11.113  14.120  0.00  0.00    +0.149 C 
ATOM      8  C   UNL     1      -3.314 -12.489  13.596  0.00  0.00    +0.061 C 
ATOM      9  C   UNL     1      -3.894 -13.495  14.583  0.00  0.00    +0.130 C 
ATOM     10  C   UNL     1      -4.094 -12.679  15.846  0.00  0.00    +0.116 C 
ENDROOT
BRANCH   7  12
ATOM      2  O   UNL     1      -5.718  -9.804  13.456  0.00  0.00    -0.336 OA
ATOM      5  N   UNL     1      -4.171 -10.018  11.850  0.00  0.00    -0.194 NA
ATOM      6  N   UNL     1      -6.213  -9.110  12.345  0.00  0.00    -0.061 NA
ATOM     12  C   UNL     1      -4.513 -10.307  13.080  0.00  0.00    +0.245 A 
ATOM     14  C   UNL     1      -5.245  -9.283  11.439  0.00  0.00    +0.174 A 
BRANCH  14  15
ATOM     15  C   UNL     1      -5.335  -8.716  10.089  0.00  0.00    +0.054 C 
ATOM     20  C   UNL     1      -4.030  -8.874   9.269  0.00  0.00    +0.015 C 
ATOM     21  C   UNL     1      -6.518  -9.286   9.263  0.00  0.00    +0.015 C 
ENDBRANCH  14  15
ENDBRANCH   7  12
BRANCH   9   1
ATOM      1  O   UNL     1      -3.000 -14.571  14.788  0.00  0.00    -0.390 OA
ATOM     24  H   UNL     1      -2.102 -14.243  14.610  0.00  0.00    +0.210 HD
ENDBRANCH   9   1
BRANCH   4  11
ATOM     11  C   UNL     1      -4.561 -10.348  16.307  0.00  0.00    +0.120 C 
BRANCH  11  13
ATOM     13  C   UNL     1      -5.655 -10.512  17.328  0.00  0.00    -0.033 A 
ATOM     16  C   UNL     1      -5.332 -10.734  18.666  0.00  0.00    +0.008 A 
ATOM     17  C   UNL     1      -6.991 -10.441  16.936  0.00  0.00    +0.008 A 
ATOM     18  C   UNL     1      -6.345 -10.887  19.613  0.00  0.00    +0.046 A 
ATOM     19  C   UNL     1      -8.005 -10.594  17.881  0.00  0.00    +0.046 A 
ATOM     22  C   UNL     1      -7.682 -10.816  19.220  0.00  0.00    +0.120 A 
BRANCH  22   3
ATOM      3  O   UNL     1      -8.671 -10.963  20.144  0.00  0.00    -0.495 OA
ATOM     23  C   UNL     1      -9.807 -11.738  19.760  0.00  0.00    +0.277 C 
ENDBRANCH  22   3
ENDBRANCH  11  13
ENDBRANCH   4  11
TORSDOF 6
ENDMDL
MODEL 10
REMARK VINA RESULT:      -5.3     23.123     25.796
REMARK  Name = 26744196
REMARK  9 active torsions:
REMARK  status: ('A' for Active; 'I' for Inactive)
REMARK    1  A    between atoms: O_1  and  C_9
REMARK    2  A    between atoms: O_3  and  C_22
REMARK    3  A    between atoms: O_3  and  C_23
REMARK    4  A    between atoms: N_4  and  C_11
REMARK    5  A    between atoms: C_7  and  C_12
REMARK    6  A    between atoms: C_11  and  C_13
REMARK    7  A    between atoms: C_14  and  C_15
REMARK    8  A    between atoms: C_15  and  C_20
REMARK    9  A    between atoms: C_15  and  C_21
REMARK                            x       y       z     vdW  Elec       q    Type
REMARK                         _______ _______ _______ _____ _____    ______ ____
ROOT
ATOM      4  N   UNL     1       8.784   8.914   4.680  0.00  0.00    -0.285 NA
ATOM      7  C   UNL     1       9.889   9.043   3.709  0.00  0.00    +0.149 C 
ATOM      8  C   UNL     1       9.876  10.524   3.291  0.00  0.00    +0.061 C 
ATOM      9  C   UNL     1       8.701  11.136   4.045  0.00  0.00    +0.130 C 
ATOM     10  C   UNL     1       7.807   9.946   4.336  0.00  0.00    +0.116 C 
ENDROOT
BRANCH   7  12
ATOM      2  O   UNL     1      12.147   8.160   3.392  0.00  0.00    -0.336 OA
ATOM      5  N   UNL     1      11.625   8.594   5.526  0.00  0.00    -0.194 NA
ATOM      6  N   UNL     1      13.276   7.819   4.145  0.00  0.00    -0.061 NA
ATOM     12  C   UNL     1      11.221   8.607   4.281  0.00  0.00    +0.245 A 
ATOM     14  C   UNL     1      12.891   8.102   5.393  0.00  0.00    +0.174 A 
BRANCH  14  15
ATOM     15  C   UNL     1      13.776   7.897   6.545  0.00  0.00    +0.054 C 
ATOM     20  C   UNL     1      13.464   6.601   7.336  0.00  0.00    +0.015 C 
ATOM     21  C   UNL     1      15.281   7.905   6.169  0.00  0.00    +0.015 C 
ENDBRANCH  14  15
ENDBRANCH   7  12
BRANCH   9   1
ATOM      1  O   UNL     1       8.044  12.105   3.250  0.00  0.00    -0.390 OA
ATOM     24  H   UNL     1       7.433  12.591   3.829  0.00  0.00    +0.210 HD
ENDBRANCH   9   1
BRANCH   4  11
ATOM     11  C   UNL     1       8.190   7.583   4.702  0.00  0.00    +0.120 C 
BRANCH  11  13
ATOM     13  C   UNL     1       8.704   6.760   5.853  0.00  0.00    -0.033 A 
ATOM     16  C   UNL     1       8.622   7.254   7.155  0.00  0.00    +0.008 A 
ATOM     17  C   UNL     1       9.262   5.504   5.618  0.00  0.00    +0.008 A 
ATOM     18  C   UNL     1       9.099   6.492   8.222  0.00  0.00    +0.046 A 
ATOM     19  C   UNL     1       9.739   4.741   6.685  0.00  0.00    +0.046 A 
ATOM     22  C   UNL     1       9.657   5.235   7.987  0.00  0.00    +0.120 A 
BRANCH  22   3
ATOM      3  O   UNL     1      10.121   4.490   9.028  0.00  0.00    -0.495 OA
ATOM     23  C   UNL     1       9.351   4.505  10.229  0.00  0.00    +0.277 C 
ENDBRANCH  22   3
ENDBRANCH  11  13
ENDBRANCH   4  11
TORSDOF 6
ENDMDL
