REMARK  Name = 26744552
REMARK  4 active torsions:
REMARK  status: ('A' for Active; 'I' for Inactive)
REMARK    1  A    between atoms: O_1  and  C_8
REMARK    2  A    between atoms: N_3  and  C_11
REMARK    3  A    between atoms: C_6  and  C_10
REMARK    4  A    between atoms: C_12  and  C_13
REMARK                            x       y       z     vdW  Elec       q    Type
REMARK                         _______ _______ _______ _____ _____    ______ ____
ROOT
ATOM      2  O   UNL     1      -0.355  -1.971  -0.717  0.00  0.00    -0.336 OA
ATOM      4  N   UNL     1       0.073   0.110  -0.007  0.00  0.00    -0.190 NA
ATOM      5  N   UNL     1       1.040  -1.853  -0.677  0.00  0.00    -0.056 NA
ATOM     10  C   UNL     1      -0.847  -0.772  -0.308  0.00  0.00    +0.245 A 
ATOM     12  C   UNL     1       1.214  -0.599  -0.249  0.00  0.00    +0.202 A 
ENDROOT
BRANCH  10   6
ATOM      3  N   UNL     1      -2.853  -0.269   1.077  0.00  0.00    -0.292 NA
ATOM      6  C   UNL     1      -2.354  -0.640  -0.263  0.00  0.00    +0.148 C 
ATOM      7  C   UNL     1      -2.885   0.462  -1.199  0.00  0.00    +0.061 C 
ATOM      8  C   UNL     1      -3.706   1.380  -0.303  0.00  0.00    +0.130 C 
ATOM      9  C   UNL     1      -4.084   0.489   0.866  0.00  0.00    +0.116 C 
ATOM     11  C   UNL     1      -3.058  -1.416   1.951  0.00  0.00    +0.105 C 
BRANCH   8   1
ATOM      1  O   UNL     1      -4.846   1.861  -0.987  0.00  0.00    -0.390 OA
ATOM     19  H   UNL     1      -4.534   2.357  -1.763  0.00  0.00    +0.210 HD
ENDBRANCH   8   1
ENDBRANCH  10   6
BRANCH  12  13
ATOM     13  C   UNL     1       2.514  -0.024  -0.054  0.00  0.00    +0.022 A 
ATOM     14  C   UNL     1       2.633   1.292   0.394  0.00  0.00    +0.012 A 
ATOM     15  C   UNL     1       3.657  -0.780  -0.311  0.00  0.00    +0.012 A 
ATOM     16  C   UNL     1       3.897   1.852   0.583  0.00  0.00    +0.001 A 
ATOM     17  C   UNL     1       4.920  -0.220  -0.122  0.00  0.00    +0.001 A 
ATOM     18  C   UNL     1       5.040   1.096   0.326  0.00  0.00    +0.000 A 
ENDBRANCH  12  13
TORSDOF 3
