MODEL 1
REMARK VINA RESULT:      -7.2      0.000      0.000
REMARK  Name = 11911867
REMARK  11 active torsions:
REMARK  status: ('A' for Active; 'I' for Inactive)
REMARK    1  A    between atoms: O_4  and  C_25
REMARK    2  A    between atoms: N_6  and  C_16
REMARK    3  A    between atoms: N_7  and  C_17
REMARK    4  A    between atoms: N_10  and  C_35
REMARK    5  A    between atoms: N_10  and  C_36
REMARK    6  A    between atoms: N_10  and  C_37
REMARK    7  A    between atoms: C_11  and  C_18
REMARK    8  A    between atoms: C_11  and  C_22
REMARK    9  A    between atoms: C_18  and  C_24
REMARK   10  A    between atoms: C_22  and  C_25
REMARK   11  A    between atoms: C_27  and  C_30
REMARK                            x       y       z     vdW  Elec       q    Type
REMARK                         _______ _______ _______ _____ _____    ______ ____
ROOT
ATOM      1  O   UNL     1      -2.608 -12.860  12.422  0.00  0.00    -0.370 OA
ATOM      2  O   UNL     1      -1.811  -9.944  13.191  0.00  0.00    -0.370 OA
ATOM     12  C   UNL     1      -2.827 -10.843  13.663  0.00  0.00    +0.171 C 
ATOM     13  C   UNL     1      -3.334 -11.620  12.463  0.00  0.00    +0.171 C 
ATOM     16  C   UNL     1      -2.222 -11.900  14.557  0.00  0.00    +0.130 C 
ATOM     17  C   UNL     1      -2.963 -10.756  11.280  0.00  0.00    +0.130 C 
ATOM     21  C   UNL     1      -1.731 -12.931  13.555  0.00  0.00    +0.185 C 
ATOM     23  C   UNL     1      -1.710 -10.049  11.764  0.00  0.00    +0.185 C 
ENDROOT
BRANCH  17   7
ATOM      7  N   UNL     1      -4.013  -9.794  11.023  0.00  0.00    -0.306 N 
ATOM      8  N   UNL     1      -4.407 -10.638   8.869  0.00  0.00    -0.214 NA
ATOM      9  N   UNL     1      -5.686  -8.783   9.725  0.00  0.00    -0.223 NA
ATOM     26  C   UNL     1      -4.723  -9.737   9.836  0.00  0.00    +0.216 A 
ATOM     27  C   UNL     1      -5.120 -10.554   7.726  0.00  0.00    +0.076 A 
ATOM     28  C   UNL     1      -6.358  -8.755   8.555  0.00  0.00    +0.116 A 
ATOM     29  C   UNL     1      -6.116  -9.624   7.511  0.00  0.00    +0.048 A 
ATOM     39  H   UNL     1      -4.291  -9.152  11.756  0.00  0.00    +0.149 HD
BRANCH  27  30
ATOM     30  C   UNL     1      -4.770 -11.519   6.713  0.00  0.00    +0.001 A 
ATOM     31  C   UNL     1      -5.168 -11.322   5.389  0.00  0.00    +0.012 A 
ATOM     32  C   UNL     1      -4.032 -12.655   7.053  0.00  0.00    +0.012 A 
ATOM     33  C   UNL     1      -4.831 -12.257   4.410  0.00  0.00    +0.024 A 
ATOM     34  C   UNL     1      -3.694 -13.590   6.074  0.00  0.00    +0.024 A 
ATOM     35  C   UNL     1      -4.094 -13.391   4.752  0.00  0.00    +0.029 A 
BRANCH  35  10
ATOM     10  N   UNL     1      -3.752 -14.335   3.762  0.00  0.00    -0.336 N 
ATOM     36  C   UNL     1      -3.926 -14.022   2.358  0.00  0.00    +0.129 C 
ATOM     37  C   UNL     1      -3.210 -15.627   4.136  0.00  0.00    +0.129 C 
ENDBRANCH  35  10
ENDBRANCH  27  30
ENDBRANCH  17   7
BRANCH  16   6
ATOM      3  O   UNL     1      -3.276 -10.719  16.979  0.00  0.00    -0.276 OA
ATOM      6  N   UNL     1      -3.210 -12.463  15.445  0.00  0.00    -0.308 N 
ATOM     24  C   UNL     1      -3.658 -11.820  16.591  0.00  0.00    +0.214 C 
ATOM     38  H   UNL     1      -3.542 -13.402  15.242  0.00  0.00    +0.149 HD
BRANCH  24  18
ATOM     18  C   UNL     1      -4.698 -12.646  17.326  0.00  0.00    +0.103 C 
BRANCH  18  11
ATOM     11  C   UNL     1      -5.953 -11.835  17.680  0.00  0.00    -0.011 C 
ATOM     14  C   UNL     1      -7.000 -12.739  18.372  0.00  0.00    +0.008 C 
ATOM     15  C   UNL     1      -5.620 -10.736  18.714  0.00  0.00    +0.008 C 
ATOM     19  C   UNL     1      -7.403 -12.003  19.644  0.00  0.00    +0.001 C 
ATOM     20  C   UNL     1      -6.135 -11.270  20.042  0.00  0.00    +0.001 C 
BRANCH  11  22
ATOM     22  C   UNL     1      -6.524 -11.212  16.400  0.00  0.00    +0.127 C 
BRANCH  22  25
ATOM      5  O   UNL     1      -7.615  -9.137  17.069  0.00  0.00    -0.251 OA
ATOM     25  C   UNL     1      -6.685  -9.726  16.540  0.00  0.00    +0.305 C 
BRANCH  25   4
ATOM      4  O   UNL     1      -5.617  -9.103  15.981  0.00  0.00    -0.481 OA
ATOM     40  H   UNL     1      -5.866  -8.594  15.181  0.00  0.00    +0.295 HD
ENDBRANCH  25   4
ENDBRANCH  22  25
ENDBRANCH  11  22
ENDBRANCH  18  11
ENDBRANCH  24  18
ENDBRANCH  16   6
TORSDOF 9
ENDMDL
MODEL 2
REMARK VINA RESULT:      -7.1      3.123      6.326
REMARK  Name = 11911867
REMARK  11 active torsions:
REMARK  status: ('A' for Active; 'I' for Inactive)
REMARK    1  A    between atoms: O_4  and  C_25
REMARK    2  A    between atoms: N_6  and  C_16
REMARK    3  A    between atoms: N_7  and  C_17
REMARK    4  A    between atoms: N_10  and  C_35
REMARK    5  A    between atoms: N_10  and  C_36
REMARK    6  A    between atoms: N_10  and  C_37
REMARK    7  A    between atoms: C_11  and  C_18
REMARK    8  A    between atoms: C_11  and  C_22
REMARK    9  A    between atoms: C_18  and  C_24
REMARK   10  A    between atoms: C_22  and  C_25
REMARK   11  A    between atoms: C_27  and  C_30
REMARK                            x       y       z     vdW  Elec       q    Type
REMARK                         _______ _______ _______ _____ _____    ______ ____
ROOT
ATOM      1  O   UNL     1      -7.119 -12.171  15.797  0.00  0.00    -0.370 OA
ATOM      2  O   UNL     1      -5.915 -12.571  18.647  0.00  0.00    -0.370 OA
ATOM     12  C   UNL     1      -6.456 -11.432  17.959  0.00  0.00    +0.171 C 
ATOM     13  C   UNL     1      -6.037 -11.543  16.505  0.00  0.00    +0.171 C 
ATOM     16  C   UNL     1      -7.965 -11.511  17.913  0.00  0.00    +0.130 C 
ATOM     17  C   UNL     1      -4.833 -12.454  16.536  0.00  0.00    +0.130 C 
ATOM     21  C   UNL     1      -8.208 -12.397  16.704  0.00  0.00    +0.185 C 
ATOM     23  C   UNL     1      -5.116 -13.339  17.736  0.00  0.00    +0.185 C 
ENDROOT
BRANCH  17   7
ATOM      7  N   UNL     1      -3.632 -11.679  16.759  0.00  0.00    -0.306 N 
ATOM      8  N   UNL     1      -3.324 -11.292  14.465  0.00  0.00    -0.214 NA
ATOM      9  N   UNL     1      -1.782 -10.400  16.088  0.00  0.00    -0.223 NA
ATOM     26  C   UNL     1      -2.891 -11.107  15.740  0.00  0.00    +0.216 A 
ATOM     27  C   UNL     1      -2.579 -10.720  13.497  0.00  0.00    +0.076 A 
ATOM     28  C   UNL     1      -1.083  -9.857  15.070  0.00  0.00    +0.116 A 
ATOM     29  C   UNL     1      -1.437  -9.985  13.742  0.00  0.00    +0.048 A 
ATOM     39  H   UNL     1      -3.329 -11.491  17.708  0.00  0.00    +0.149 HD
BRANCH  27  30
ATOM     30  C   UNL     1      -3.057 -10.928  12.152  0.00  0.00    +0.001 A 
ATOM     31  C   UNL     1      -3.308  -9.835  11.320  0.00  0.00    +0.012 A 
ATOM     32  C   UNL     1      -3.272 -12.224  11.676  0.00  0.00    +0.012 A 
ATOM     33  C   UNL     1      -3.773 -10.036  10.021  0.00  0.00    +0.024 A 
ATOM     34  C   UNL     1      -3.736 -12.426  10.376  0.00  0.00    +0.024 A 
ATOM     35  C   UNL     1      -3.986 -11.332   9.549  0.00  0.00    +0.029 A 
BRANCH  35  10
ATOM     10  N   UNL     1      -4.455 -11.535   8.234  0.00  0.00    -0.336 N 
ATOM     36  C   UNL     1      -4.312 -12.829   7.596  0.00  0.00    +0.129 C 
ATOM     37  C   UNL     1      -5.097 -10.457   7.509  0.00  0.00    +0.129 C 
ENDBRANCH  35  10
ENDBRANCH  27  30
ENDBRANCH  17   7
BRANCH  16   6
ATOM      3  O   UNL     1     -10.637 -10.675  18.644  0.00  0.00    -0.276 OA
ATOM      6  N   UNL     1      -8.552 -10.206  17.732  0.00  0.00    -0.308 N 
ATOM     24  C   UNL     1      -9.849  -9.894  18.116  0.00  0.00    +0.214 C 
ATOM     38  H   UNL     1      -7.999  -9.506  17.244  0.00  0.00    +0.149 HD
BRANCH  24  18
ATOM     18  C   UNL     1     -10.193  -8.449  17.806  0.00  0.00    +0.103 C 
BRANCH  18  11
ATOM     11  C   UNL     1     -10.846  -8.281  16.426  0.00  0.00    -0.011 C 
ATOM     14  C   UNL     1     -12.355  -7.975  16.578  0.00  0.00    +0.008 C 
ATOM     15  C   UNL     1     -10.256  -7.058  15.688  0.00  0.00    +0.008 C 
ATOM     19  C   UNL     1     -12.612  -6.739  15.725  0.00  0.00    +0.001 C 
ATOM     20  C   UNL     1     -11.309  -5.967  15.823  0.00  0.00    +0.001 C 
BRANCH  11  22
ATOM     22  C   UNL     1     -10.624  -9.559  15.608  0.00  0.00    +0.127 C 
BRANCH  22  25
ATOM      5  O   UNL     1     -10.032  -9.099  13.288  0.00  0.00    -0.251 OA
ATOM     25  C   UNL     1      -9.706  -9.312  14.446  0.00  0.00    +0.305 C 
BRANCH  25   4
ATOM      4  O   UNL     1      -8.418  -9.356  14.872  0.00  0.00    -0.481 OA
ATOM     40  H   UNL     1      -7.816  -9.710  14.183  0.00  0.00    +0.295 HD
ENDBRANCH  25   4
ENDBRANCH  22  25
ENDBRANCH  11  22
ENDBRANCH  18  11
ENDBRANCH  24  18
ENDBRANCH  16   6
TORSDOF 9
ENDMDL
MODEL 3
REMARK VINA RESULT:      -6.9      1.121      1.775
REMARK  Name = 11911867
REMARK  11 active torsions:
REMARK  status: ('A' for Active; 'I' for Inactive)
REMARK    1  A    between atoms: O_4  and  C_25
REMARK    2  A    between atoms: N_6  and  C_16
REMARK    3  A    between atoms: N_7  and  C_17
REMARK    4  A    between atoms: N_10  and  C_35
REMARK    5  A    between atoms: N_10  and  C_36
REMARK    6  A    between atoms: N_10  and  C_37
REMARK    7  A    between atoms: C_11  and  C_18
REMARK    8  A    between atoms: C_11  and  C_22
REMARK    9  A    between atoms: C_18  and  C_24
REMARK   10  A    between atoms: C_22  and  C_25
REMARK   11  A    between atoms: C_27  and  C_30
REMARK                            x       y       z     vdW  Elec       q    Type
REMARK                         _______ _______ _______ _____ _____    ______ ____
ROOT
ATOM      1  O   UNL     1      -2.689 -12.989  12.818  0.00  0.00    -0.370 OA
ATOM      2  O   UNL     1      -1.834 -10.017  13.235  0.00  0.00    -0.370 OA
ATOM     12  C   UNL     1      -2.845 -10.843  13.834  0.00  0.00    +0.171 C 
ATOM     13  C   UNL     1      -3.398 -11.740  12.743  0.00  0.00    +0.171 C 
ATOM     16  C   UNL     1      -2.224 -11.805  14.821  0.00  0.00    +0.130 C 
ATOM     17  C   UNL     1      -3.055 -11.019  11.461  0.00  0.00    +0.130 C 
ATOM     21  C   UNL     1      -1.777 -12.947  13.925  0.00  0.00    +0.185 C 
ATOM     23  C   UNL     1      -1.779 -10.282  11.826  0.00  0.00    +0.185 C 
ENDROOT
BRANCH  17   7
ATOM      7  N   UNL     1      -4.101 -10.075  11.130  0.00  0.00    -0.306 N 
ATOM      8  N   UNL     1      -4.326 -10.922   8.953  0.00  0.00    -0.214 NA
ATOM      9  N   UNL     1      -5.695  -9.092   9.717  0.00  0.00    -0.223 NA
ATOM     26  C   UNL     1      -4.726 -10.029   9.896  0.00  0.00    +0.216 A 
ATOM     27  C   UNL     1      -4.957 -10.849   7.762  0.00  0.00    +0.076 A 
ATOM     28  C   UNL     1      -6.283  -9.074   8.502  0.00  0.00    +0.116 A 
ATOM     29  C   UNL     1      -5.952  -9.936   7.477  0.00  0.00    +0.048 A 
ATOM     39  H   UNL     1      -4.442  -9.440  11.842  0.00  0.00    +0.149 HD
BRANCH  27  30
ATOM     30  C   UNL     1      -4.518 -11.806   6.776  0.00  0.00    +0.001 A 
ATOM     31  C   UNL     1      -4.692 -11.542   5.417  0.00  0.00    +0.012 A 
ATOM     32  C   UNL     1      -3.918 -13.002   7.179  0.00  0.00    +0.012 A 
ATOM     33  C   UNL     1      -4.270 -12.468   4.464  0.00  0.00    +0.024 A 
ATOM     34  C   UNL     1      -3.495 -13.928   6.225  0.00  0.00    +0.024 A 
ATOM     35  C   UNL     1      -3.671 -13.662   4.868  0.00  0.00    +0.029 A 
BRANCH  35  10
ATOM     10  N   UNL     1      -3.242 -14.598   3.904  0.00  0.00    -0.336 N 
ATOM     36  C   UNL     1      -2.350 -14.195   2.835  0.00  0.00    +0.129 C 
ATOM     37  C   UNL     1      -3.679 -15.979   3.978  0.00  0.00    +0.129 C 
ENDBRANCH  35  10
ENDBRANCH  27  30
ENDBRANCH  17   7
BRANCH  16   6
ATOM      3  O   UNL     1      -3.563 -10.201  16.823  0.00  0.00    -0.276 OA
ATOM      6  N   UNL     1      -3.191 -12.251  15.795  0.00  0.00    -0.308 N 
ATOM     24  C   UNL     1      -3.784 -11.405  16.722  0.00  0.00    +0.214 C 
ATOM     38  H   UNL     1      -3.393 -13.246  15.833  0.00  0.00    +0.149 HD
BRANCH  24  18
ATOM     18  C   UNL     1      -4.760 -12.148  17.615  0.00  0.00    +0.103 C 
BRANCH  18  11
ATOM     11  C   UNL     1      -6.213 -11.694  17.408  0.00  0.00    -0.011 C 
ATOM     14  C   UNL     1      -6.486 -11.433  15.908  0.00  0.00    +0.008 C 
ATOM     15  C   UNL     1      -7.198 -12.814  17.812  0.00  0.00    +0.008 C 
ATOM     19  C   UNL     1      -7.753 -12.214  15.579  0.00  0.00    +0.001 C 
ATOM     20  C   UNL     1      -7.672 -13.419  16.498  0.00  0.00    +0.001 C 
BRANCH  11  22
ATOM     22  C   UNL     1      -6.465 -10.431  18.240  0.00  0.00    +0.127 C 
BRANCH  22  25
ATOM      5  O   UNL     1      -6.006 -11.218  20.501  0.00  0.00    -0.251 OA
ATOM     25  C   UNL     1      -6.779 -10.771  19.668  0.00  0.00    +0.305 C 
BRANCH  25   4
ATOM      4  O   UNL     1      -8.086 -10.502  19.918  0.00  0.00    -0.481 OA
ATOM     40  H   UNL     1      -8.211 -10.070  20.790  0.00  0.00    +0.295 HD
ENDBRANCH  25   4
ENDBRANCH  22  25
ENDBRANCH  11  22
ENDBRANCH  18  11
ENDBRANCH  24  18
ENDBRANCH  16   6
TORSDOF 9
ENDMDL
MODEL 4
REMARK VINA RESULT:      -6.9     23.454     25.892
REMARK  Name = 11911867
REMARK  11 active torsions:
REMARK  status: ('A' for Active; 'I' for Inactive)
REMARK    1  A    between atoms: O_4  and  C_25
REMARK    2  A    between atoms: N_6  and  C_16
REMARK    3  A    between atoms: N_7  and  C_17
REMARK    4  A    between atoms: N_10  and  C_35
REMARK    5  A    between atoms: N_10  and  C_36
REMARK    6  A    between atoms: N_10  and  C_37
REMARK    7  A    between atoms: C_11  and  C_18
REMARK    8  A    between atoms: C_11  and  C_22
REMARK    9  A    between atoms: C_18  and  C_24
REMARK   10  A    between atoms: C_22  and  C_25
REMARK   11  A    between atoms: C_27  and  C_30
REMARK                            x       y       z     vdW  Elec       q    Type
REMARK                         _______ _______ _______ _____ _____    ______ ____
ROOT
ATOM      1  O   UNL     1       9.231   2.761  -3.703  0.00  0.00    -0.370 OA
ATOM      2  O   UNL     1      10.689   5.269  -4.852  0.00  0.00    -0.370 OA
ATOM     12  C   UNL     1      10.602   4.698  -3.536  0.00  0.00    +0.171 C 
ATOM     13  C   UNL     1       9.194   4.159  -3.371  0.00  0.00    +0.171 C 
ATOM     16  C   UNL     1      11.479   3.472  -3.434  0.00  0.00    +0.130 C 
ATOM     17  C   UNL     1       8.384   4.919  -4.395  0.00  0.00    +0.130 C 
ATOM     21  C   UNL     1      10.584   2.383  -4.000  0.00  0.00    +0.185 C 
ATOM     23  C   UNL     1       9.403   5.196  -5.485  0.00  0.00    +0.185 C 
ENDROOT
BRANCH  17   7
ATOM      7  N   UNL     1       7.909   6.162  -3.827  0.00  0.00    -0.306 N 
ATOM      8  N   UNL     1       5.676   5.678  -4.359  0.00  0.00    -0.214 NA
ATOM      9  N   UNL     1       6.265   7.731  -3.242  0.00  0.00    -0.223 NA
ATOM     26  C   UNL     1       6.577   6.534  -3.809  0.00  0.00    +0.216 A 
ATOM     27  C   UNL     1       4.386   6.073  -4.324  0.00  0.00    +0.076 A 
ATOM     28  C   UNL     1       4.957   8.062  -3.242  0.00  0.00    +0.116 A 
ATOM     29  C   UNL     1       3.964   7.266  -3.774  0.00  0.00    +0.048 A 
ATOM     39  H   UNL     1       8.566   6.783  -3.368  0.00  0.00    +0.149 HD
BRANCH  27  30
ATOM     30  C   UNL     1       3.446   5.149  -4.912  0.00  0.00    +0.001 A 
ATOM     31  C   UNL     1       3.722   4.562  -6.148  0.00  0.00    +0.012 A 
ATOM     32  C   UNL     1       2.257   4.840  -4.248  0.00  0.00    +0.012 A 
ATOM     33  C   UNL     1       2.813   3.671  -6.718  0.00  0.00    +0.024 A 
ATOM     34  C   UNL     1       1.348   3.949  -4.818  0.00  0.00    +0.024 A 
ATOM     35  C   UNL     1       1.626   3.364  -6.053  0.00  0.00    +0.029 A 
BRANCH  35  10
ATOM     10  N   UNL     1       0.707   2.462  -6.629  0.00  0.00    -0.336 N 
ATOM     36  C   UNL     1       0.328   2.589  -8.022  0.00  0.00    +0.129 C 
ATOM     37  C   UNL     1       0.139   1.388  -5.838  0.00  0.00    +0.129 C 
ENDBRANCH  35  10
ENDBRANCH  27  30
ENDBRANCH  17   7
BRANCH  16   6
ATOM      3  O   UNL     1      13.945   4.171  -2.091  0.00  0.00    -0.276 OA
ATOM      6  N   UNL     1      11.836   3.196  -2.064  0.00  0.00    -0.308 N 
ATOM     24  C   UNL     1      13.049   3.572  -1.502  0.00  0.00    +0.214 C 
ATOM     38  H   UNL     1      11.184   2.647  -1.510  0.00  0.00    +0.149 HD
BRANCH  24  18
ATOM     18  C   UNL     1      13.146   3.154  -0.047  0.00  0.00    +0.103 C 
BRANCH  18  11
ATOM     11  C   UNL     1      12.802   4.297   0.920  0.00  0.00    -0.011 C 
ATOM     14  C   UNL     1      11.957   5.375   0.199  0.00  0.00    +0.008 C 
ATOM     15  C   UNL     1      11.910   3.787   2.074  0.00  0.00    +0.008 C 
ATOM     19  C   UNL     1      10.746   5.613   1.093  0.00  0.00    +0.001 C 
ATOM     20  C   UNL     1      10.504   4.256   1.728  0.00  0.00    +0.001 C 
BRANCH  11  22
ATOM     22  C   UNL     1      14.102   4.896   1.470  0.00  0.00    +0.127 C 
BRANCH  22  25
ATOM      5  O   UNL     1      16.020   3.928   0.319  0.00  0.00    -0.251 OA
ATOM     25  C   UNL     1      15.260   3.962   1.274  0.00  0.00    +0.305 C 
BRANCH  25   4
ATOM      4  O   UNL     1      15.353   3.130   2.343  0.00  0.00    -0.481 OA
ATOM     40  H   UNL     1      16.107   3.365   2.926  0.00  0.00    +0.295 HD
ENDBRANCH  25   4
ENDBRANCH  22  25
ENDBRANCH  11  22
ENDBRANCH  18  11
ENDBRANCH  24  18
ENDBRANCH  16   6
TORSDOF 9
ENDMDL
MODEL 5
REMARK VINA RESULT:      -6.7      1.756      2.364
REMARK  Name = 11911867
REMARK  11 active torsions:
REMARK  status: ('A' for Active; 'I' for Inactive)
REMARK    1  A    between atoms: O_4  and  C_25
REMARK    2  A    between atoms: N_6  and  C_16
REMARK    3  A    between atoms: N_7  and  C_17
REMARK    4  A    between atoms: N_10  and  C_35
REMARK    5  A    between atoms: N_10  and  C_36
REMARK    6  A    between atoms: N_10  and  C_37
REMARK    7  A    between atoms: C_11  and  C_18
REMARK    8  A    between atoms: C_11  and  C_22
REMARK    9  A    between atoms: C_18  and  C_24
REMARK   10  A    between atoms: C_22  and  C_25
REMARK   11  A    between atoms: C_27  and  C_30
REMARK                            x       y       z     vdW  Elec       q    Type
REMARK                         _______ _______ _______ _____ _____    ______ ____
ROOT
ATOM      1  O   UNL     1      -2.942 -12.020  11.168  0.00  0.00    -0.370 OA
ATOM      2  O   UNL     1      -3.891  -9.048  11.202  0.00  0.00    -0.370 OA
ATOM     12  C   UNL     1      -4.408 -10.252  11.790  0.00  0.00    +0.171 C 
ATOM     13  C   UNL     1      -4.173 -11.375  10.797  0.00  0.00    +0.171 C 
ATOM     16  C   UNL     1      -3.585 -10.647  12.994  0.00  0.00    +0.130 C 
ATOM     17  C   UNL     1      -4.015 -10.669   9.471  0.00  0.00    +0.130 C 
ATOM     21  C   UNL     1      -2.433 -11.412  12.364  0.00  0.00    +0.185 C 
ATOM     23  C   UNL     1      -3.425  -9.330   9.875  0.00  0.00    +0.185 C 
ENDROOT
BRANCH  17   7
ATOM      7  N   UNL     1      -5.311 -10.479   8.855  0.00  0.00    -0.306 N 
ATOM      8  N   UNL     1      -4.619 -11.464   6.841  0.00  0.00    -0.214 NA
ATOM      9  N   UNL     1      -6.866 -10.635   7.105  0.00  0.00    -0.223 NA
ATOM     26  C   UNL     1      -5.607 -10.871   7.561  0.00  0.00    +0.216 A 
ATOM     27  C   UNL     1      -4.942 -11.834   5.584  0.00  0.00    +0.076 A 
ATOM     28  C   UNL     1      -7.120 -11.029   5.840  0.00  0.00    +0.116 A 
ATOM     29  C   UNL     1      -6.189 -11.639   5.025  0.00  0.00    +0.048 A 
ATOM     39  H   UNL     1      -6.069 -10.086   9.401  0.00  0.00    +0.149 HD
BRANCH  27  30
ATOM     30  C   UNL     1      -3.880 -12.461   4.837  0.00  0.00    +0.001 A 
ATOM     31  C   UNL     1      -3.873 -12.401   3.442  0.00  0.00    +0.012 A 
ATOM     32  C   UNL     1      -2.854 -13.132   5.506  0.00  0.00    +0.012 A 
ATOM     33  C   UNL     1      -2.847 -13.010   2.720  0.00  0.00    +0.024 A 
ATOM     34  C   UNL     1      -1.827 -13.741   4.784  0.00  0.00    +0.024 A 
ATOM     35  C   UNL     1      -1.823 -13.680   3.391  0.00  0.00    +0.029 A 
BRANCH  35  10
ATOM     10  N   UNL     1      -0.785 -14.294   2.661  0.00  0.00    -0.336 N 
ATOM     36  C   UNL     1       0.343 -14.890   3.349  0.00  0.00    +0.129 C 
ATOM     37  C   UNL     1      -0.839 -14.349   1.213  0.00  0.00    +0.129 C 
ENDBRANCH  35  10
ENDBRANCH  27  30
ENDBRANCH  17   7
BRANCH  16   6
ATOM      3  O   UNL     1      -2.915 -11.343  15.722  0.00  0.00    -0.276 OA
ATOM      6  N   UNL     1      -4.340 -11.486  13.892  0.00  0.00    -0.308 N 
ATOM     24  C   UNL     1      -3.939 -11.766  15.192  0.00  0.00    +0.214 C 
ATOM     38  H   UNL     1      -5.174 -11.936  13.524  0.00  0.00    +0.149 HD
BRANCH  24  18
ATOM     18  C   UNL     1      -4.930 -12.671  15.901  0.00  0.00    +0.103 C 
BRANCH  18  11
ATOM     11  C   UNL     1      -5.913 -11.890  16.785  0.00  0.00    -0.011 C 
ATOM     14  C   UNL     1      -6.412 -12.779  17.949  0.00  0.00    +0.008 C 
ATOM     15  C   UNL     1      -5.208 -10.694  17.463  0.00  0.00    +0.008 C 
ATOM     19  C   UNL     1      -6.201 -11.957  19.214  0.00  0.00    +0.001 C 
ATOM     20  C   UNL     1      -4.964 -11.136  18.898  0.00  0.00    +0.001 C 
BRANCH  11  22
ATOM     22  C   UNL     1      -7.085 -11.404  15.923  0.00  0.00    +0.127 C 
BRANCH  22  25
ATOM      5  O   UNL     1      -7.608  -9.151  16.691  0.00  0.00    -0.251 OA
ATOM     25  C   UNL     1      -7.131  -9.906  15.857  0.00  0.00    +0.305 C 
BRANCH  25   4
ATOM      4  O   UNL     1      -6.547  -9.488  14.705  0.00  0.00    -0.481 OA
ATOM     40  H   UNL     1      -7.108  -8.843  14.223  0.00  0.00    +0.295 HD
ENDBRANCH  25   4
ENDBRANCH  22  25
ENDBRANCH  11  22
ENDBRANCH  18  11
ENDBRANCH  24  18
ENDBRANCH  16   6
TORSDOF 9
ENDMDL
MODEL 6
REMARK VINA RESULT:      -6.6     22.766     26.500
REMARK  Name = 11911867
REMARK  11 active torsions:
REMARK  status: ('A' for Active; 'I' for Inactive)
REMARK    1  A    between atoms: O_4  and  C_25
REMARK    2  A    between atoms: N_6  and  C_16
REMARK    3  A    between atoms: N_7  and  C_17
REMARK    4  A    between atoms: N_10  and  C_35
REMARK    5  A    between atoms: N_10  and  C_36
REMARK    6  A    between atoms: N_10  and  C_37
REMARK    7  A    between atoms: C_11  and  C_18
REMARK    8  A    between atoms: C_11  and  C_22
REMARK    9  A    between atoms: C_18  and  C_24
REMARK   10  A    between atoms: C_22  and  C_25
REMARK   11  A    between atoms: C_27  and  C_30
REMARK                            x       y       z     vdW  Elec       q    Type
REMARK                         _______ _______ _______ _____ _____    ______ ____
ROOT
ATOM      1  O   UNL     1       6.604   6.236  -3.182  0.00  0.00    -0.370 OA
ATOM      2  O   UNL     1       8.479   6.840  -5.602  0.00  0.00    -0.370 OA
ATOM     12  C   UNL     1       7.581   5.761  -5.299  0.00  0.00    +0.171 C 
ATOM     13  C   UNL     1       7.672   5.504  -3.807  0.00  0.00    +0.171 C 
ATOM     16  C   UNL     1       6.148   6.193  -5.510  0.00  0.00    +0.130 C 
ATOM     17  C   UNL     1       9.008   6.087  -3.412  0.00  0.00    +0.130 C 
ATOM     21  C   UNL     1       5.817   6.879  -4.196  0.00  0.00    +0.185 C 
ATOM     23  C   UNL     1       9.187   7.216  -4.411  0.00  0.00    +0.185 C 
ENDROOT
BRANCH  17   7
ATOM      7  N   UNL     1      10.050   5.098  -3.584  0.00  0.00    -0.306 N 
ATOM      8  N   UNL     1      10.446   4.954  -1.275  0.00  0.00    -0.214 NA
ATOM      9  N   UNL     1      11.710   3.618  -2.833  0.00  0.00    -0.223 NA
ATOM     26  C   UNL     1      10.756   4.540  -2.533  0.00  0.00    +0.216 A 
ATOM     27  C   UNL     1      11.154   4.390  -0.275  0.00  0.00    +0.076 A 
ATOM     28  C   UNL     1      12.379   3.096  -1.785  0.00  0.00    +0.116 A 
ATOM     29  C   UNL     1      12.142   3.447  -0.471  0.00  0.00    +0.048 A 
ATOM     39  H   UNL     1      10.253   4.744  -4.512  0.00  0.00    +0.149 HD
BRANCH  27  30
ATOM     30  C   UNL     1      10.808   4.843   1.051  0.00  0.00    +0.001 A 
ATOM     31  C   UNL     1      10.143   6.058   1.225  0.00  0.00    +0.012 A 
ATOM     32  C   UNL     1      11.139   4.068   2.165  0.00  0.00    +0.012 A 
ATOM     33  C   UNL     1       9.811   6.497   2.507  0.00  0.00    +0.024 A 
ATOM     34  C   UNL     1      10.807   4.506   3.447  0.00  0.00    +0.024 A 
ATOM     35  C   UNL     1      10.143   5.721   3.618  0.00  0.00    +0.029 A 
BRANCH  35  10
ATOM     10  N   UNL     1       9.806   6.164   4.913  0.00  0.00    -0.336 N 
ATOM     36  C   UNL     1      10.780   6.107   5.985  0.00  0.00    +0.129 C 
ATOM     37  C   UNL     1       8.485   6.694   5.188  0.00  0.00    +0.129 C 
ENDBRANCH  35  10
ENDBRANCH  27  30
ENDBRANCH  17   7
BRANCH  16   6
ATOM      3  O   UNL     1       3.848   6.062  -7.262  0.00  0.00    -0.276 OA
ATOM      6  N   UNL     1       5.288   5.058  -5.739  0.00  0.00    -0.308 N 
ATOM     24  C   UNL     1       4.201   5.087  -6.603  0.00  0.00    +0.214 C 
ATOM     38  H   UNL     1       5.461   4.220  -5.190  0.00  0.00    +0.149 HD
BRANCH  24  18
ATOM     18  C   UNL     1       3.483   3.751  -6.646  0.00  0.00    +0.103 C 
BRANCH  18  11
ATOM     11  C   UNL     1       2.183   3.753  -5.828  0.00  0.00    -0.011 C 
ATOM     14  C   UNL     1       2.270   4.788  -4.682  0.00  0.00    +0.008 C 
ATOM     15  C   UNL     1       0.991   4.210  -6.698  0.00  0.00    +0.008 C 
ATOM     19  C   UNL     1       1.007   5.633  -4.794  0.00  0.00    +0.001 C 
ATOM     20  C   UNL     1       0.726   5.651  -6.285  0.00  0.00    +0.001 C 
BRANCH  11  22
ATOM     22  C   UNL     1       1.936   2.343  -5.277  0.00  0.00    +0.127 C 
BRANCH  22  25
ATOM      5  O   UNL     1      -0.091   1.410  -6.257  0.00  0.00    -0.251 OA
ATOM     25  C   UNL     1       0.482   1.979  -5.341  0.00  0.00    +0.305 C 
BRANCH  25   4
ATOM      4  O   UNL     1      -0.133   2.378  -4.198  0.00  0.00    -0.481 OA
ATOM     40  H   UNL     1      -0.216   1.646  -3.551  0.00  0.00    +0.295 HD
ENDBRANCH  25   4
ENDBRANCH  22  25
ENDBRANCH  11  22
ENDBRANCH  18  11
ENDBRANCH  24  18
ENDBRANCH  16   6
TORSDOF 9
ENDMDL
MODEL 7
REMARK VINA RESULT:      -6.6      3.299     11.257
REMARK  Name = 11911867
REMARK  11 active torsions:
REMARK  status: ('A' for Active; 'I' for Inactive)
REMARK    1  A    between atoms: O_4  and  C_25
REMARK    2  A    between atoms: N_6  and  C_16
REMARK    3  A    between atoms: N_7  and  C_17
REMARK    4  A    between atoms: N_10  and  C_35
REMARK    5  A    between atoms: N_10  and  C_36
REMARK    6  A    between atoms: N_10  and  C_37
REMARK    7  A    between atoms: C_11  and  C_18
REMARK    8  A    between atoms: C_11  and  C_22
REMARK    9  A    between atoms: C_18  and  C_24
REMARK   10  A    between atoms: C_22  and  C_25
REMARK   11  A    between atoms: C_27  and  C_30
REMARK                            x       y       z     vdW  Elec       q    Type
REMARK                         _______ _______ _______ _____ _____    ______ ____
ROOT
ATOM      1  O   UNL     1      -5.423 -12.493  10.551  0.00  0.00    -0.370 OA
ATOM      2  O   UNL     1      -4.233  -9.702   9.822  0.00  0.00    -0.370 OA
ATOM     12  C   UNL     1      -3.795 -11.050   9.586  0.00  0.00    +0.171 C 
ATOM     13  C   UNL     1      -4.158 -11.863  10.815  0.00  0.00    +0.171 C 
ATOM     16  C   UNL     1      -4.605 -11.681   8.477  0.00  0.00    +0.130 C 
ATOM     17  C   UNL     1      -4.304 -10.833  11.910  0.00  0.00    +0.130 C 
ATOM     21  C   UNL     1      -5.837 -12.176   9.214  0.00  0.00    +0.185 C 
ATOM     23  C   UNL     1      -4.768  -9.603  11.150  0.00  0.00    +0.185 C 
ENDROOT
BRANCH  17   7
ATOM      7  N   UNL     1      -3.020 -10.583  12.529  0.00  0.00    -0.306 N 
ATOM      8  N   UNL     1      -3.892 -10.838  14.693  0.00  0.00    -0.214 NA
ATOM      9  N   UNL     1      -1.560 -10.339  14.350  0.00  0.00    -0.223 NA
ATOM     26  C   UNL     1      -2.818 -10.587  13.898  0.00  0.00    +0.216 A 
ATOM     27  C   UNL     1      -3.659 -10.835  16.022  0.00  0.00    +0.076 A 
ATOM     28  C   UNL     1      -1.399 -10.349  15.689  0.00  0.00    +0.116 A 
ATOM     29  C   UNL     1      -2.421 -10.594  16.583  0.00  0.00    +0.048 A 
ATOM     39  H   UNL     1      -2.204 -10.446  11.945  0.00  0.00    +0.149 HD
BRANCH  27  30
ATOM     30  C   UNL     1      -4.811 -11.105  16.847  0.00  0.00    +0.001 A 
ATOM     31  C   UNL     1      -6.052 -11.353  16.257  0.00  0.00    +0.012 A 
ATOM     32  C   UNL     1      -4.691 -11.117  18.238  0.00  0.00    +0.012 A 
ATOM     33  C   UNL     1      -7.167 -11.611  17.055  0.00  0.00    +0.024 A 
ATOM     34  C   UNL     1      -5.805 -11.376  19.036  0.00  0.00    +0.024 A 
ATOM     35  C   UNL     1      -7.044 -11.623  18.444  0.00  0.00    +0.029 A 
BRANCH  35  10
ATOM     10  N   UNL     1      -8.170 -11.886  19.250  0.00  0.00    -0.336 N 
ATOM     36  C   UNL     1      -8.259 -13.117  20.010  0.00  0.00    +0.129 C 
ATOM     37  C   UNL     1      -9.250 -10.922  19.340  0.00  0.00    +0.129 C 
ENDBRANCH  35  10
ENDBRANCH  27  30
ENDBRANCH  17   7
BRANCH  16   6
ATOM      3  O   UNL     1      -5.243 -13.016   5.990  0.00  0.00    -0.276 OA
ATOM      6  N   UNL     1      -3.889 -12.772   7.862  0.00  0.00    -0.308 N 
ATOM     24  C   UNL     1      -4.271 -13.353   6.660  0.00  0.00    +0.214 C 
ATOM     38  H   UNL     1      -3.103 -13.165   8.374  0.00  0.00    +0.149 HD
BRANCH  24  18
ATOM     18  C   UNL     1      -3.331 -14.474   6.256  0.00  0.00    +0.103 C 
BRANCH  18  11
ATOM     11  C   UNL     1      -2.377 -14.065   5.124  0.00  0.00    -0.011 C 
ATOM     14  C   UNL     1      -0.906 -14.217   5.579  0.00  0.00    +0.008 C 
ATOM     15  C   UNL     1      -2.527 -15.013   3.913  0.00  0.00    +0.008 C 
ATOM     19  C   UNL     1      -0.221 -15.033   4.490  0.00  0.00    +0.001 C 
ATOM     20  C   UNL     1      -1.326 -15.944   3.985  0.00  0.00    +0.001 C 
BRANCH  11  22
ATOM     22  C   UNL     1      -2.678 -12.618   4.713  0.00  0.00    +0.127 C 
BRANCH  22  25
ATOM      5  O   UNL     1      -2.217 -12.510   2.322  0.00  0.00    -0.251 OA
ATOM     25  C   UNL     1      -3.009 -12.522   3.253  0.00  0.00    +0.305 C 
BRANCH  25   4
ATOM      4  O   UNL     1      -4.355 -12.449   3.100  0.00  0.00    -0.481 OA
ATOM     40  H   UNL     1      -4.681 -13.075   2.418  0.00  0.00    +0.295 HD
ENDBRANCH  25   4
ENDBRANCH  22  25
ENDBRANCH  11  22
ENDBRANCH  18  11
ENDBRANCH  24  18
ENDBRANCH  16   6
TORSDOF 9
ENDMDL
MODEL 8
REMARK VINA RESULT:      -6.6     25.669     28.848
REMARK  Name = 11911867
REMARK  11 active torsions:
REMARK  status: ('A' for Active; 'I' for Inactive)
REMARK    1  A    between atoms: O_4  and  C_25
REMARK    2  A    between atoms: N_6  and  C_16
REMARK    3  A    between atoms: N_7  and  C_17
REMARK    4  A    between atoms: N_10  and  C_35
REMARK    5  A    between atoms: N_10  and  C_36
REMARK    6  A    between atoms: N_10  and  C_37
REMARK    7  A    between atoms: C_11  and  C_18
REMARK    8  A    between atoms: C_11  and  C_22
REMARK    9  A    between atoms: C_18  and  C_24
REMARK   10  A    between atoms: C_22  and  C_25
REMARK   11  A    between atoms: C_27  and  C_30
REMARK                            x       y       z     vdW  Elec       q    Type
REMARK                         _______ _______ _______ _____ _____    ______ ____
ROOT
ATOM      1  O   UNL     1      18.379  -7.074  27.539  0.00  0.00    -0.370 OA
ATOM      2  O   UNL     1      16.956  -9.765  26.856  0.00  0.00    -0.370 OA
ATOM     12  C   UNL     1      16.735  -8.405  26.450  0.00  0.00    +0.171 C 
ATOM     13  C   UNL     1      17.018  -7.524  27.652  0.00  0.00    +0.171 C 
ATOM     16  C   UNL     1      17.772  -7.984  25.434  0.00  0.00    +0.130 C 
ATOM     17  C   UNL     1      16.869  -8.452  28.834  0.00  0.00    +0.130 C 
ATOM     21  C   UNL     1      18.938  -7.565  26.312  0.00  0.00    +0.185 C 
ATOM     23  C   UNL     1      17.275  -9.796  28.255  0.00  0.00    +0.185 C 
ENDROOT
BRANCH  17   7
ATOM      7  N   UNL     1      15.488  -8.489  29.263  0.00  0.00    -0.306 N 
ATOM      8  N   UNL     1      15.556  -6.275  30.037  0.00  0.00    -0.214 NA
ATOM      9  N   UNL     1      13.540  -7.585  30.209  0.00  0.00    -0.223 NA
ATOM     26  C   UNL     1      14.842  -7.418  29.854  0.00  0.00    +0.216 A 
ATOM     27  C   UNL     1      14.895  -5.250  30.616  0.00  0.00    +0.076 A 
ATOM     28  C   UNL     1      12.942  -6.521  30.783  0.00  0.00    +0.116 A 
ATOM     29  C   UNL     1      13.575  -5.317  31.014  0.00  0.00    +0.048 A 
ATOM     39  H   UNL     1      14.933  -9.318  29.084  0.00  0.00    +0.149 HD
BRANCH  27  30
ATOM     30  C   UNL     1      15.669  -4.048  30.800  0.00  0.00    +0.001 A 
ATOM     31  C   UNL     1      15.461  -3.244  31.923  0.00  0.00    +0.012 A 
ATOM     32  C   UNL     1      16.630  -3.681  29.855  0.00  0.00    +0.012 A 
ATOM     33  C   UNL     1      16.208  -2.080  32.099  0.00  0.00    +0.024 A 
ATOM     34  C   UNL     1      17.379  -2.517  30.031  0.00  0.00    +0.024 A 
ATOM     35  C   UNL     1      17.168  -1.717  31.154  0.00  0.00    +0.029 A 
BRANCH  35  10
ATOM     10  N   UNL     1      17.924  -0.540  31.333  0.00  0.00    -0.336 N 
ATOM     36  C   UNL     1      19.297  -0.472  30.871  0.00  0.00    +0.129 C 
ATOM     37  C   UNL     1      17.336   0.621  31.971  0.00  0.00    +0.129 C 
ENDBRANCH  35  10
ENDBRANCH  27  30
ENDBRANCH  17   7
BRANCH  16   6
ATOM      3  O   UNL     1      19.022  -6.876  23.070  0.00  0.00    -0.276 OA
ATOM      6  N   UNL     1      17.300  -6.882  24.631  0.00  0.00    -0.308 N 
ATOM     24  C   UNL     1      17.970  -6.417  23.507  0.00  0.00    +0.214 C 
ATOM     38  H   UNL     1      16.467  -6.393  24.948  0.00  0.00    +0.149 HD
BRANCH  24  18
ATOM     18  C   UNL     1      17.240  -5.253  22.862  0.00  0.00    +0.103 C 
BRANCH  18  11
ATOM     11  C   UNL     1      17.618  -3.901  23.485  0.00  0.00    -0.011 C 
ATOM     14  C   UNL     1      18.129  -2.930  22.393  0.00  0.00    +0.008 C 
ATOM     15  C   UNL     1      16.376  -3.211  24.091  0.00  0.00    +0.008 C 
ATOM     19  C   UNL     1      17.332  -1.645  22.581  0.00  0.00    +0.001 C 
ATOM     20  C   UNL     1      15.988  -2.135  23.088  0.00  0.00    +0.001 C 
BRANCH  11  22
ATOM     22  C   UNL     1      18.686  -4.127  24.562  0.00  0.00    +0.127 C 
BRANCH  22  25
ATOM      5  O   UNL     1      18.533  -2.263  26.125  0.00  0.00    -0.251 OA
ATOM     25  C   UNL     1      18.325  -3.433  25.843  0.00  0.00    +0.305 C 
BRANCH  25   4
ATOM      4  O   UNL     1      17.713  -4.313  26.676  0.00  0.00    -0.481 OA
ATOM     40  H   UNL     1      16.761  -4.108  26.790  0.00  0.00    +0.295 HD
ENDBRANCH  25   4
ENDBRANCH  22  25
ENDBRANCH  11  22
ENDBRANCH  18  11
ENDBRANCH  24  18
ENDBRANCH  16   6
TORSDOF 9
ENDMDL
MODEL 9
REMARK VINA RESULT:      -6.5      2.224      3.004
REMARK  Name = 11911867
REMARK  11 active torsions:
REMARK  status: ('A' for Active; 'I' for Inactive)
REMARK    1  A    between atoms: O_4  and  C_25
REMARK    2  A    between atoms: N_6  and  C_16
REMARK    3  A    between atoms: N_7  and  C_17
REMARK    4  A    between atoms: N_10  and  C_35
REMARK    5  A    between atoms: N_10  and  C_36
REMARK    6  A    between atoms: N_10  and  C_37
REMARK    7  A    between atoms: C_11  and  C_18
REMARK    8  A    between atoms: C_11  and  C_22
REMARK    9  A    between atoms: C_18  and  C_24
REMARK   10  A    between atoms: C_22  and  C_25
REMARK   11  A    between atoms: C_27  and  C_30
REMARK                            x       y       z     vdW  Elec       q    Type
REMARK                         _______ _______ _______ _____ _____    ______ ____
ROOT
ATOM      1  O   UNL     1      -4.659 -12.106  10.674  0.00  0.00    -0.370 OA
ATOM      2  O   UNL     1      -3.261  -9.337  11.010  0.00  0.00    -0.370 OA
ATOM     12  C   UNL     1      -4.213 -10.061  11.806  0.00  0.00    +0.171 C 
ATOM     13  C   UNL     1      -5.155 -10.767  10.849  0.00  0.00    +0.171 C 
ATOM     16  C   UNL     1      -3.531 -11.187  12.549  0.00  0.00    +0.130 C 
ATOM     17  C   UNL     1      -5.027  -9.989   9.562  0.00  0.00    +0.130 C 
ATOM     21  C   UNL     1      -3.508 -12.295  11.511  0.00  0.00    +0.185 C 
ATOM     23  C   UNL     1      -3.599  -9.477   9.623  0.00  0.00    +0.185 C 
ENDROOT
BRANCH  17   7
ATOM      7  N   UNL     1      -5.955  -8.879   9.560  0.00  0.00    -0.306 N 
ATOM      8  N   UNL     1      -6.680  -9.347   7.377  0.00  0.00    -0.214 NA
ATOM      9  N   UNL     1      -7.599  -7.495   8.616  0.00  0.00    -0.223 NA
ATOM     26  C   UNL     1      -6.769  -8.565   8.485  0.00  0.00    +0.216 A 
ATOM     27  C   UNL     1      -7.487  -9.012   6.349  0.00  0.00    +0.076 A 
ATOM     28  C   UNL     1      -8.377  -7.217   7.549  0.00  0.00    +0.116 A 
ATOM     29  C   UNL     1      -8.364  -7.947   6.379  0.00  0.00    +0.048 A 
ATOM     39  H   UNL     1      -6.067  -8.321  10.399  0.00  0.00    +0.149 HD
BRANCH  27  30
ATOM     30  C   UNL     1      -7.377  -9.856   5.184  0.00  0.00    +0.001 A 
ATOM     31  C   UNL     1      -6.373 -10.823   5.112  0.00  0.00    +0.012 A 
ATOM     32  C   UNL     1      -8.274  -9.707   4.124  0.00  0.00    +0.012 A 
ATOM     33  C   UNL     1      -6.265 -11.637   3.984  0.00  0.00    +0.024 A 
ATOM     34  C   UNL     1      -8.167 -10.522   2.996  0.00  0.00    +0.024 A 
ATOM     35  C   UNL     1      -7.163 -11.487   2.927  0.00  0.00    +0.029 A 
BRANCH  35  10
ATOM     10  N   UNL     1      -7.055 -12.310   1.787  0.00  0.00    -0.336 N 
ATOM     36  C   UNL     1      -6.035 -13.339   1.719  0.00  0.00    +0.129 C 
ATOM     37  C   UNL     1      -7.970 -12.148   0.674  0.00  0.00    +0.129 C 
ENDBRANCH  35  10
ENDBRANCH  27  30
ENDBRANCH  17   7
BRANCH  16   6
ATOM      3  O   UNL     1      -2.490 -11.914  15.149  0.00  0.00    -0.276 OA
ATOM      6  N   UNL     1      -4.286 -11.577  13.714  0.00  0.00    -0.308 N 
ATOM     24  C   UNL     1      -3.698 -11.911  14.927  0.00  0.00    +0.214 C 
ATOM     38  H   UNL     1      -5.294 -11.666  13.613  0.00  0.00    +0.149 HD
BRANCH  24  18
ATOM     18  C   UNL     1      -4.736 -12.276  15.972  0.00  0.00    +0.103 C 
BRANCH  18  11
ATOM     11  C   UNL     1      -4.804 -11.255  17.117  0.00  0.00    -0.011 C 
ATOM     14  C   UNL     1      -6.008 -11.563  18.040  0.00  0.00    +0.008 C 
ATOM     15  C   UNL     1      -3.559 -11.368  18.025  0.00  0.00    +0.008 C 
ATOM     19  C   UNL     1      -5.444 -11.592  19.455  0.00  0.00    +0.001 C 
ATOM     20  C   UNL     1      -4.033 -12.117  19.261  0.00  0.00    +0.001 C 
BRANCH  11  22
ATOM     22  C   UNL     1      -4.912  -9.845  16.526  0.00  0.00    +0.127 C 
BRANCH  22  25
ATOM      5  O   UNL     1      -7.227  -9.170  16.880  0.00  0.00    -0.251 OA
ATOM     25  C   UNL     1      -6.324  -9.521  16.136  0.00  0.00    +0.305 C 
BRANCH  25   4
ATOM      4  O   UNL     1      -6.468  -9.675  14.795  0.00  0.00    -0.481 OA
ATOM     40  H   UNL     1      -7.102 -10.390  14.573  0.00  0.00    +0.295 HD
ENDBRANCH  25   4
ENDBRANCH  22  25
ENDBRANCH  11  22
ENDBRANCH  18  11
ENDBRANCH  24  18
ENDBRANCH  16   6
TORSDOF 9
ENDMDL
MODEL 10
REMARK VINA RESULT:      -6.5      2.779     10.708
REMARK  Name = 11911867
REMARK  11 active torsions:
REMARK  status: ('A' for Active; 'I' for Inactive)
REMARK    1  A    between atoms: O_4  and  C_25
REMARK    2  A    between atoms: N_6  and  C_16
REMARK    3  A    between atoms: N_7  and  C_17
REMARK    4  A    between atoms: N_10  and  C_35
REMARK    5  A    between atoms: N_10  and  C_36
REMARK    6  A    between atoms: N_10  and  C_37
REMARK    7  A    between atoms: C_11  and  C_18
REMARK    8  A    between atoms: C_11  and  C_22
REMARK    9  A    between atoms: C_18  and  C_24
REMARK   10  A    between atoms: C_22  and  C_25
REMARK   11  A    between atoms: C_27  and  C_30
REMARK                            x       y       z     vdW  Elec       q    Type
REMARK                         _______ _______ _______ _____ _____    ______ ____
ROOT
ATOM      1  O   UNL     1      -5.826 -11.671  10.067  0.00  0.00    -0.370 OA
ATOM      2  O   UNL     1      -4.777  -8.733  10.106  0.00  0.00    -0.370 OA
ATOM     12  C   UNL     1      -4.331  -9.928   9.445  0.00  0.00    +0.171 C 
ATOM     13  C   UNL     1      -4.557 -11.083  10.402  0.00  0.00    +0.171 C 
ATOM     16  C   UNL     1      -5.225 -10.245   8.269  0.00  0.00    +0.130 C 
ATOM     17  C   UNL     1      -4.625 -10.429  11.762  0.00  0.00    +0.130 C 
ATOM     21  C   UNL     1      -6.370 -10.997   8.924  0.00  0.00    +0.185 C 
ATOM     23  C   UNL     1      -5.187  -9.055  11.443  0.00  0.00    +0.185 C 
ENDROOT
BRANCH  17   7
ATOM      7  N   UNL     1      -3.296 -10.308  12.320  0.00  0.00    -0.306 N 
ATOM      8  N   UNL     1      -4.062 -10.675  14.507  0.00  0.00    -0.214 NA
ATOM      9  N   UNL     1      -1.724 -10.296  14.062  0.00  0.00    -0.223 NA
ATOM     26  C   UNL     1      -3.019 -10.430  13.670  0.00  0.00    +0.216 A 
ATOM     27  C   UNL     1      -3.756 -10.789  15.817  0.00  0.00    +0.076 A 
ATOM     28  C   UNL     1      -1.490 -10.420  15.385  0.00  0.00    +0.116 A 
ATOM     29  C   UNL     1      -2.476 -10.669  16.318  0.00  0.00    +0.048 A 
ATOM     39  H   UNL     1      -2.505 -10.177  11.699  0.00  0.00    +0.149 HD
BRANCH  27  30
ATOM     30  C   UNL     1      -4.876 -11.050  16.687  0.00  0.00    +0.001 A 
ATOM     31  C   UNL     1      -6.155 -11.217  16.152  0.00  0.00    +0.012 A 
ATOM     32  C   UNL     1      -4.687 -11.135  18.068  0.00  0.00    +0.012 A 
ATOM     33  C   UNL     1      -7.239 -11.467  16.993  0.00  0.00    +0.024 A 
ATOM     34  C   UNL     1      -5.770 -11.386  18.910  0.00  0.00    +0.024 A 
ATOM     35  C   UNL     1      -7.047 -11.552  18.373  0.00  0.00    +0.029 A 
BRANCH  35  10
ATOM     10  N   UNL     1      -8.142 -11.806  19.223  0.00  0.00    -0.336 N 
ATOM     36  C   UNL     1      -8.178 -13.006  20.035  0.00  0.00    +0.129 C 
ATOM     37  C   UNL     1      -9.241 -10.863  19.307  0.00  0.00    +0.129 C 
ENDBRANCH  35  10
ENDBRANCH  27  30
ENDBRANCH  17   7
BRANCH  16   6
ATOM      3  O   UNL     1      -5.935 -10.637   5.491  0.00  0.00    -0.276 OA
ATOM      6  N   UNL     1      -4.543 -11.069   7.301  0.00  0.00    -0.308 N 
ATOM     24  C   UNL     1      -4.958 -11.197   5.982  0.00  0.00    +0.214 C 
ATOM     38  H   UNL     1      -3.757 -11.624   7.628  0.00  0.00    +0.149 HD
BRANCH  24  18
ATOM     18  C   UNL     1      -4.050 -12.125   5.197  0.00  0.00    +0.103 C 
BRANCH  18  11
ATOM     11  C   UNL     1      -4.478 -13.596   5.299  0.00  0.00    -0.011 C 
ATOM     14  C   UNL     1      -5.925 -13.699   5.838  0.00  0.00    +0.008 C 
ATOM     15  C   UNL     1      -4.519 -14.252   3.900  0.00  0.00    +0.008 C 
ATOM     19  C   UNL     1      -6.664 -14.607   4.862  0.00  0.00    +0.001 C 
ATOM     20  C   UNL     1      -5.994 -14.314   3.532  0.00  0.00    +0.001 C 
BRANCH  11  22
ATOM     22  C   UNL     1      -3.497 -14.341   6.213  0.00  0.00    +0.127 C 
BRANCH  22  25
ATOM      5  O   UNL     1      -4.787 -15.596   7.856  0.00  0.00    -0.251 OA
ATOM     25  C   UNL     1      -4.108 -14.627   7.553  0.00  0.00    +0.305 C 
BRANCH  25   4
ATOM      4  O   UNL     1      -3.791 -13.627   8.415  0.00  0.00    -0.481 OA
ATOM     40  H   UNL     1      -3.410 -13.971   9.251  0.00  0.00    +0.295 HD
ENDBRANCH  25   4
ENDBRANCH  22  25
ENDBRANCH  11  22
ENDBRANCH  18  11
ENDBRANCH  24  18
ENDBRANCH  16   6
TORSDOF 9
ENDMDL
