MODEL 1
REMARK VINA RESULT:      -7.3      0.000      0.000
REMARK  Name = 26744252
REMARK  5 active torsions:
REMARK  status: ('A' for Active; 'I' for Inactive)
REMARK    1  A    between atoms: O_3  and  C_12
REMARK    2  A    between atoms: N_4  and  C_16
REMARK    3  A    between atoms: C_7  and  C_14
REMARK    4  A    between atoms: C_8  and  C_15
REMARK    5  A    between atoms: C_16  and  C_17
REMARK                            x       y       z     vdW  Elec       q    Type
REMARK                         _______ _______ _______ _____ _____    ______ ____
ROOT
ATOM      4  N   UNL     1      12.927   8.028  21.120  0.00  0.00    -0.285 NA
ATOM      8  C   UNL     1      11.589   8.642  20.990  0.00  0.00    +0.149 C 
ATOM     11  C   UNL     1      10.601   7.507  21.314  0.00  0.00    +0.061 C 
ATOM     12  C   UNL     1      11.474   6.284  21.570  0.00  0.00    +0.130 C 
ATOM     13  C   UNL     1      12.759   6.606  20.828  0.00  0.00    +0.116 C 
ENDROOT
BRANCH   8  15
ATOM      2  O   UNL     1      11.495  11.066  21.292  0.00  0.00    -0.336 OA
ATOM      5  N   UNL     1      11.186   9.896  23.177  0.00  0.00    -0.194 NA
ATOM      6  N   UNL     1      11.299  12.010  22.308  0.00  0.00    -0.061 NA
ATOM     14  C   UNL     1      11.124  11.243  23.389  0.00  0.00    +0.175 A 
ATOM     15  C   UNL     1      11.412   9.848  21.888  0.00  0.00    +0.245 A 
BRANCH  14   7
ATOM      7  C   UNL     1      10.871  11.841  24.775  0.00  0.00    +0.060 C 
ATOM      9  C   UNL     1      10.694  13.325  24.899  0.00  0.00    +0.012 C 
ATOM     10  C   UNL     1      11.946  12.674  25.409  0.00  0.00    +0.012 C 
ENDBRANCH  14   7
ENDBRANCH   8  15
BRANCH  12   3
ATOM      3  O   UNL     1      10.858   5.115  21.068  0.00  0.00    -0.390 OA
ATOM     23  H   UNL     1       9.933   5.337  20.865  0.00  0.00    +0.210 HD
ENDBRANCH  12   3
BRANCH   4  16
ATOM     16  C   UNL     1      13.930   8.648  20.265  0.00  0.00    +0.120 C 
BRANCH  16  17
ATOM      1  F   UNL     1      18.677   5.621  20.052  0.00  0.00    -0.205 F 
ATOM     17  C   UNL     1      15.198   7.839  20.209  0.00  0.00    -0.033 A 
ATOM     18  C   UNL     1      15.435   6.988  19.129  0.00  0.00    +0.008 A 
ATOM     19  C   UNL     1      16.137   7.940  21.235  0.00  0.00    +0.008 A 
ATOM     20  C   UNL     1      16.610   6.239  19.075  0.00  0.00    +0.038 A 
ATOM     21  C   UNL     1      17.312   7.190  21.183  0.00  0.00    +0.038 A 
ATOM     22  C   UNL     1      17.548   6.340  20.102  0.00  0.00    +0.123 A 
ENDBRANCH  16  17
ENDBRANCH   4  16
TORSDOF 5
ENDMDL
MODEL 2
REMARK VINA RESULT:      -7.1      3.584      6.864
REMARK  Name = 26744252
REMARK  5 active torsions:
REMARK  status: ('A' for Active; 'I' for Inactive)
REMARK    1  A    between atoms: O_3  and  C_12
REMARK    2  A    between atoms: N_4  and  C_16
REMARK    3  A    between atoms: C_7  and  C_14
REMARK    4  A    between atoms: C_8  and  C_15
REMARK    5  A    between atoms: C_16  and  C_17
REMARK                            x       y       z     vdW  Elec       q    Type
REMARK                         _______ _______ _______ _____ _____    ______ ____
ROOT
ATOM      4  N   UNL     1      12.736   8.588  18.618  0.00  0.00    -0.285 NA
ATOM      8  C   UNL     1      13.739   7.569  18.244  0.00  0.00    +0.149 C 
ATOM     11  C   UNL     1      14.094   7.883  16.779  0.00  0.00    +0.061 C 
ATOM     12  C   UNL     1      13.209   9.065  16.403  0.00  0.00    +0.130 C 
ATOM     13  C   UNL     1      12.053   8.967  17.383  0.00  0.00    +0.116 C 
ENDROOT
BRANCH   8  15
ATOM      2  O   UNL     1      15.373   8.797  19.585  0.00  0.00    -0.336 OA
ATOM      5  N   UNL     1      15.660   6.575  19.600  0.00  0.00    -0.194 NA
ATOM      6  N   UNL     1      16.484   8.553  20.403  0.00  0.00    -0.061 NA
ATOM     14  C   UNL     1      16.591   7.222  20.362  0.00  0.00    +0.175 A 
ATOM     15  C   UNL     1      14.949   7.580  19.155  0.00  0.00    +0.245 A 
BRANCH  14   7
ATOM      7  C   UNL     1      17.688   6.472  21.121  0.00  0.00    +0.060 C 
ATOM      9  C   UNL     1      18.921   7.221  21.533  0.00  0.00    +0.012 C 
ATOM     10  C   UNL     1      18.993   6.208  20.429  0.00  0.00    +0.012 C 
ENDBRANCH  14   7
ENDBRANCH   8  15
BRANCH  12   3
ATOM      3  O   UNL     1      12.771   8.958  15.063  0.00  0.00    -0.390 OA
ATOM     23  H   UNL     1      11.798   8.976  15.072  0.00  0.00    +0.210 HD
ENDBRANCH  12   3
BRANCH   4  16
ATOM     16  C   UNL     1      11.806   8.130  19.640  0.00  0.00    +0.120 C 
BRANCH  16  17
ATOM      1  F   UNL     1      11.054  11.990  23.676  0.00  0.00    -0.205 F 
ATOM     17  C   UNL     1      11.606   9.161  20.719  0.00  0.00    -0.033 A 
ATOM     18  C   UNL     1      12.220  10.409  20.614  0.00  0.00    +0.008 A 
ATOM     19  C   UNL     1      10.805   8.869  21.823  0.00  0.00    +0.008 A 
ATOM     20  C   UNL     1      12.034  11.365  21.612  0.00  0.00    +0.038 A 
ATOM     21  C   UNL     1      10.619   9.825  22.823  0.00  0.00    +0.038 A 
ATOM     22  C   UNL     1      11.234  11.072  22.717  0.00  0.00    +0.123 A 
ENDBRANCH  16  17
ENDBRANCH   4  16
TORSDOF 5
ENDMDL
MODEL 3
REMARK VINA RESULT:      -7.0      3.070      5.064
REMARK  Name = 26744252
REMARK  5 active torsions:
REMARK  status: ('A' for Active; 'I' for Inactive)
REMARK    1  A    between atoms: O_3  and  C_12
REMARK    2  A    between atoms: N_4  and  C_16
REMARK    3  A    between atoms: C_7  and  C_14
REMARK    4  A    between atoms: C_8  and  C_15
REMARK    5  A    between atoms: C_16  and  C_17
REMARK                            x       y       z     vdW  Elec       q    Type
REMARK                         _______ _______ _______ _____ _____    ______ ____
ROOT
ATOM      4  N   UNL     1      13.259   7.752  20.411  0.00  0.00    -0.285 NA
ATOM      8  C   UNL     1      12.381   7.731  19.223  0.00  0.00    +0.149 C 
ATOM     11  C   UNL     1      11.118   8.501  19.652  0.00  0.00    +0.061 C 
ATOM     12  C   UNL     1      11.361   8.875  21.109  0.00  0.00    +0.130 C 
ATOM     13  C   UNL     1      12.379   7.850  21.574  0.00  0.00    +0.116 C 
ENDROOT
BRANCH   8  15
ATOM      2  O   UNL     1      13.016   7.575  16.867  0.00  0.00    -0.336 OA
ATOM      5  N   UNL     1      13.649   9.479  17.863  0.00  0.00    -0.194 NA
ATOM      6  N   UNL     1      13.677   8.325  15.887  0.00  0.00    -0.061 NA
ATOM     14  C   UNL     1      14.021   9.434  16.550  0.00  0.00    +0.175 A 
ATOM     15  C   UNL     1      13.043   8.327  17.999  0.00  0.00    +0.245 A 
BRANCH  14   7
ATOM      7  C   UNL     1      14.784  10.577  15.877  0.00  0.00    +0.060 C 
ATOM      9  C   UNL     1      14.561  11.978  16.365  0.00  0.00    +0.012 C 
ATOM     10  C   UNL     1      14.022  11.554  15.031  0.00  0.00    +0.012 C 
ENDBRANCH  14   7
ENDBRANCH   8  15
BRANCH  12   3
ATOM      3  O   UNL     1      10.161   8.798  21.853  0.00  0.00    -0.390 OA
ATOM     23  H   UNL     1       9.817   7.893  21.758  0.00  0.00    +0.210 HD
ENDBRANCH  12   3
BRANCH   4  16
ATOM     16  C   UNL     1      14.146   6.599  20.491  0.00  0.00    +0.120 C 
BRANCH  16  17
ATOM      1  F   UNL     1      19.541   8.131  21.026  0.00  0.00    -0.205 F 
ATOM     17  C   UNL     1      15.587   7.008  20.635  0.00  0.00    -0.033 A 
ATOM     18  C   UNL     1      16.593   6.231  20.061  0.00  0.00    +0.008 A 
ATOM     19  C   UNL     1      15.917   8.165  21.341  0.00  0.00    +0.008 A 
ATOM     20  C   UNL     1      17.929   6.610  20.193  0.00  0.00    +0.038 A 
ATOM     21  C   UNL     1      17.254   8.544  21.473  0.00  0.00    +0.038 A 
ATOM     22  C   UNL     1      18.259   7.766  20.899  0.00  0.00    +0.123 A 
ENDBRANCH  16  17
ENDBRANCH   4  16
TORSDOF 5
ENDMDL
MODEL 4
REMARK VINA RESULT:      -6.7      2.521      4.975
REMARK  Name = 26744252
REMARK  5 active torsions:
REMARK  status: ('A' for Active; 'I' for Inactive)
REMARK    1  A    between atoms: O_3  and  C_12
REMARK    2  A    between atoms: N_4  and  C_16
REMARK    3  A    between atoms: C_7  and  C_14
REMARK    4  A    between atoms: C_8  and  C_15
REMARK    5  A    between atoms: C_16  and  C_17
REMARK                            x       y       z     vdW  Elec       q    Type
REMARK                         _______ _______ _______ _____ _____    ______ ____
ROOT
ATOM      4  N   UNL     1      14.354   9.588  21.731  0.00  0.00    -0.285 NA
ATOM      8  C   UNL     1      12.889   9.781  21.720  0.00  0.00    +0.149 C 
ATOM     11  C   UNL     1      12.689  11.297  21.897  0.00  0.00    +0.061 C 
ATOM     12  C   UNL     1      14.095  11.866  22.043  0.00  0.00    +0.130 C 
ATOM     13  C   UNL     1      14.908  10.680  22.529  0.00  0.00    +0.116 C 
ENDROOT
BRANCH   8  15
ATOM      2  O   UNL     1      10.975   8.768  20.585  0.00  0.00    -0.336 OA
ATOM      5  N   UNL     1      12.724   9.174  19.246  0.00  0.00    -0.194 NA
ATOM      6  N   UNL     1      10.595   8.339  19.307  0.00  0.00    -0.061 NA
ATOM     14  C   UNL     1      11.678   8.611  18.573  0.00  0.00    +0.175 A 
ATOM     15  C   UNL     1      12.241   9.246  20.460  0.00  0.00    +0.245 A 
BRANCH  14   7
ATOM      7  C   UNL     1      11.739   8.310  17.074  0.00  0.00    +0.060 C 
ATOM      9  C   UNL     1      12.257   9.368  16.146  0.00  0.00    +0.012 C 
ATOM     10  C   UNL     1      10.796   9.028  16.154  0.00  0.00    +0.012 C 
ENDBRANCH  14   7
ENDBRANCH   8  15
BRANCH  12   3
ATOM      3  O   UNL     1      14.110  12.930  22.974  0.00  0.00    -0.390 OA
ATOM     23  H   UNL     1      14.662  12.652  23.726  0.00  0.00    +0.210 HD
ENDBRANCH  12   3
BRANCH   4  16
ATOM     16  C   UNL     1      14.759   8.282  22.234  0.00  0.00    +0.120 C 
BRANCH  16  17
ATOM      1  F   UNL     1      18.179   5.611  18.640  0.00  0.00    -0.205 F 
ATOM     17  C   UNL     1      15.673   7.569  21.273  0.00  0.00    -0.033 A 
ATOM     18  C   UNL     1      17.054   7.607  21.466  0.00  0.00    +0.008 A 
ATOM     19  C   UNL     1      15.139   6.869  20.192  0.00  0.00    +0.008 A 
ATOM     20  C   UNL     1      17.900   6.946  20.576  0.00  0.00    +0.038 A 
ATOM     21  C   UNL     1      15.985   6.208  19.301  0.00  0.00    +0.038 A 
ATOM     22  C   UNL     1      17.366   6.247  19.495  0.00  0.00    +0.123 A 
ENDBRANCH  16  17
ENDBRANCH   4  16
TORSDOF 5
ENDMDL
MODEL 5
REMARK VINA RESULT:      -6.6     25.161     27.343
REMARK  Name = 26744252
REMARK  5 active torsions:
REMARK  status: ('A' for Active; 'I' for Inactive)
REMARK    1  A    between atoms: O_3  and  C_12
REMARK    2  A    between atoms: N_4  and  C_16
REMARK    3  A    between atoms: C_7  and  C_14
REMARK    4  A    between atoms: C_8  and  C_15
REMARK    5  A    between atoms: C_16  and  C_17
REMARK                            x       y       z     vdW  Elec       q    Type
REMARK                         _______ _______ _______ _____ _____    ______ ____
ROOT
ATOM      4  N   UNL     1      -3.145 -10.563  14.296  0.00  0.00    -0.285 NA
ATOM      8  C   UNL     1      -3.423 -11.283  15.556  0.00  0.00    +0.149 C 
ATOM     11  C   UNL     1      -2.249 -10.923  16.484  0.00  0.00    +0.061 C 
ATOM     12  C   UNL     1      -1.340 -10.032  15.644  0.00  0.00    +0.130 C 
ATOM     13  C   UNL     1      -1.693 -10.413  14.217  0.00  0.00    +0.116 C 
ENDROOT
BRANCH   8  15
ATOM      2  O   UNL     1      -5.341 -11.850  16.961  0.00  0.00    -0.336 OA
ATOM      5  N   UNL     1      -5.480  -9.836  15.992  0.00  0.00    -0.194 NA
ATOM      6  N   UNL     1      -6.558 -11.299  17.381  0.00  0.00    -0.061 NA
ATOM     14  C   UNL     1      -6.568 -10.112  16.768  0.00  0.00    +0.175 A 
ATOM     15  C   UNL     1      -4.770 -10.924  16.148  0.00  0.00    +0.245 A 
BRANCH  14   7
ATOM      7  C   UNL     1      -7.729  -9.126  16.927  0.00  0.00    +0.060 C 
ATOM      9  C   UNL     1      -9.029  -9.627  17.483  0.00  0.00    +0.012 C 
ATOM     10  C   UNL     1      -8.924  -9.268  16.030  0.00  0.00    +0.012 C 
ENDBRANCH  14   7
ENDBRANCH   8  15
BRANCH  12   3
ATOM      3  O   UNL     1       0.020 -10.288  15.934  0.00  0.00    -0.390 OA
ATOM     23  H   UNL     1       0.063 -11.139  16.403  0.00  0.00    +0.210 HD
ENDBRANCH  12   3
BRANCH   4  16
ATOM     16  C   UNL     1      -3.692 -11.228  13.121  0.00  0.00    +0.120 C 
BRANCH  16  17
ATOM      1  F   UNL     1      -5.679  -7.542   9.351  0.00  0.00    -0.205 F 
ATOM     17  C   UNL     1      -4.222 -10.242  12.114  0.00  0.00    -0.033 A 
ATOM     18  C   UNL     1      -3.448  -9.890  11.008  0.00  0.00    +0.008 A 
ATOM     19  C   UNL     1      -5.488  -9.683  12.286  0.00  0.00    +0.008 A 
ATOM     20  C   UNL     1      -3.940  -8.978  10.075  0.00  0.00    +0.038 A 
ATOM     21  C   UNL     1      -5.980  -8.770  11.352  0.00  0.00    +0.038 A 
ATOM     22  C   UNL     1      -5.206  -8.418  10.247  0.00  0.00    +0.123 A 
ENDBRANCH  16  17
ENDBRANCH   4  16
TORSDOF 5
ENDMDL
MODEL 6
REMARK VINA RESULT:      -6.4      3.560      4.455
REMARK  Name = 26744252
REMARK  5 active torsions:
REMARK  status: ('A' for Active; 'I' for Inactive)
REMARK    1  A    between atoms: O_3  and  C_12
REMARK    2  A    between atoms: N_4  and  C_16
REMARK    3  A    between atoms: C_7  and  C_14
REMARK    4  A    between atoms: C_8  and  C_15
REMARK    5  A    between atoms: C_16  and  C_17
REMARK                            x       y       z     vdW  Elec       q    Type
REMARK                         _______ _______ _______ _____ _____    ______ ____
ROOT
ATOM      4  N   UNL     1      13.819   7.633  19.941  0.00  0.00    -0.285 NA
ATOM      8  C   UNL     1      13.397   8.119  21.271  0.00  0.00    +0.149 C 
ATOM     11  C   UNL     1      14.597   7.835  22.193  0.00  0.00    +0.061 C 
ATOM     12  C   UNL     1      15.626   7.148  21.302  0.00  0.00    +0.130 C 
ATOM     13  C   UNL     1      14.788   6.566  20.179  0.00  0.00    +0.116 C 
ENDROOT
BRANCH   8  15
ATOM      2  O   UNL     1      13.908  10.451  20.745  0.00  0.00    -0.336 OA
ATOM      5  N   UNL     1      11.894  10.142  21.677  0.00  0.00    -0.194 NA
ATOM      6  N   UNL     1      13.323  11.720  20.838  0.00  0.00    -0.061 NA
ATOM     14  C   UNL     1      12.138  11.456  21.398  0.00  0.00    +0.175 A 
ATOM     15  C   UNL     1      13.000   9.580  21.259  0.00  0.00    +0.245 A 
BRANCH  14   7
ATOM      7  C   UNL     1      11.122  12.559  21.705  0.00  0.00    +0.060 C 
ATOM      9  C   UNL     1      11.603  13.976  21.803  0.00  0.00    +0.012 C 
ATOM     10  C   UNL     1      11.180  13.241  23.040  0.00  0.00    +0.012 C 
ENDBRANCH  14   7
ENDBRANCH   8  15
BRANCH  12   3
ATOM      3  O   UNL     1      16.317   6.143  22.017  0.00  0.00    -0.390 OA
ATOM     23  H   UNL     1      16.080   6.238  22.956  0.00  0.00    +0.210 HD
ENDBRANCH  12   3
BRANCH   4  16
ATOM     16  C   UNL     1      12.707   7.189  19.112  0.00  0.00    +0.120 C 
BRANCH  16  17
ATOM      1  F   UNL     1      12.098  10.395  14.519  0.00  0.00    -0.205 F 
ATOM     17  C   UNL     1      12.544   8.045  17.884  0.00  0.00    -0.033 A 
ATOM     18  C   UNL     1      11.280   8.229  17.324  0.00  0.00    +0.008 A 
ATOM     19  C   UNL     1      13.657   8.656  17.307  0.00  0.00    +0.008 A 
ATOM     20  C   UNL     1      11.129   9.022  16.187  0.00  0.00    +0.038 A 
ATOM     21  C   UNL     1      13.507   9.450  16.170  0.00  0.00    +0.038 A 
ATOM     22  C   UNL     1      12.242   9.632  15.610  0.00  0.00    +0.123 A 
ENDBRANCH  16  17
ENDBRANCH   4  16
TORSDOF 5
ENDMDL
MODEL 7
REMARK VINA RESULT:      -6.1      3.669      7.264
REMARK  Name = 26744252
REMARK  5 active torsions:
REMARK  status: ('A' for Active; 'I' for Inactive)
REMARK    1  A    between atoms: O_3  and  C_12
REMARK    2  A    between atoms: N_4  and  C_16
REMARK    3  A    between atoms: C_7  and  C_14
REMARK    4  A    between atoms: C_8  and  C_15
REMARK    5  A    between atoms: C_16  and  C_17
REMARK                            x       y       z     vdW  Elec       q    Type
REMARK                         _______ _______ _______ _____ _____    ______ ____
ROOT
ATOM      4  N   UNL     1      14.293   7.853  20.202  0.00  0.00    -0.285 NA
ATOM      8  C   UNL     1      15.301   6.848  19.803  0.00  0.00    +0.149 C 
ATOM     11  C   UNL     1      15.263   6.841  18.264  0.00  0.00    +0.061 C 
ATOM     12  C   UNL     1      14.174   7.840  17.891  0.00  0.00    +0.130 C 
ATOM     13  C   UNL     1      13.299   7.889  19.131  0.00  0.00    +0.116 C 
ENDROOT
BRANCH   8  15
ATOM      2  O   UNL     1      16.793   8.277  21.110  0.00  0.00    -0.336 OA
ATOM      5  N   UNL     1      17.794   6.486  20.212  0.00  0.00    -0.194 NA
ATOM      6  N   UNL     1      18.136   8.344  21.502  0.00  0.00    -0.061 NA
ATOM     14  C   UNL     1      18.661   7.255  20.934  0.00  0.00    +0.175 A 
ATOM     15  C   UNL     1      16.678   7.154  20.355  0.00  0.00    +0.245 A 
BRANCH  14   7
ATOM      7  C   UNL     1      20.141   6.895  21.084  0.00  0.00    +0.060 C 
ATOM      9  C   UNL     1      20.571   5.483  20.813  0.00  0.00    +0.012 C 
ATOM     10  C   UNL     1      20.556   6.007  22.219  0.00  0.00    +0.012 C 
ENDBRANCH  14   7
ENDBRANCH   8  15
BRANCH  12   3
ATOM      3  O   UNL     1      13.454   7.396  16.758  0.00  0.00    -0.390 OA
ATOM     23  H   UNL     1      12.590   7.844  16.768  0.00  0.00    +0.210 HD
ENDBRANCH  12   3
BRANCH   4  16
ATOM     16  C   UNL     1      13.690   7.579  21.499  0.00  0.00    +0.120 C 
BRANCH  16  17
ATOM      1  F   UNL     1      10.546  11.892  23.305  0.00  0.00    -0.205 F 
ATOM     17  C   UNL     1      12.850   8.731  21.983  0.00  0.00    -0.033 A 
ATOM     18  C   UNL     1      13.444   9.966  22.242  0.00  0.00    +0.008 A 
ATOM     19  C   UNL     1      11.479   8.564  22.170  0.00  0.00    +0.008 A 
ATOM     20  C   UNL     1      12.666  11.034  22.689  0.00  0.00    +0.038 A 
ATOM     21  C   UNL     1      10.700   9.632  22.617  0.00  0.00    +0.038 A 
ATOM     22  C   UNL     1      11.294  10.867  22.877  0.00  0.00    +0.123 A 
ENDBRANCH  16  17
ENDBRANCH   4  16
TORSDOF 5
ENDMDL
MODEL 8
REMARK VINA RESULT:      -6.1     16.067     18.637
REMARK  Name = 26744252
REMARK  5 active torsions:
REMARK  status: ('A' for Active; 'I' for Inactive)
REMARK    1  A    between atoms: O_3  and  C_12
REMARK    2  A    between atoms: N_4  and  C_16
REMARK    3  A    between atoms: C_7  and  C_14
REMARK    4  A    between atoms: C_8  and  C_15
REMARK    5  A    between atoms: C_16  and  C_17
REMARK                            x       y       z     vdW  Elec       q    Type
REMARK                         _______ _______ _______ _____ _____    ______ ____
ROOT
ATOM      4  N   UNL     1      10.892   7.649   4.813  0.00  0.00    -0.285 NA
ATOM      8  C   UNL     1      11.025   7.616   3.341  0.00  0.00    +0.149 C 
ATOM     11  C   UNL     1      12.199   8.562   3.030  0.00  0.00    +0.061 C 
ATOM     12  C   UNL     1      12.631   9.114   4.384  0.00  0.00    +0.130 C 
ATOM     13  C   UNL     1      11.390   8.954   5.243  0.00  0.00    +0.116 C 
ENDROOT
BRANCH   8  15
ATOM      2  O   UNL     1      10.129   5.484   2.547  0.00  0.00    -0.336 OA
ATOM      5  N   UNL     1      12.367   5.591   2.555  0.00  0.00    -0.194 NA
ATOM      6  N   UNL     1      10.580   4.247   2.070  0.00  0.00    -0.061 NA
ATOM     14  C   UNL     1      11.908   4.387   2.103  0.00  0.00    +0.175 A 
ATOM     15  C   UNL     1      11.244   6.215   2.808  0.00  0.00    +0.245 A 
BRANCH  14   7
ATOM      7  C   UNL     1      12.853   3.266   1.664  0.00  0.00    +0.060 C 
ATOM      9  C   UNL     1      14.321   3.559   1.563  0.00  0.00    +0.012 C 
ATOM     10  C   UNL     1      13.509   3.362   0.318  0.00  0.00    +0.012 C 
ENDBRANCH  14   7
ENDBRANCH   8  15
BRANCH  12   3
ATOM      3  O   UNL     1      13.020  10.469   4.272  0.00  0.00    -0.390 OA
ATOM     23  H   UNL     1      12.912  10.727   3.340  0.00  0.00    +0.210 HD
ENDBRANCH  12   3
BRANCH   4  16
ATOM     16  C   UNL     1       9.532   7.403   5.272  0.00  0.00    +0.120 C 
BRANCH  16  17
ATOM      1  F   UNL     1       9.425   4.117   9.848  0.00  0.00    -0.205 F 
ATOM     17  C   UNL     1       9.502   6.525   6.495  0.00  0.00    -0.033 A 
ATOM     18  C   UNL     1       9.928   5.199   6.411  0.00  0.00    +0.008 A 
ATOM     19  C   UNL     1       9.052   7.037   7.711  0.00  0.00    +0.008 A 
ATOM     20  C   UNL     1       9.901   4.385   7.544  0.00  0.00    +0.038 A 
ATOM     21  C   UNL     1       9.025   6.223   8.844  0.00  0.00    +0.038 A 
ATOM     22  C   UNL     1       9.450   4.897   8.760  0.00  0.00    +0.123 A 
ENDBRANCH  16  17
ENDBRANCH   4  16
TORSDOF 5
ENDMDL
MODEL 9
REMARK VINA RESULT:      -6.0     26.580     27.963
REMARK  Name = 26744252
REMARK  5 active torsions:
REMARK  status: ('A' for Active; 'I' for Inactive)
REMARK    1  A    between atoms: O_3  and  C_12
REMARK    2  A    between atoms: N_4  and  C_16
REMARK    3  A    between atoms: C_7  and  C_14
REMARK    4  A    between atoms: C_8  and  C_15
REMARK    5  A    between atoms: C_16  and  C_17
REMARK                            x       y       z     vdW  Elec       q    Type
REMARK                         _______ _______ _______ _____ _____    ______ ____
ROOT
ATOM      4  N   UNL     1      -3.408 -11.739  14.345  0.00  0.00    -0.285 NA
ATOM      8  C   UNL     1      -2.323 -11.754  13.341  0.00  0.00    +0.149 C 
ATOM     11  C   UNL     1      -2.276 -13.207  12.834  0.00  0.00    +0.061 C 
ATOM     12  C   UNL     1      -3.338 -13.943  13.642  0.00  0.00    +0.130 C 
ATOM     13  C   UNL     1      -3.484 -13.093  14.891  0.00  0.00    +0.116 C 
ENDROOT
BRANCH   8  15
ATOM      2  O   UNL     1      -1.440 -10.124  11.749  0.00  0.00    -0.336 OA
ATOM      5  N   UNL     1      -3.662 -10.392  11.648  0.00  0.00    -0.194 NA
ATOM      6  N   UNL     1      -1.891  -9.261  10.742  0.00  0.00    -0.061 NA
ATOM     14  C   UNL     1      -3.210  -9.476  10.742  0.00  0.00    +0.175 A 
ATOM     15  C   UNL     1      -2.545 -10.752  12.228  0.00  0.00    +0.245 A 
BRANCH  14   7
ATOM      7  C   UNL     1      -4.152  -8.739   9.787  0.00  0.00    +0.060 C 
ATOM      9  C   UNL     1      -5.592  -9.156   9.731  0.00  0.00    +0.012 C 
ATOM     10  C   UNL     1      -4.676  -9.469   8.585  0.00  0.00    +0.012 C 
ENDBRANCH  14   7
ENDBRANCH   8  15
BRANCH  12   3
ATOM      3  O   UNL     1      -2.916 -15.257  13.948  0.00  0.00    -0.390 OA
ATOM     23  H   UNL     1      -2.765 -15.299  14.908  0.00  0.00    +0.210 HD
ENDBRANCH  12   3
BRANCH   4  16
ATOM     16  C   UNL     1      -3.214 -10.739  15.386  0.00  0.00    +0.120 C 
BRANCH  16  17
ATOM      1  F   UNL     1      -7.890  -9.925  18.421  0.00  0.00    -0.205 F 
ATOM     17  C   UNL     1      -4.463 -10.522  16.196  0.00  0.00    -0.033 A 
ATOM     18  C   UNL     1      -4.525 -10.970  17.516  0.00  0.00    +0.008 A 
ATOM     19  C   UNL     1      -5.559  -9.873  15.629  0.00  0.00    +0.008 A 
ATOM     20  C   UNL     1      -5.683 -10.768  18.268  0.00  0.00    +0.038 A 
ATOM     21  C   UNL     1      -6.718  -9.671  16.381  0.00  0.00    +0.038 A 
ATOM     22  C   UNL     1      -6.779 -10.120  17.700  0.00  0.00    +0.123 A 
ENDBRANCH  16  17
ENDBRANCH   4  16
TORSDOF 5
ENDMDL
MODEL 10
REMARK VINA RESULT:      -6.0     16.849     19.182
REMARK  Name = 26744252
REMARK  5 active torsions:
REMARK  status: ('A' for Active; 'I' for Inactive)
REMARK    1  A    between atoms: O_3  and  C_12
REMARK    2  A    between atoms: N_4  and  C_16
REMARK    3  A    between atoms: C_7  and  C_14
REMARK    4  A    between atoms: C_8  and  C_15
REMARK    5  A    between atoms: C_16  and  C_17
REMARK                            x       y       z     vdW  Elec       q    Type
REMARK                         _______ _______ _______ _____ _____    ______ ____
ROOT
ATOM      4  N   UNL     1       8.983   8.060   3.741  0.00  0.00    -0.285 NA
ATOM      8  C   UNL     1       9.299   7.561   2.387  0.00  0.00    +0.149 C 
ATOM     11  C   UNL     1       9.623   8.824   1.567  0.00  0.00    +0.061 C 
ATOM     12  C   UNL     1       9.418   9.985   2.533  0.00  0.00    +0.130 C 
ATOM     13  C   UNL     1       8.468   9.417   3.572  0.00  0.00    +0.116 C 
ENDROOT
BRANCH   8  15
ATOM      2  O   UNL     1      11.596   6.952   2.963  0.00  0.00    -0.336 OA
ATOM      5  N   UNL     1      10.459   5.339   1.904  0.00  0.00    -0.194 NA
ATOM      6  N   UNL     1      12.476   5.870   2.844  0.00  0.00    -0.061 NA
ATOM     14  C   UNL     1      11.734   4.958   2.209  0.00  0.00    +0.175 A 
ATOM     15  C   UNL     1      10.432   6.555   2.386  0.00  0.00    +0.245 A 
BRANCH  14   7
ATOM      7  C   UNL     1      12.282   3.575   1.847  0.00  0.00    +0.060 C 
ATOM      9  C   UNL     1      13.757   3.419   1.625  0.00  0.00    +0.012 C 
ATOM     10  C   UNL     1      12.812   3.349   0.462  0.00  0.00    +0.012 C 
ENDBRANCH  14   7
ENDBRANCH   8  15
BRANCH  12   3
ATOM      3  O   UNL     1       8.861  11.099   1.866  0.00  0.00    -0.390 OA
ATOM     23  H   UNL     1       9.596  11.604   1.477  0.00  0.00    +0.210 HD
ENDBRANCH  12   3
BRANCH   4  16
ATOM     16  C   UNL     1       8.050   7.206   4.465  0.00  0.00    +0.120 C 
BRANCH  16  17
ATOM      1  F   UNL     1      10.175   5.477   9.388  0.00  0.00    -0.205 F 
ATOM     17  C   UNL     1       8.617   6.744   5.780  0.00  0.00    -0.033 A 
ATOM     18  C   UNL     1       9.324   5.543   5.852  0.00  0.00    +0.008 A 
ATOM     19  C   UNL     1       8.437   7.516   6.927  0.00  0.00    +0.008 A 
ATOM     20  C   UNL     1       9.850   5.115   7.071  0.00  0.00    +0.038 A 
ATOM     21  C   UNL     1       8.964   7.088   8.147  0.00  0.00    +0.038 A 
ATOM     22  C   UNL     1       9.670   5.887   8.218  0.00  0.00    +0.123 A 
ENDBRANCH  16  17
ENDBRANCH   4  16
TORSDOF 5
ENDMDL
