MODEL 1
REMARK VINA RESULT:      -8.2      0.000      0.000
REMARK  Name = 45783320
REMARK  7 active torsions:
REMARK  status: ('A' for Active; 'I' for Inactive)
REMARK    1  A    between atoms: O_3  and  C_27
REMARK    2  A    between atoms: O_3  and  C_34
REMARK    3  A    between atoms: N_4  and  C_15
REMARK    4  A    between atoms: C_10  and  C_18
REMARK    5  A    between atoms: C_14  and  C_23
REMARK    6  A    between atoms: C_15  and  C_21
REMARK    7  A    between atoms: C_24  and  C_26
REMARK                            x       y       z     vdW  Elec       q    Type
REMARK                         _______ _______ _______ _____ _____    ______ ____
ROOT
ATOM      1  O   UNL     1      20.436   8.174  23.115  0.00  0.00    -0.336 OA
ATOM      6  N   UNL     1      19.910   6.227  22.141  0.00  0.00    -0.190 NA
ATOM      7  N   UNL     1      19.313   8.429  22.316  0.00  0.00    -0.056 NA
ATOM     18  C   UNL     1      20.721   6.856  22.954  0.00  0.00    +0.245 A 
ATOM     24  C   UNL     1      19.064   7.233  21.774  0.00  0.00    +0.202 A 
ENDROOT
BRANCH  24  26
ATOM      5  N   UNL     1      14.591   8.199  20.238  0.00  0.00    -0.315 N 
ATOM      8  N   UNL     1      15.867   6.574  19.082  0.00  0.00    -0.240 NA
ATOM     14  C   UNL     1      12.122   9.681  20.609  0.00  0.00    +0.078 C 
ATOM     16  C   UNL     1      12.911   9.743  19.303  0.00  0.00    +0.031 C 
ATOM     17  C   UNL     1      13.021   9.298  21.782  0.00  0.00    +0.031 C 
ATOM     19  C   UNL     1      13.779   8.507  19.057  0.00  0.00    +0.107 C 
ATOM     20  C   UNL     1      13.863   8.054  21.505  0.00  0.00    +0.107 C 
ATOM     22  C   UNL     1      15.778   7.471  20.089  0.00  0.00    +0.122 A 
ATOM     25  C   UNL     1      16.794   7.724  20.996  0.00  0.00    +0.055 A 
ATOM     26  C   UNL     1      17.978   7.009  20.862  0.00  0.00    +0.027 A 
ATOM     29  C   UNL     1      18.109   6.076  19.839  0.00  0.00    +0.031 A 
ATOM     31  C   UNL     1      17.034   5.897  18.984  0.00  0.00    +0.113 A 
BRANCH  14  23
ATOM      2  O   UNL     1      10.525   8.355  19.420  0.00  0.00    -0.276 OA
ATOM      9  N   UNL     1      10.433   8.369  21.719  0.00  0.00    -0.329 N 
ATOM     23  C   UNL     1      10.960   8.737  20.504  0.00  0.00    +0.214 C 
ATOM     35  H   UNL     1       9.645   7.732  21.770  0.00  0.00    +0.145 HD
ATOM     36  H   UNL     1      10.765   8.745  22.602  0.00  0.00    +0.145 HD
ENDBRANCH  14  23
ENDBRANCH  24  26
BRANCH  18  10
ATOM      4  N   UNL     1      22.667   5.306  22.973  0.00  0.00    -0.287 NA
ATOM     10  C   UNL     1      21.909   6.324  23.727  0.00  0.00    +0.146 C 
ATOM     11  C   UNL     1      22.943   7.418  24.055  0.00  0.00    +0.030 C 
ATOM     12  C   UNL     1      24.261   6.898  23.499  0.00  0.00    +0.017 C 
ATOM     13  C   UNL     1      24.055   5.399  23.431  0.00  0.00    +0.085 C 
BRANCH   4  15
ATOM     15  C   UNL     1      22.129   3.961  23.124  0.00  0.00    +0.124 C 
BRANCH  15  21
ATOM     21  C   UNL     1      23.049   2.921  22.540  0.00  0.00    +0.008 A 
ATOM     27  C   UNL     1      23.605   1.927  23.345  0.00  0.00    +0.124 A 
ATOM     28  C   UNL     1      23.344   2.961  21.177  0.00  0.00    +0.008 A 
ATOM     30  C   UNL     1      24.455   0.972  22.787  0.00  0.00    +0.046 A 
ATOM     32  C   UNL     1      24.194   2.006  20.619  0.00  0.00    +0.001 A 
ATOM     33  C   UNL     1      24.749   1.012  21.425  0.00  0.00    +0.004 A 
BRANCH  27   3
ATOM      3  O   UNL     1      23.328   1.874  24.677  0.00  0.00    -0.495 OA
ATOM     34  C   UNL     1      22.541   0.774  25.132  0.00  0.00    +0.277 C 
ENDBRANCH  27   3
ENDBRANCH  15  21
ENDBRANCH   4  15
ENDBRANCH  18  10
TORSDOF 6
ENDMDL
MODEL 2
REMARK VINA RESULT:      -7.9      1.678      2.032
REMARK  Name = 45783320
REMARK  7 active torsions:
REMARK  status: ('A' for Active; 'I' for Inactive)
REMARK    1  A    between atoms: O_3  and  C_27
REMARK    2  A    between atoms: O_3  and  C_34
REMARK    3  A    between atoms: N_4  and  C_15
REMARK    4  A    between atoms: C_10  and  C_18
REMARK    5  A    between atoms: C_14  and  C_23
REMARK    6  A    between atoms: C_15  and  C_21
REMARK    7  A    between atoms: C_24  and  C_26
REMARK                            x       y       z     vdW  Elec       q    Type
REMARK                         _______ _______ _______ _____ _____    ______ ____
ROOT
ATOM      1  O   UNL     1      20.880   6.948  22.815  0.00  0.00    -0.336 OA
ATOM      6  N   UNL     1      20.645   7.235  20.606  0.00  0.00    -0.190 NA
ATOM      7  N   UNL     1      19.541   6.651  22.524  0.00  0.00    -0.056 NA
ATOM     18  C   UNL     1      21.457   7.282  21.632  0.00  0.00    +0.245 A 
ATOM     24  C   UNL     1      19.481   6.843  21.202  0.00  0.00    +0.202 A 
ENDROOT
BRANCH  24  26
ATOM      5  N   UNL     1      14.855   7.909  20.327  0.00  0.00    -0.315 N 
ATOM      8  N   UNL     1      15.928   6.288  18.975  0.00  0.00    -0.240 NA
ATOM     14  C   UNL     1      12.491   9.421  21.068  0.00  0.00    +0.078 C 
ATOM     16  C   UNL     1      13.090   9.497  19.666  0.00  0.00    +0.031 C 
ATOM     17  C   UNL     1      13.538   9.002  22.097  0.00  0.00    +0.031 C 
ATOM     19  C   UNL     1      13.892   8.253  19.278  0.00  0.00    +0.107 C 
ATOM     20  C   UNL     1      14.310   7.750  21.681  0.00  0.00    +0.107 C 
ATOM     22  C   UNL     1      15.996   7.166  20.000  0.00  0.00    +0.122 A 
ATOM     25  C   UNL     1      17.134   7.384  20.760  0.00  0.00    +0.055 A 
ATOM     26  C   UNL     1      18.275   6.654  20.448  0.00  0.00    +0.027 A 
ATOM     29  C   UNL     1      18.244   5.740  19.401  0.00  0.00    +0.031 A 
ATOM     31  C   UNL     1      17.056   5.595  18.702  0.00  0.00    +0.113 A 
BRANCH  14  23
ATOM      2  O   UNL     1      10.762   8.089  20.089  0.00  0.00    -0.276 OA
ATOM      9  N   UNL     1      10.899   8.181  22.384  0.00  0.00    -0.329 N 
ATOM     23  C   UNL     1      11.309   8.498  21.111  0.00  0.00    +0.214 C 
ATOM     35  H   UNL     1      10.109   7.562  22.535  0.00  0.00    +0.145 HD
ATOM     36  H   UNL     1      11.322   8.579  23.216  0.00  0.00    +0.145 HD
ENDBRANCH  14  23
ENDBRANCH  24  26
BRANCH  18  10
ATOM      4  N   UNL     1      23.804   6.525  21.301  0.00  0.00    -0.287 NA
ATOM     10  C   UNL     1      22.925   7.650  21.678  0.00  0.00    +0.146 C 
ATOM     11  C   UNL     1      23.287   8.776  20.692  0.00  0.00    +0.030 C 
ATOM     12  C   UNL     1      24.418   8.213  19.842  0.00  0.00    +0.017 C 
ATOM     13  C   UNL     1      25.005   7.118  20.710  0.00  0.00    +0.085 C 
BRANCH   4  15
ATOM     15  C   UNL     1      24.121   5.645  22.418  0.00  0.00    +0.124 C 
BRANCH  15  21
ATOM     21  C   UNL     1      24.378   4.233  21.963  0.00  0.00    +0.008 A 
ATOM     27  C   UNL     1      23.322   3.344  21.764  0.00  0.00    +0.124 A 
ATOM     28  C   UNL     1      25.691   3.817  21.741  0.00  0.00    +0.008 A 
ATOM     30  C   UNL     1      23.579   2.039  21.343  0.00  0.00    +0.046 A 
ATOM     32  C   UNL     1      25.948   2.512  21.319  0.00  0.00    +0.001 A 
ATOM     33  C   UNL     1      24.891   1.624  21.121  0.00  0.00    +0.004 A 
BRANCH  27   3
ATOM      3  O   UNL     1      22.034   3.734  21.977  0.00  0.00    -0.495 OA
ATOM     34  C   UNL     1      21.134   3.624  20.875  0.00  0.00    +0.277 C 
ENDBRANCH  27   3
ENDBRANCH  15  21
ENDBRANCH   4  15
ENDBRANCH  18  10
TORSDOF 6
ENDMDL
MODEL 3
REMARK VINA RESULT:      -7.6      2.211     10.779
REMARK  Name = 45783320
REMARK  7 active torsions:
REMARK  status: ('A' for Active; 'I' for Inactive)
REMARK    1  A    between atoms: O_3  and  C_27
REMARK    2  A    between atoms: O_3  and  C_34
REMARK    3  A    between atoms: N_4  and  C_15
REMARK    4  A    between atoms: C_10  and  C_18
REMARK    5  A    between atoms: C_14  and  C_23
REMARK    6  A    between atoms: C_15  and  C_21
REMARK    7  A    between atoms: C_24  and  C_26
REMARK                            x       y       z     vdW  Elec       q    Type
REMARK                         _______ _______ _______ _____ _____    ______ ____
ROOT
ATOM      1  O   UNL     1      16.448   5.788  18.481  0.00  0.00    -0.336 OA
ATOM      6  N   UNL     1      16.689   7.276  20.138  0.00  0.00    -0.190 NA
ATOM      7  N   UNL     1      17.725   5.572  19.015  0.00  0.00    -0.056 NA
ATOM     18  C   UNL     1      15.908   6.807  19.198  0.00  0.00    +0.245 A 
ATOM     24  C   UNL     1      17.793   6.487  19.987  0.00  0.00    +0.202 A 
ENDROOT
BRANCH  24  26
ATOM      5  N   UNL     1      22.149   5.016  21.459  0.00  0.00    -0.315 N 
ATOM      8  N   UNL     1      21.201   6.946  22.451  0.00  0.00    -0.240 NA
ATOM     14  C   UNL     1      24.288   3.064  21.264  0.00  0.00    +0.078 C 
ATOM     16  C   UNL     1      24.533   4.554  21.035  0.00  0.00    +0.031 C 
ATOM     17  C   UNL     1      22.830   2.695  21.005  0.00  0.00    +0.031 C 
ATOM     19  C   UNL     1      23.518   5.454  21.744  0.00  0.00    +0.107 C 
ATOM     20  C   UNL     1      21.847   3.607  21.738  0.00  0.00    +0.107 C 
ATOM     22  C   UNL     1      21.096   5.934  21.562  0.00  0.00    +0.122 A 
ATOM     25  C   UNL     1      20.002   5.739  20.733  0.00  0.00    +0.055 A 
ATOM     26  C   UNL     1      18.949   6.641  20.824  0.00  0.00    +0.027 A 
ATOM     29  C   UNL     1      19.019   7.696  21.727  0.00  0.00    +0.031 A 
ATOM     31  C   UNL     1      20.157   7.803  22.512  0.00  0.00    +0.113 A 
BRANCH  14  23
ATOM      2  O   UNL     1      25.460   3.324  23.333  0.00  0.00    -0.276 OA
ATOM      9  N   UNL     1      24.169   1.442  23.042  0.00  0.00    -0.329 N 
ATOM     23  C   UNL     1      24.701   2.646  22.645  0.00  0.00    +0.214 C 
ATOM     35  H   UNL     1      24.378   1.061  23.959  0.00  0.00    +0.145 HD
ATOM     36  H   UNL     1      23.596   0.865  22.436  0.00  0.00    +0.145 HD
ENDBRANCH  14  23
ENDBRANCH  24  26
BRANCH  18  10
ATOM      4  N   UNL     1      14.081   8.469  19.501  0.00  0.00    -0.287 NA
ATOM     10  C   UNL     1      14.508   7.236  18.811  0.00  0.00    +0.146 C 
ATOM     11  C   UNL     1      14.380   7.563  17.311  0.00  0.00    +0.030 C 
ATOM     12  C   UNL     1      13.818   8.977  17.259  0.00  0.00    +0.017 C 
ATOM     13  C   UNL     1      13.139   9.141  18.603  0.00  0.00    +0.085 C 
BRANCH   4  15
ATOM     15  C   UNL     1      13.503   8.221  20.815  0.00  0.00    +0.124 C 
BRANCH  15  21
ATOM     21  C   UNL     1      13.703   9.389  21.744  0.00  0.00    +0.008 A 
ATOM     27  C   UNL     1      12.629  10.194  22.121  0.00  0.00    +0.124 A 
ATOM     28  C   UNL     1      14.983   9.662  22.229  0.00  0.00    +0.008 A 
ATOM     30  C   UNL     1      12.832  11.272  22.983  0.00  0.00    +0.046 A 
ATOM     32  C   UNL     1      15.186  10.740  23.091  0.00  0.00    +0.001 A 
ATOM     33  C   UNL     1      14.111  11.544  23.467  0.00  0.00    +0.004 A 
BRANCH  27   3
ATOM      3  O   UNL     1      11.373   9.941  21.656  0.00  0.00    -0.495 OA
ATOM     34  C   UNL     1      10.461   9.318  22.559  0.00  0.00    +0.277 C 
ENDBRANCH  27   3
ENDBRANCH  15  21
ENDBRANCH   4  15
ENDBRANCH  18  10
TORSDOF 6
ENDMDL
MODEL 4
REMARK VINA RESULT:      -7.6     28.943     31.667
REMARK  Name = 45783320
REMARK  7 active torsions:
REMARK  status: ('A' for Active; 'I' for Inactive)
REMARK    1  A    between atoms: O_3  and  C_27
REMARK    2  A    between atoms: O_3  and  C_34
REMARK    3  A    between atoms: N_4  and  C_15
REMARK    4  A    between atoms: C_10  and  C_18
REMARK    5  A    between atoms: C_14  and  C_23
REMARK    6  A    between atoms: C_15  and  C_21
REMARK    7  A    between atoms: C_24  and  C_26
REMARK                            x       y       z     vdW  Elec       q    Type
REMARK                         _______ _______ _______ _____ _____    ______ ____
ROOT
ATOM      1  O   UNL     1      -3.781 -11.114  17.879  0.00  0.00    -0.336 OA
ATOM      6  N   UNL     1      -5.128 -10.533  16.186  0.00  0.00    -0.190 NA
ATOM      7  N   UNL     1      -3.007 -11.209  16.715  0.00  0.00    -0.056 NA
ATOM     18  C   UNL     1      -5.014 -10.710  17.478  0.00  0.00    +0.245 A 
ATOM     24  C   UNL     1      -3.871 -10.851  15.760  0.00  0.00    +0.202 A 
ENDROOT
BRANCH  24  26
ATOM      5  N   UNL     1      -4.901  -9.709  11.184  0.00  0.00    -0.315 N 
ATOM      8  N   UNL     1      -2.808 -10.704  11.668  0.00  0.00    -0.240 NA
ATOM     14  C   UNL     1      -6.816  -8.644   9.280  0.00  0.00    +0.078 C 
ATOM     16  C   UNL     1      -5.416  -8.053   9.432  0.00  0.00    +0.031 C 
ATOM     17  C   UNL     1      -7.255  -9.365  10.552  0.00  0.00    +0.031 C 
ATOM     19  C   UNL     1      -4.391  -9.049   9.980  0.00  0.00    +0.107 C 
ATOM     20  C   UNL     1      -6.212 -10.358  11.063  0.00  0.00    +0.107 C 
ATOM     22  C   UNL     1      -3.999 -10.246  12.112  0.00  0.00    +0.122 A 
ATOM     25  C   UNL     1      -4.395 -10.271  13.439  0.00  0.00    +0.055 A 
ATOM     26  C   UNL     1      -3.511 -10.802  14.371  0.00  0.00    +0.027 A 
ATOM     29  C   UNL     1      -2.276 -11.284  13.954  0.00  0.00    +0.031 A 
ATOM     31  C   UNL     1      -1.975 -11.214  12.603  0.00  0.00    +0.113 A 
BRANCH  14  23
ATOM      2  O   UNL     1      -7.530 -10.617   8.131  0.00  0.00    -0.276 OA
ATOM      9  N   UNL     1      -6.191  -9.124   7.003  0.00  0.00    -0.329 N 
ATOM     23  C   UNL     1      -6.898  -9.564   8.097  0.00  0.00    +0.214 C 
ATOM     35  H   UNL     1      -6.177  -9.665   6.145  0.00  0.00    +0.145 HD
ATOM     36  H   UNL     1      -5.622  -8.284   7.013  0.00  0.00    +0.145 HD
ENDBRANCH  14  23
ENDBRANCH  24  26
BRANCH  18  10
ATOM      4  N   UNL     1      -7.431 -10.540  18.044  0.00  0.00    -0.287 NA
ATOM     10  C   UNL     1      -6.051 -10.529  18.567  0.00  0.00    +0.146 C 
ATOM     11  C   UNL     1      -6.020 -11.659  19.613  0.00  0.00    +0.030 C 
ATOM     12  C   UNL     1      -7.440 -12.206  19.650  0.00  0.00    +0.017 C 
ATOM     13  C   UNL     1      -8.277 -11.060  19.120  0.00  0.00    +0.085 C 
BRANCH   4  15
ATOM     15  C   UNL     1      -7.880  -9.235  17.577  0.00  0.00    +0.124 C 
BRANCH  15  21
ATOM     21  C   UNL     1      -8.646  -9.335  16.285  0.00  0.00    +0.008 A 
ATOM     27  C   UNL     1      -9.666  -8.432  15.988  0.00  0.00    +0.124 A 
ATOM     28  C   UNL     1      -8.325 -10.347  15.380  0.00  0.00    +0.008 A 
ATOM     30  C   UNL     1     -10.366  -8.540  14.786  0.00  0.00    +0.046 A 
ATOM     32  C   UNL     1      -9.025 -10.455  14.177  0.00  0.00    +0.001 A 
ATOM     33  C   UNL     1     -10.045  -9.551  13.882  0.00  0.00    +0.004 A 
BRANCH  27   3
ATOM      3  O   UNL     1      -9.992  -7.438  16.861  0.00  0.00    -0.495 OA
ATOM     34  C   UNL     1     -11.080  -6.589  16.499  0.00  0.00    +0.277 C 
ENDBRANCH  27   3
ENDBRANCH  15  21
ENDBRANCH   4  15
ENDBRANCH  18  10
TORSDOF 6
ENDMDL
MODEL 5
REMARK VINA RESULT:      -7.4     27.472     31.371
REMARK  Name = 45783320
REMARK  7 active torsions:
REMARK  status: ('A' for Active; 'I' for Inactive)
REMARK    1  A    between atoms: O_3  and  C_27
REMARK    2  A    between atoms: O_3  and  C_34
REMARK    3  A    between atoms: N_4  and  C_15
REMARK    4  A    between atoms: C_10  and  C_18
REMARK    5  A    between atoms: C_14  and  C_23
REMARK    6  A    between atoms: C_15  and  C_21
REMARK    7  A    between atoms: C_24  and  C_26
REMARK                            x       y       z     vdW  Elec       q    Type
REMARK                         _______ _______ _______ _____ _____    ______ ____
ROOT
ATOM      1  O   UNL     1      -3.605 -11.388  18.030  0.00  0.00    -0.336 OA
ATOM      6  N   UNL     1      -5.279 -11.167  16.558  0.00  0.00    -0.190 NA
ATOM      7  N   UNL     1      -4.779 -11.285  18.788  0.00  0.00    -0.056 NA
ATOM     18  C   UNL     1      -3.989 -11.310  16.730  0.00  0.00    +0.245 A 
ATOM     24  C   UNL     1      -5.722 -11.157  17.849  0.00  0.00    +0.202 A 
ENDROOT
BRANCH  24  26
ATOM      5  N   UNL     1     -10.153  -9.596  16.740  0.00  0.00    -0.315 N 
ATOM      8  N   UNL     1      -9.827 -10.745  18.784  0.00  0.00    -0.240 NA
ATOM     14  C   UNL     1     -11.873  -8.171  14.886  0.00  0.00    +0.078 C 
ATOM     16  C   UNL     1     -12.155  -9.613  15.302  0.00  0.00    +0.031 C 
ATOM     17  C   UNL     1     -10.394  -7.826  15.046  0.00  0.00    +0.031 C 
ATOM     19  C   UNL     1     -11.565  -9.980  16.665  0.00  0.00    +0.107 C 
ATOM     20  C   UNL     1      -9.844  -8.196  16.423  0.00  0.00    +0.107 C 
ATOM     22  C   UNL     1      -9.305 -10.256  17.638  0.00  0.00    +0.122 A 
ATOM     25  C   UNL     1      -7.969 -10.364  17.285  0.00  0.00    +0.055 A 
ATOM     26  C   UNL     1      -7.115 -11.016  18.167  0.00  0.00    +0.027 A 
ATOM     29  C   UNL     1      -7.614 -11.533  19.357  0.00  0.00    +0.031 A 
ATOM     31  C   UNL     1      -8.966 -11.372  19.617  0.00  0.00    +0.113 A 
BRANCH  14  23
ATOM      2  O   UNL     1     -13.722  -7.560  16.276  0.00  0.00    -0.276 OA
ATOM      9  N   UNL     1     -12.299  -5.898  15.565  0.00  0.00    -0.329 N 
ATOM     23  C   UNL     1     -12.727  -7.202  15.651  0.00  0.00    +0.214 C 
ATOM     35  H   UNL     1     -12.799  -5.157  16.044  0.00  0.00    +0.145 HD
ATOM     36  H   UNL     1     -11.512  -5.612  14.992  0.00  0.00    +0.145 HD
ENDBRANCH  14  23
ENDBRANCH  24  26
BRANCH  18  10
ATOM      4  N   UNL     1      -3.166 -10.584  14.496  0.00  0.00    -0.287 NA
ATOM     10  C   UNL     1      -2.887 -11.399  15.695  0.00  0.00    +0.146 C 
ATOM     11  C   UNL     1      -1.536 -10.876  16.218  0.00  0.00    +0.030 C 
ATOM     12  C   UNL     1      -1.107  -9.813  15.217  0.00  0.00    +0.017 C 
ATOM     13  C   UNL     1      -1.866 -10.180  13.958  0.00  0.00    +0.085 C 
BRANCH   4  15
ATOM     15  C   UNL     1      -3.977 -11.278  13.505  0.00  0.00    +0.124 C 
BRANCH  15  21
ATOM     21  C   UNL     1      -4.450 -10.349  12.418  0.00  0.00    +0.008 A 
ATOM     27  C   UNL     1      -5.632  -9.623  12.564  0.00  0.00    +0.124 A 
ATOM     28  C   UNL     1      -3.691 -10.220  11.255  0.00  0.00    +0.008 A 
ATOM     30  C   UNL     1      -6.055  -8.767  11.547  0.00  0.00    +0.046 A 
ATOM     32  C   UNL     1      -4.114  -9.364  10.238  0.00  0.00    +0.001 A 
ATOM     33  C   UNL     1      -5.296  -8.638  10.384  0.00  0.00    +0.004 A 
BRANCH  27   3
ATOM      3  O   UNL     1      -6.385  -9.738  13.694  0.00  0.00    -0.495 OA
ATOM     34  C   UNL     1      -7.785  -9.948  13.520  0.00  0.00    +0.277 C 
ENDBRANCH  27   3
ENDBRANCH  15  21
ENDBRANCH   4  15
ENDBRANCH  18  10
TORSDOF 6
ENDMDL
MODEL 6
REMARK VINA RESULT:      -7.2      2.781     10.283
REMARK  Name = 45783320
REMARK  7 active torsions:
REMARK  status: ('A' for Active; 'I' for Inactive)
REMARK    1  A    between atoms: O_3  and  C_27
REMARK    2  A    between atoms: O_3  and  C_34
REMARK    3  A    between atoms: N_4  and  C_15
REMARK    4  A    between atoms: C_10  and  C_18
REMARK    5  A    between atoms: C_14  and  C_23
REMARK    6  A    between atoms: C_15  and  C_21
REMARK    7  A    between atoms: C_24  and  C_26
REMARK                            x       y       z     vdW  Elec       q    Type
REMARK                         _______ _______ _______ _____ _____    ______ ____
ROOT
ATOM      1  O   UNL     1      16.107  10.695  22.214  0.00  0.00    -0.336 OA
ATOM      6  N   UNL     1      15.130   9.088  20.998  0.00  0.00    -0.190 NA
ATOM      7  N   UNL     1      17.120   9.782  21.891  0.00  0.00    -0.056 NA
ATOM     18  C   UNL     1      14.970  10.212  21.650  0.00  0.00    +0.245 A 
ATOM     24  C   UNL     1      16.465   8.864  21.173  0.00  0.00    +0.202 A 
ENDROOT
BRANCH  24  26
ATOM      5  N   UNL     1      20.265   5.899  20.899  0.00  0.00    -0.315 N 
ATOM      8  N   UNL     1      18.375   5.458  19.543  0.00  0.00    -0.240 NA
ATOM     14  C   UNL     1      22.961   5.259  21.764  0.00  0.00    +0.078 C 
ATOM     16  C   UNL     1      21.811   4.265  21.909  0.00  0.00    +0.031 C 
ATOM     17  C   UNL     1      22.449   6.696  21.708  0.00  0.00    +0.031 C 
ATOM     19  C   UNL     1      20.679   4.493  20.904  0.00  0.00    +0.107 C 
ATOM     20  C   UNL     1      21.329   6.888  20.686  0.00  0.00    +0.107 C 
ATOM     22  C   UNL     1      18.975   6.236  20.471  0.00  0.00    +0.122 A 
ATOM     25  C   UNL     1      18.394   7.361  21.035  0.00  0.00    +0.055 A 
ATOM     26  C   UNL     1      17.114   7.709  20.619  0.00  0.00    +0.027 A 
ATOM     29  C   UNL     1      16.463   6.934  19.666  0.00  0.00    +0.031 A 
ATOM     31  C   UNL     1      17.131   5.829  19.163  0.00  0.00    +0.113 A 
BRANCH  14  23
ATOM      2  O   UNL     1      24.545   5.789  20.052  0.00  0.00    -0.276 OA
ATOM      9  N   UNL     1      23.650   3.669  20.090  0.00  0.00    -0.329 N 
ATOM     23  C   UNL     1      23.805   4.951  20.562  0.00  0.00    +0.214 C 
ATOM     35  H   UNL     1      24.173   3.349  19.281  0.00  0.00    +0.145 HD
ATOM     36  H   UNL     1      22.987   3.011  20.484  0.00  0.00    +0.145 HD
ENDBRANCH  14  23
ENDBRANCH  24  26
BRANCH  18  10
ATOM      4  N   UNL     1      12.537  10.445  21.185  0.00  0.00    -0.287 NA
ATOM     10  C   UNL     1      13.714  11.032  21.856  0.00  0.00    +0.146 C 
ATOM     11  C   UNL     1      13.308  11.135  23.338  0.00  0.00    +0.030 C 
ATOM     12  C   UNL     1      11.869  10.641  23.391  0.00  0.00    +0.017 C 
ATOM     13  C   UNL     1      11.370  10.841  21.975  0.00  0.00    +0.085 C 
BRANCH   4  15
ATOM     15  C   UNL     1      12.414  10.844  19.789  0.00  0.00    +0.124 C 
BRANCH  15  21
ATOM     21  C   UNL     1      12.867   9.754  18.853  0.00  0.00    +0.008 A 
ATOM     27  C   UNL     1      13.737  10.033  17.800  0.00  0.00    +0.124 A 
ATOM     28  C   UNL     1      12.405   8.452  19.050  0.00  0.00    +0.008 A 
ATOM     30  C   UNL     1      14.147   9.012  16.943  0.00  0.00    +0.046 A 
ATOM     32  C   UNL     1      12.815   7.430  18.193  0.00  0.00    +0.001 A 
ATOM     33  C   UNL     1      13.685   7.711  17.140  0.00  0.00    +0.004 A 
BRANCH  27   3
ATOM      3  O   UNL     1      14.198  11.299  17.594  0.00  0.00    -0.495 OA
ATOM     34  C   UNL     1      15.460  11.631  18.171  0.00  0.00    +0.277 C 
ENDBRANCH  27   3
ENDBRANCH  15  21
ENDBRANCH   4  15
ENDBRANCH  18  10
TORSDOF 6
ENDMDL
MODEL 7
REMARK VINA RESULT:      -7.2     27.531     31.923
REMARK  Name = 45783320
REMARK  7 active torsions:
REMARK  status: ('A' for Active; 'I' for Inactive)
REMARK    1  A    between atoms: O_3  and  C_27
REMARK    2  A    between atoms: O_3  and  C_34
REMARK    3  A    between atoms: N_4  and  C_15
REMARK    4  A    between atoms: C_10  and  C_18
REMARK    5  A    between atoms: C_14  and  C_23
REMARK    6  A    between atoms: C_15  and  C_21
REMARK    7  A    between atoms: C_24  and  C_26
REMARK                            x       y       z     vdW  Elec       q    Type
REMARK                         _______ _______ _______ _____ _____    ______ ____
ROOT
ATOM      1  O   UNL     1      -5.005  -9.780  16.048  0.00  0.00    -0.336 OA
ATOM      6  N   UNL     1      -5.147 -11.822  16.959  0.00  0.00    -0.190 NA
ATOM      7  N   UNL     1      -6.189  -9.791  16.798  0.00  0.00    -0.056 NA
ATOM     18  C   UNL     1      -4.455 -11.012  16.197  0.00  0.00    +0.245 A 
ATOM     24  C   UNL     1      -6.202 -11.028  17.304  0.00  0.00    +0.202 A 
ENDROOT
BRANCH  24  26
ATOM      5  N   UNL     1     -10.846 -11.085  18.622  0.00  0.00    -0.315 N 
ATOM      8  N   UNL     1      -9.306 -12.433  19.812  0.00  0.00    -0.240 NA
ATOM     14  C   UNL     1     -13.535 -10.066  18.224  0.00  0.00    +0.078 C 
ATOM     16  C   UNL     1     -13.221 -11.558  18.156  0.00  0.00    +0.031 C 
ATOM     17  C   UNL     1     -12.297  -9.224  17.923  0.00  0.00    +0.031 C 
ATOM     19  C   UNL     1     -11.977 -11.956  18.955  0.00  0.00    +0.107 C 
ATOM     20  C   UNL     1     -11.080  -9.641  18.747  0.00  0.00    +0.107 C 
ATOM     22  C   UNL     1      -9.538 -11.546  18.819  0.00  0.00    +0.122 A 
ATOM     25  C   UNL     1      -8.559 -11.055  17.972  0.00  0.00    +0.055 A 
ATOM     26  C   UNL     1      -7.256 -11.503  18.156  0.00  0.00    +0.027 A 
ATOM     29  C   UNL     1      -6.976 -12.415  19.167  0.00  0.00    +0.031 A 
ATOM     31  C   UNL     1      -8.027 -12.845  19.961  0.00  0.00    +0.113 A 
BRANCH  14  23
ATOM      2  O   UNL     1     -13.418  -9.472  20.538  0.00  0.00    -0.276 OA
ATOM      9  N   UNL     1     -15.494  -9.629  19.557  0.00  0.00    -0.329 N 
ATOM     23  C   UNL     1     -14.120  -9.688  19.553  0.00  0.00    +0.214 C 
ATOM     35  H   UNL     1     -15.998  -9.380  20.402  0.00  0.00    +0.145 HD
ATOM     36  H   UNL     1     -16.060  -9.872  18.752  0.00  0.00    +0.145 HD
ENDBRANCH  14  23
ENDBRANCH  24  26
BRANCH  18  10
ATOM      4  N   UNL     1      -3.050 -10.512  14.205  0.00  0.00    -0.287 NA
ATOM     10  C   UNL     1      -3.146 -11.259  15.475  0.00  0.00    +0.146 C 
ATOM     11  C   UNL     1      -1.922 -10.802  16.291  0.00  0.00    +0.030 C 
ATOM     12  C   UNL     1      -1.168  -9.849  15.375  0.00  0.00    +0.017 C 
ATOM     13  C   UNL     1      -1.627 -10.247  13.988  0.00  0.00    +0.085 C 
BRANCH   4  15
ATOM     15  C   UNL     1      -3.655 -11.213  13.080  0.00  0.00    +0.124 C 
BRANCH  15  21
ATOM     21  C   UNL     1      -4.020 -10.270  11.964  0.00  0.00    +0.008 A 
ATOM     27  C   UNL     1      -5.208  -9.542  12.005  0.00  0.00    +0.124 A 
ATOM     28  C   UNL     1      -3.153 -10.130  10.880  0.00  0.00    +0.008 A 
ATOM     30  C   UNL     1      -5.531  -8.673  10.962  0.00  0.00    +0.046 A 
ATOM     32  C   UNL     1      -3.475  -9.261   9.837  0.00  0.00    +0.001 A 
ATOM     33  C   UNL     1      -4.664  -8.533   9.879  0.00  0.00    +0.004 A 
BRANCH  27   3
ATOM      3  O   UNL     1      -6.066  -9.667  13.056  0.00  0.00    -0.495 OA
ATOM     34  C   UNL     1      -7.313 -10.312  12.801  0.00  0.00    +0.277 C 
ENDBRANCH  27   3
ENDBRANCH  15  21
ENDBRANCH   4  15
ENDBRANCH  18  10
TORSDOF 6
ENDMDL
MODEL 8
REMARK VINA RESULT:      -7.2     16.689     21.429
REMARK  Name = 45783320
REMARK  7 active torsions:
REMARK  status: ('A' for Active; 'I' for Inactive)
REMARK    1  A    between atoms: O_3  and  C_27
REMARK    2  A    between atoms: O_3  and  C_34
REMARK    3  A    between atoms: N_4  and  C_15
REMARK    4  A    between atoms: C_10  and  C_18
REMARK    5  A    between atoms: C_14  and  C_23
REMARK    6  A    between atoms: C_15  and  C_21
REMARK    7  A    between atoms: C_24  and  C_26
REMARK                            x       y       z     vdW  Elec       q    Type
REMARK                         _______ _______ _______ _____ _____    ______ ____
ROOT
ATOM      1  O   UNL     1       7.347   9.643   3.904  0.00  0.00    -0.336 OA
ATOM      6  N   UNL     1       9.436   8.862   3.695  0.00  0.00    -0.190 NA
ATOM      7  N   UNL     1       7.469   9.207   2.578  0.00  0.00    -0.056 NA
ATOM     18  C   UNL     1       8.548   9.404   4.491  0.00  0.00    +0.245 A 
ATOM     24  C   UNL     1       8.728   8.761   2.533  0.00  0.00    +0.202 A 
ENDROOT
BRANCH  24  26
ATOM      5  N   UNL     1      11.820   5.754   0.363  0.00  0.00    -0.315 N 
ATOM      8  N   UNL     1      10.440   7.134  -0.978  0.00  0.00    -0.240 NA
ATOM     14  C   UNL     1      13.920   3.767   0.623  0.00  0.00    +0.078 C 
ATOM     16  C   UNL     1      12.631   3.482  -0.144  0.00  0.00    +0.031 C 
ATOM     17  C   UNL     1      13.716   4.870   1.660  0.00  0.00    +0.031 C 
ATOM     19  C   UNL     1      11.955   4.743  -0.689  0.00  0.00    +0.107 C 
ATOM     20  C   UNL     1      13.050   6.116   1.078  0.00  0.00    +0.107 C 
ATOM     22  C   UNL     1      10.826   6.735   0.255  0.00  0.00    +0.122 A 
ATOM     25  C   UNL     1      10.298   7.235   1.434  0.00  0.00    +0.055 A 
ATOM     26  C   UNL     1       9.310   8.210   1.342  0.00  0.00    +0.027 A 
ATOM     29  C   UNL     1       8.887   8.647   0.092  0.00  0.00    +0.031 A 
ATOM     31  C   UNL     1       9.478   8.083  -1.027  0.00  0.00    +0.113 A 
BRANCH  14  23
ATOM      2  O   UNL     1      14.931   4.047  -1.526  0.00  0.00    -0.276 OA
ATOM      9  N   UNL     1      16.200   4.493   0.341  0.00  0.00    -0.329 N 
ATOM     23  C   UNL     1      15.046   4.116  -0.305  0.00  0.00    +0.214 C 
ATOM     35  H   UNL     1      17.027   4.753  -0.186  0.00  0.00    +0.145 HD
ATOM     36  H   UNL     1      16.297   4.483   1.351  0.00  0.00    +0.145 HD
ENDBRANCH  14  23
ENDBRANCH  24  26
BRANCH  18  10
ATOM      4  N   UNL     1       9.382   8.770   6.748  0.00  0.00    -0.287 NA
ATOM     10  C   UNL     1       8.675   9.791   5.949  0.00  0.00    +0.146 C 
ATOM     11  C   UNL     1       9.491  11.081   6.153  0.00  0.00    +0.030 C 
ATOM     12  C   UNL     1      10.598  10.702   7.126  0.00  0.00    +0.017 C 
ATOM     13  C   UNL     1      10.045   9.485   7.840  0.00  0.00    +0.085 C 
BRANCH   4  15
ATOM     15  C   UNL     1       8.505   7.715   7.237  0.00  0.00    +0.124 C 
BRANCH  15  21
ATOM     21  C   UNL     1       9.020   6.346   6.876  0.00  0.00    +0.008 A 
ATOM     27  C   UNL     1       9.368   5.430   7.868  0.00  0.00    +0.124 A 
ATOM     28  C   UNL     1       9.148   6.000   5.530  0.00  0.00    +0.008 A 
ATOM     30  C   UNL     1       9.844   4.167   7.515  0.00  0.00    +0.046 A 
ATOM     32  C   UNL     1       9.623   4.736   5.178  0.00  0.00    +0.001 A 
ATOM     33  C   UNL     1       9.971   3.821   6.170  0.00  0.00    +0.004 A 
BRANCH  27   3
ATOM      3  O   UNL     1       9.250   5.752   9.186  0.00  0.00    -0.495 OA
ATOM     34  C   UNL     1       9.101   4.672  10.106  0.00  0.00    +0.277 C 
ENDBRANCH  27   3
ENDBRANCH  15  21
ENDBRANCH   4  15
ENDBRANCH  18  10
TORSDOF 6
ENDMDL
MODEL 9
REMARK VINA RESULT:      -7.1     15.419     18.893
REMARK  Name = 45783320
REMARK  7 active torsions:
REMARK  status: ('A' for Active; 'I' for Inactive)
REMARK    1  A    between atoms: O_3  and  C_27
REMARK    2  A    between atoms: O_3  and  C_34
REMARK    3  A    between atoms: N_4  and  C_15
REMARK    4  A    between atoms: C_10  and  C_18
REMARK    5  A    between atoms: C_14  and  C_23
REMARK    6  A    between atoms: C_15  and  C_21
REMARK    7  A    between atoms: C_24  and  C_26
REMARK                            x       y       z     vdW  Elec       q    Type
REMARK                         _______ _______ _______ _____ _____    ______ ____
ROOT
ATOM      1  O   UNL     1      12.669   8.574   7.353  0.00  0.00    -0.336 OA
ATOM      6  N   UNL     1      13.106  10.034   5.710  0.00  0.00    -0.190 NA
ATOM      7  N   UNL     1      13.851   8.132   6.742  0.00  0.00    -0.056 NA
ATOM     18  C   UNL     1      12.299   9.698   6.685  0.00  0.00    +0.245 A 
ATOM     24  C   UNL     1      14.043   9.044   5.784  0.00  0.00    +0.202 A 
ENDROOT
BRANCH  24  26
ATOM      5  N   UNL     1      18.748   8.367   4.945  0.00  0.00    -0.315 N 
ATOM      8  N   UNL     1      17.329   8.893   3.124  0.00  0.00    -0.240 NA
ATOM     14  C   UNL     1      21.388   7.809   6.015  0.00  0.00    +0.078 C 
ATOM     16  C   UNL     1      20.759   6.940   4.928  0.00  0.00    +0.031 C 
ATOM     17  C   UNL     1      20.323   8.538   6.829  0.00  0.00    +0.031 C 
ATOM     19  C   UNL     1      19.716   7.679   4.086  0.00  0.00    +0.107 C 
ATOM     20  C   UNL     1      19.307   9.273   5.956  0.00  0.00    +0.107 C 
ATOM     22  C   UNL     1      17.473   8.663   4.448  0.00  0.00    +0.122 A 
ATOM     25  C   UNL     1      16.430   8.701   5.360  0.00  0.00    +0.055 A 
ATOM     26  C   UNL     1      15.158   8.994   4.882  0.00  0.00    +0.027 A 
ATOM     29  C   UNL     1      14.970   9.237   3.526  0.00  0.00    +0.031 A 
ATOM     31  C   UNL     1      16.078   9.176   2.696  0.00  0.00    +0.113 A 
BRANCH  14  23
ATOM      2  O   UNL     1      22.791   8.685   4.286  0.00  0.00    -0.276 OA
ATOM      9  N   UNL     1      22.757   9.768   6.316  0.00  0.00    -0.329 N 
ATOM     23  C   UNL     1      22.371   8.785   5.437  0.00  0.00    +0.214 C 
ATOM     35  H   UNL     1      23.418  10.485   6.034  0.00  0.00    +0.145 HD
ATOM     36  H   UNL     1      22.449   9.798   7.282  0.00  0.00    +0.145 HD
ENDBRANCH  14  23
ENDBRANCH  24  26
BRANCH  18  10
ATOM      4  N   UNL     1      10.170   9.481   7.954  0.00  0.00    -0.287 NA
ATOM     10  C   UNL     1      11.033  10.379   7.162  0.00  0.00    +0.146 C 
ATOM     11  C   UNL     1      11.315  11.573   8.093  0.00  0.00    +0.030 C 
ATOM     12  C   UNL     1      10.521  11.286   9.359  0.00  0.00    +0.017 C 
ATOM     13  C   UNL     1       9.438  10.334   8.894  0.00  0.00    +0.085 C 
BRANCH   4  15
ATOM     15  C   UNL     1       9.274   8.675   7.135  0.00  0.00    +0.124 C 
BRANCH  15  21
ATOM     21  C   UNL     1       9.462   7.202   7.385  0.00  0.00    +0.008 A 
ATOM     27  C   UNL     1       9.948   6.364   6.382  0.00  0.00    +0.124 A 
ATOM     28  C   UNL     1       9.142   6.677   8.638  0.00  0.00    +0.008 A 
ATOM     30  C   UNL     1      10.115   5.002   6.630  0.00  0.00    +0.046 A 
ATOM     32  C   UNL     1       9.309   5.315   8.886  0.00  0.00    +0.001 A 
ATOM     33  C   UNL     1       9.796   4.478   7.882  0.00  0.00    +0.004 A 
BRANCH  27   3
ATOM      3  O   UNL     1      10.265   6.861   5.153  0.00  0.00    -0.495 OA
ATOM     34  C   UNL     1      11.466   6.380   4.551  0.00  0.00    +0.277 C 
ENDBRANCH  27   3
ENDBRANCH  15  21
ENDBRANCH   4  15
ENDBRANCH  18  10
TORSDOF 6
ENDMDL
MODEL 10
REMARK VINA RESULT:      -7.1     15.697     20.217
REMARK  Name = 45783320
REMARK  7 active torsions:
REMARK  status: ('A' for Active; 'I' for Inactive)
REMARK    1  A    between atoms: O_3  and  C_27
REMARK    2  A    between atoms: O_3  and  C_34
REMARK    3  A    between atoms: N_4  and  C_15
REMARK    4  A    between atoms: C_10  and  C_18
REMARK    5  A    between atoms: C_14  and  C_23
REMARK    6  A    between atoms: C_15  and  C_21
REMARK    7  A    between atoms: C_24  and  C_26
REMARK                            x       y       z     vdW  Elec       q    Type
REMARK                         _______ _______ _______ _____ _____    ______ ____
ROOT
ATOM      1  O   UNL     1      12.524   7.424   6.974  0.00  0.00    -0.336 OA
ATOM      6  N   UNL     1      12.631   8.611   5.077  0.00  0.00    -0.190 NA
ATOM      7  N   UNL     1      13.853   7.341   6.536  0.00  0.00    -0.056 NA
ATOM     18  C   UNL     1      11.875   8.190   6.058  0.00  0.00    +0.245 A 
ATOM     24  C   UNL     1      13.836   8.065   5.413  0.00  0.00    +0.202 A 
ENDROOT
BRANCH  24  26
ATOM      5  N   UNL     1      18.635   8.148   4.898  0.00  0.00    -0.315 N 
ATOM      8  N   UNL     1      17.278   8.641   3.021  0.00  0.00    -0.240 NA
ATOM     14  C   UNL     1      21.252   7.870   6.124  0.00  0.00    +0.078 C 
ATOM     16  C   UNL     1      20.832   7.030   4.920  0.00  0.00    +0.031 C 
ATOM     17  C   UNL     1      20.038   8.358   6.910  0.00  0.00    +0.031 C 
ATOM     19  C   UNL     1      19.750   7.691   4.063  0.00  0.00    +0.107 C 
ATOM     20  C   UNL     1      18.984   9.022   6.025  0.00  0.00    +0.107 C 
ATOM     22  C   UNL     1      17.366   8.307   4.328  0.00  0.00    +0.122 A 
ATOM     25  C   UNL     1      16.271   8.107   5.154  0.00  0.00    +0.055 A 
ATOM     26  C   UNL     1      15.004   8.262   4.602  0.00  0.00    +0.027 A 
ATOM     29  C   UNL     1      14.873   8.606   3.262  0.00  0.00    +0.031 A 
ATOM     31  C   UNL     1      16.030   8.783   2.521  0.00  0.00    +0.113 A 
BRANCH  14  23
ATOM      2  O   UNL     1      21.996  10.141   6.217  0.00  0.00    -0.276 OA
ATOM      9  N   UNL     1      23.017   8.721   4.721  0.00  0.00    -0.329 N 
ATOM     23  C   UNL     1      22.114   9.027   5.713  0.00  0.00    +0.214 C 
ATOM     35  H   UNL     1      23.653   9.426   4.366  0.00  0.00    +0.145 HD
ATOM     36  H   UNL     1      23.057   7.812   4.272  0.00  0.00    +0.145 HD
ENDBRANCH  14  23
ENDBRANCH  24  26
BRANCH  18  10
ATOM      4  N   UNL     1       9.545   7.370   5.750  0.00  0.00    -0.287 NA
ATOM     10  C   UNL     1      10.401   8.435   6.309  0.00  0.00    +0.146 C 
ATOM     11  C   UNL     1      10.052   8.472   7.809  0.00  0.00    +0.030 C 
ATOM     12  C   UNL     1       8.949   7.437   7.985  0.00  0.00    +0.017 C 
ATOM     13  C   UNL     1       8.353   7.310   6.598  0.00  0.00    +0.085 C 
BRANCH   4  15
ATOM     15  C   UNL     1       9.210   7.580   4.348  0.00  0.00    +0.124 C 
BRANCH  15  21
ATOM     21  C   UNL     1       9.782   6.500   3.468  0.00  0.00    +0.008 A 
ATOM     27  C   UNL     1       9.777   6.632   2.080  0.00  0.00    +0.124 A 
ATOM     28  C   UNL     1      10.322   5.356   4.058  0.00  0.00    +0.008 A 
ATOM     30  C   UNL     1      10.311   5.621   1.280  0.00  0.00    +0.046 A 
ATOM     32  C   UNL     1      10.857   4.345   3.258  0.00  0.00    +0.001 A 
ATOM     33  C   UNL     1      10.850   4.479   1.869  0.00  0.00    +0.004 A 
BRANCH  27   3
ATOM      3  O   UNL     1       9.253   7.742   1.489  0.00  0.00    -0.495 OA
ATOM     34  C   UNL     1       9.609   7.980   0.127  0.00  0.00    +0.277 C 
ENDBRANCH  27   3
ENDBRANCH  15  21
ENDBRANCH   4  15
ENDBRANCH  18  10
TORSDOF 6
ENDMDL
