REMARK  Name = 40779387
REMARK  8 active torsions:
REMARK  status: ('A' for Active; 'I' for Inactive)
REMARK    1  A    between atoms: S_1  and  N_7
REMARK    2  A    between atoms: S_1  and  C_21
REMARK    3  A    between atoms: N_6  and  C_20
REMARK    4  A    between atoms: N_7  and  C_16
REMARK    5  A    between atoms: C_10  and  C_17
REMARK    6  A    between atoms: C_11  and  C_16
REMARK    7  A    between atoms: C_19  and  C_22
REMARK    8  A    between atoms: C_21  and  C_23
REMARK                            x       y       z     vdW  Elec       q    Type
REMARK                         _______ _______ _______ _____ _____    ______ ____
ROOT
ATOM      5  N   UNL     1      -3.424   2.154   1.130  0.00  0.00    -0.297 NA
ATOM      9  C   UNL     1      -3.408   0.896  -1.151  0.00  0.00    +0.002 C 
ATOM     10  C   UNL     1      -3.430  -0.116   0.029  0.00  0.00    +0.055 C 
ATOM     11  C   UNL     1      -2.341   2.688   0.262  0.00  0.00    +0.072 C 
ATOM     12  C   UNL     1      -2.182   1.821  -1.006  0.00  0.00    +0.024 C 
ATOM     13  C   UNL     1      -4.664   1.781  -1.002  0.00  0.00    +0.019 C 
ATOM     14  C   UNL     1      -3.235   0.697   1.340  0.00  0.00    +0.094 C 
ATOM     15  C   UNL     1      -4.713   2.356   0.424  0.00  0.00    +0.085 C 
ENDROOT
BRANCH  10  17
ATOM      6  N   UNL     1      -2.877  -2.507  -0.615  0.00  0.00    -0.270 N 
ATOM      8  N   UNL     1      -1.919  -3.450  -0.576  0.00  0.00    -0.171 NA
ATOM     17  C   UNL     1      -2.509  -1.325  -0.044  0.00  0.00    +0.044 A 
ATOM     18  C   UNL     1      -1.221  -1.506   0.400  0.00  0.00    +0.053 A 
ATOM     19  C   UNL     1      -0.911  -2.833   0.045  0.00  0.00    +0.100 A 
ATOM     20  C   UNL     1      -4.147  -2.817  -1.229  0.00  0.00    +0.172 C 
BRANCH  19  22
ATOM      2  S   UNL     1       0.695  -5.130  -0.149  0.00  0.00    -0.095 S 
ATOM     22  C   UNL     1       0.371  -3.511   0.305  0.00  0.00    +0.039 A 
ATOM     24  C   UNL     1       1.446  -2.928   0.939  0.00  0.00    +0.018 A 
ATOM     25  C   UNL     1       2.550  -3.821   1.053  0.00  0.00    +0.008 A 
ATOM     28  C   UNL     1       2.277  -5.054   0.501  0.00  0.00    +0.046 A 
ENDBRANCH  19  22
ENDBRANCH  10  17
BRANCH  11  16
ATOM     16  C   UNL     1      -1.018   2.849   1.013  0.00  0.00    +0.124 C 
BRANCH  16   7
ATOM      7  N   UNL     1      -0.034   3.495   0.129  0.00  0.00    -0.193 NA
ATOM     32  H   UNL     1      -0.315   4.364  -0.341  0.00  0.00    +0.148 HD
BRANCH   7   1
ATOM      1  S   UNL     1       1.625   3.143   0.328  0.00  0.00    +0.034 S 
ATOM      3  O   UNL     1       1.896   2.827   1.717  0.00  0.00    -0.158 OA
ATOM      4  O   UNL     1       2.398   4.154  -0.367  0.00  0.00    -0.158 OA
BRANCH   1  21
ATOM     21  C   UNL     1       1.754   1.638  -0.611  0.00  0.00    +0.220 C 
BRANCH  21  23
ATOM     23  C   UNL     1       3.177   1.178  -0.542  0.00  0.00    -0.025 A 
ATOM     26  C   UNL     1       3.672   0.615   0.634  0.00  0.00    +0.005 A 
ATOM     27  C   UNL     1       4.009   1.313  -1.654  0.00  0.00    +0.005 A 
ATOM     29  C   UNL     1       4.998   0.186   0.699  0.00  0.00    +0.000 A 
ATOM     30  C   UNL     1       5.334   0.885  -1.590  0.00  0.00    +0.000 A 
ATOM     31  C   UNL     1       5.829   0.321  -0.413  0.00  0.00    +0.000 A 
ENDBRANCH  21  23
ENDBRANCH   1  21
ENDBRANCH   7   1
ENDBRANCH  16   7
ENDBRANCH  11  16
TORSDOF 7
