MODEL 1
REMARK VINA RESULT:      -6.6      0.000      0.000
REMARK  Name = 11912458
REMARK  10 active torsions:
REMARK  status: ('A' for Active; 'I' for Inactive)
REMARK    1  A    between atoms: S_1  and  N_6
REMARK    2  A    between atoms: S_1  and  C_17
REMARK    3  A    between atoms: O_5  and  C_23
REMARK    4  A    between atoms: O_5  and  C_26
REMARK    5  A    between atoms: N_7  and  C_20
REMARK    6  A    between atoms: C_8  and  C_13
REMARK    7  A    between atoms: C_9  and  C_14
REMARK    8  A    between atoms: C_13  and  C_15
REMARK    9  A    between atoms: C_14  and  C_16
REMARK   10  A    between atoms: C_20  and  C_24
REMARK                            x       y       z     vdW  Elec       q    Type
REMARK                         _______ _______ _______ _____ _____    ______ ____
ROOT
ATOM      6  N   UNL     1      13.362   7.884  20.347  0.00  0.00    -0.176 NA
ATOM      8  C   UNL     1      15.442   7.799  21.704  0.00  0.00    +0.008 C 
ATOM      9  C   UNL     1      16.139   7.042  20.547  0.00  0.00    +0.003 C 
ATOM     10  C   UNL     1      15.476   7.350  19.195  0.00  0.00    +0.021 C 
ATOM     11  C   UNL     1      13.932   7.517  21.678  0.00  0.00    +0.113 C 
ATOM     12  C   UNL     1      13.973   7.095  19.240  0.00  0.00    +0.110 C 
ENDROOT
BRANCH   6   1
ATOM      1  S   UNL     1      11.654   8.019  20.295  0.00  0.00    +0.061 S 
ATOM      2  O   UNL     1      11.070   6.870  20.954  0.00  0.00    -0.153 OA
ATOM      3  O   UNL     1      11.254   8.395  18.957  0.00  0.00    -0.153 OA
BRANCH   1  17
ATOM     17  C   UNL     1      11.424   9.419  21.345  0.00  0.00    +0.106 A 
ATOM     18  C   UNL     1      11.803  10.688  20.908  0.00  0.00    +0.032 A 
ATOM     19  C   UNL     1      10.862   9.256  22.611  0.00  0.00    +0.032 A 
ATOM     21  C   UNL     1      11.620  11.795  21.737  0.00  0.00    +0.047 A 
ATOM     22  C   UNL     1      10.680  10.363  23.441  0.00  0.00    +0.047 A 
ATOM     23  C   UNL     1      11.059  11.633  23.003  0.00  0.00    +0.120 A 
BRANCH  23   5
ATOM      5  O   UNL     1      10.882  12.712  23.813  0.00  0.00    -0.495 OA
ATOM     26  C   UNL     1      11.150  12.533  25.203  0.00  0.00    +0.277 C 
ENDBRANCH  23   5
ENDBRANCH   1  17
ENDBRANCH   6   1
BRANCH   8  13
ATOM     13  C   UNL     1      15.707   9.310  21.712  0.00  0.00    +0.002 C 
ATOM     15  C   UNL     1      14.875  10.005  22.768  0.00  0.00    +0.004 C 
ENDBRANCH   8  13
BRANCH   9  14
ATOM     14  C   UNL     1      17.644   7.299  20.481  0.00  0.00    +0.099 C 
BRANCH  14  16
ATOM      4  O   UNL     1      18.007   5.319  19.140  0.00  0.00    -0.276 OA
ATOM      7  N   UNL     1      19.614   5.956  20.692  0.00  0.00    -0.312 N 
ATOM     16  C   UNL     1      18.413   6.083  20.011  0.00  0.00    +0.214 C 
ATOM     27  H   UNL     1      19.866   6.652  21.387  0.00  0.00    +0.149 HD
BRANCH   7  20
ATOM     20  C   UNL     1      20.551   4.882  20.448  0.00  0.00    +0.131 C 
BRANCH  20  24
ATOM     24  C   UNL     1      21.363   4.654  21.680  0.00  0.00    -0.016 C 
ATOM     25  C   UNL     1      22.259   3.669  21.810  0.00  0.00    +0.005 C 
ENDBRANCH  20  24
ENDBRANCH   7  20
ENDBRANCH  14  16
ENDBRANCH   9  14
TORSDOF 8
ENDMDL
MODEL 2
REMARK VINA RESULT:      -6.0      3.314      4.476
REMARK  Name = 11912458
REMARK  10 active torsions:
REMARK  status: ('A' for Active; 'I' for Inactive)
REMARK    1  A    between atoms: S_1  and  N_6
REMARK    2  A    between atoms: S_1  and  C_17
REMARK    3  A    between atoms: O_5  and  C_23
REMARK    4  A    between atoms: O_5  and  C_26
REMARK    5  A    between atoms: N_7  and  C_20
REMARK    6  A    between atoms: C_8  and  C_13
REMARK    7  A    between atoms: C_9  and  C_14
REMARK    8  A    between atoms: C_13  and  C_15
REMARK    9  A    between atoms: C_14  and  C_16
REMARK   10  A    between atoms: C_20  and  C_24
REMARK                            x       y       z     vdW  Elec       q    Type
REMARK                         _______ _______ _______ _____ _____    ______ ____
ROOT
ATOM      6  N   UNL     1      15.128   7.702  20.265  0.00  0.00    -0.176 NA
ATOM      8  C   UNL     1      17.183   8.182  21.577  0.00  0.00    +0.008 C 
ATOM      9  C   UNL     1      17.823   6.894  21.004  0.00  0.00    +0.003 C 
ATOM     10  C   UNL     1      17.200   6.511  19.652  0.00  0.00    +0.021 C 
ATOM     11  C   UNL     1      15.655   8.029  21.623  0.00  0.00    +0.113 C 
ATOM     12  C   UNL     1      15.680   6.418  19.746  0.00  0.00    +0.110 C 
ENDROOT
BRANCH   6   1
ATOM      1  S   UNL     1      13.438   7.906  20.066  0.00  0.00    +0.061 S 
ATOM      2  O   UNL     1      12.956   8.841  21.060  0.00  0.00    -0.153 OA
ATOM      3  O   UNL     1      12.824   6.607  19.904  0.00  0.00    -0.153 OA
BRANCH   1  17
ATOM     17  C   UNL     1      13.410   8.721  18.500  0.00  0.00    +0.106 A 
ATOM     18  C   UNL     1      12.324   8.546  17.642  0.00  0.00    +0.032 A 
ATOM     19  C   UNL     1      14.473   9.541  18.122  0.00  0.00    +0.032 A 
ATOM     21  C   UNL     1      12.302   9.190  16.406  0.00  0.00    +0.047 A 
ATOM     22  C   UNL     1      14.450  10.186  16.884  0.00  0.00    +0.047 A 
ATOM     23  C   UNL     1      13.364  10.010  16.026  0.00  0.00    +0.120 A 
BRANCH  23   5
ATOM      5  O   UNL     1      13.342  10.638  14.819  0.00  0.00    -0.495 OA
ATOM     26  C   UNL     1      14.347  11.622  14.581  0.00  0.00    +0.277 C 
ENDBRANCH  23   5
ENDBRANCH   1  17
ENDBRANCH   6   1
BRANCH   8  13
ATOM     13  C   UNL     1      17.574   9.462  20.827  0.00  0.00    +0.002 C 
ATOM     15  C   UNL     1      17.678  10.639  21.774  0.00  0.00    +0.004 C 
ENDBRANCH   8  13
BRANCH   9  14
ATOM     14  C   UNL     1      19.345   6.978  20.891  0.00  0.00    +0.099 C 
BRANCH  14  16
ATOM      4  O   UNL     1      19.789   6.455  23.210  0.00  0.00    -0.276 OA
ATOM      7  N   UNL     1      20.996   5.373  21.545  0.00  0.00    -0.312 N 
ATOM     16  C   UNL     1      20.044   6.260  22.025  0.00  0.00    +0.214 C 
ATOM     27  H   UNL     1      21.121   5.275  20.542  0.00  0.00    +0.149 HD
BRANCH   7  20
ATOM     20  C   UNL     1      21.818   4.554  22.407  0.00  0.00    +0.131 C 
BRANCH  20  24
ATOM     24  C   UNL     1      22.086   3.250  21.731  0.00  0.00    -0.016 C 
ATOM     25  C   UNL     1      23.189   2.992  21.019  0.00  0.00    +0.005 C 
ENDBRANCH  20  24
ENDBRANCH   7  20
ENDBRANCH  14  16
ENDBRANCH   9  14
TORSDOF 8
ENDMDL
MODEL 3
REMARK VINA RESULT:      -5.7     27.019     29.503
REMARK  Name = 11912458
REMARK  10 active torsions:
REMARK  status: ('A' for Active; 'I' for Inactive)
REMARK    1  A    between atoms: S_1  and  N_6
REMARK    2  A    between atoms: S_1  and  C_17
REMARK    3  A    between atoms: O_5  and  C_23
REMARK    4  A    between atoms: O_5  and  C_26
REMARK    5  A    between atoms: N_7  and  C_20
REMARK    6  A    between atoms: C_8  and  C_13
REMARK    7  A    between atoms: C_9  and  C_14
REMARK    8  A    between atoms: C_13  and  C_15
REMARK    9  A    between atoms: C_14  and  C_16
REMARK   10  A    between atoms: C_20  and  C_24
REMARK                            x       y       z     vdW  Elec       q    Type
REMARK                         _______ _______ _______ _____ _____    ______ ____
ROOT
ATOM      6  N   UNL     1      -3.996 -11.546  15.459  0.00  0.00    -0.176 NA
ATOM      8  C   UNL     1      -6.194 -11.874  16.571  0.00  0.00    +0.008 C 
ATOM      9  C   UNL     1      -5.783 -10.834  17.642  0.00  0.00    +0.003 C 
ATOM     10  C   UNL     1      -4.731  -9.855  17.098  0.00  0.00    +0.021 C 
ATOM     11  C   UNL     1      -4.943 -12.564  16.005  0.00  0.00    +0.113 C 
ATOM     12  C   UNL     1      -3.533 -10.593  16.509  0.00  0.00    +0.110 C 
ENDROOT
BRANCH   6   1
ATOM      1  S   UNL     1      -2.767 -12.163  14.437  0.00  0.00    +0.061 S 
ATOM      2  O   UNL     1      -3.081 -13.535  14.096  0.00  0.00    -0.153 OA
ATOM      3  O   UNL     1      -1.477 -11.808  14.987  0.00  0.00    -0.153 OA
BRANCH   1  17
ATOM     17  C   UNL     1      -3.037 -11.174  13.000  0.00  0.00    +0.106 A 
ATOM     18  C   UNL     1      -1.951 -10.711  12.257  0.00  0.00    +0.032 A 
ATOM     19  C   UNL     1      -4.338 -10.858  12.606  0.00  0.00    +0.032 A 
ATOM     21  C   UNL     1      -2.165  -9.930  11.122  0.00  0.00    +0.047 A 
ATOM     22  C   UNL     1      -4.551 -10.077  11.470  0.00  0.00    +0.047 A 
ATOM     23  C   UNL     1      -3.465  -9.613  10.728  0.00  0.00    +0.120 A 
BRANCH  23   5
ATOM      5  O   UNL     1      -3.673  -8.851   9.620  0.00  0.00    -0.495 OA
ATOM     26  C   UNL     1      -4.670  -9.297   8.702  0.00  0.00    +0.277 C 
ENDBRANCH  23   5
ENDBRANCH   1  17
ENDBRANCH   6   1
BRANCH   8  13
ATOM     13  C   UNL     1      -7.051 -11.299  15.437  0.00  0.00    +0.002 C 
ATOM     15  C   UNL     1      -7.357 -12.354  14.395  0.00  0.00    +0.004 C 
ENDBRANCH   8  13
BRANCH   9  14
ATOM     14  C   UNL     1      -6.972 -10.076  18.231  0.00  0.00    +0.099 C 
BRANCH  14  16
ATOM      4  O   UNL     1      -7.167 -11.666  20.043  0.00  0.00    -0.276 OA
ATOM      7  N   UNL     1      -9.082 -10.652  19.204  0.00  0.00    -0.312 N 
ATOM     16  C   UNL     1      -7.717 -10.893  19.264  0.00  0.00    +0.214 C 
ATOM     27  H   UNL     1      -9.437  -9.980  18.530  0.00  0.00    +0.149 HD
BRANCH   7  20
ATOM     20  C   UNL     1     -10.038 -11.299  20.074  0.00  0.00    +0.131 C 
BRANCH  20  24
ATOM     24  C   UNL     1     -11.312 -10.522  20.062  0.00  0.00    -0.016 C 
ATOM     25  C   UNL     1     -11.688  -9.720  19.060  0.00  0.00    +0.005 C 
ENDBRANCH  20  24
ENDBRANCH   7  20
ENDBRANCH  14  16
ENDBRANCH   9  14
TORSDOF 8
ENDMDL
MODEL 4
REMARK VINA RESULT:      -5.6      2.034      2.440
REMARK  Name = 11912458
REMARK  10 active torsions:
REMARK  status: ('A' for Active; 'I' for Inactive)
REMARK    1  A    between atoms: S_1  and  N_6
REMARK    2  A    between atoms: S_1  and  C_17
REMARK    3  A    between atoms: O_5  and  C_23
REMARK    4  A    between atoms: O_5  and  C_26
REMARK    5  A    between atoms: N_7  and  C_20
REMARK    6  A    between atoms: C_8  and  C_13
REMARK    7  A    between atoms: C_9  and  C_14
REMARK    8  A    between atoms: C_13  and  C_15
REMARK    9  A    between atoms: C_14  and  C_16
REMARK   10  A    between atoms: C_20  and  C_24
REMARK                            x       y       z     vdW  Elec       q    Type
REMARK                         _______ _______ _______ _____ _____    ______ ____
ROOT
ATOM      6  N   UNL     1      13.663   7.791  20.702  0.00  0.00    -0.176 NA
ATOM      8  C   UNL     1      15.834   8.417  21.738  0.00  0.00    +0.008 C 
ATOM      9  C   UNL     1      16.524   7.308  20.907  0.00  0.00    +0.003 C 
ATOM     10  C   UNL     1      15.735   6.991  19.628  0.00  0.00    +0.021 C 
ATOM     11  C   UNL     1      14.366   8.039  21.996  0.00  0.00    +0.113 C 
ATOM     12  C   UNL     1      14.276   6.667  19.938  0.00  0.00    +0.110 C 
ENDROOT
BRANCH   6   1
ATOM      1  S   UNL     1      11.952   7.769  20.791  0.00  0.00    +0.061 S 
ATOM      2  O   UNL     1      11.543   6.769  21.756  0.00  0.00    -0.153 OA
ATOM      3  O   UNL     1      11.412   7.775  19.450  0.00  0.00    -0.153 OA
BRANCH   1  17
ATOM     17  C   UNL     1      11.661   9.357  21.503  0.00  0.00    +0.106 A 
ATOM     18  C   UNL     1      12.077  10.509  20.833  0.00  0.00    +0.032 A 
ATOM     19  C   UNL     1      11.013   9.463  22.734  0.00  0.00    +0.032 A 
ATOM     21  C   UNL     1      11.846  11.764  21.395  0.00  0.00    +0.047 A 
ATOM     22  C   UNL     1      10.783  10.719  23.296  0.00  0.00    +0.047 A 
ATOM     23  C   UNL     1      11.199  11.869  22.626  0.00  0.00    +0.120 A 
BRANCH  23   5
ATOM      5  O   UNL     1      10.975  13.095  23.175  0.00  0.00    -0.495 OA
ATOM     26  C   UNL     1      10.360  13.127  24.462  0.00  0.00    +0.277 C 
ENDBRANCH  23   5
ENDBRANCH   1  17
ENDBRANCH   6   1
BRANCH   8  13
ATOM     13  C   UNL     1      15.928   9.816  21.115  0.00  0.00    +0.002 C 
ATOM     15  C   UNL     1      16.360  10.842  22.141  0.00  0.00    +0.004 C 
ENDBRANCH   8  13
BRANCH   9  14
ATOM     14  C   UNL     1      17.982   7.624  20.576  0.00  0.00    +0.099 C 
BRANCH  14  16
ATOM      4  O   UNL     1      19.214   6.354  22.226  0.00  0.00    -0.276 OA
ATOM      7  N   UNL     1      19.301   8.676  22.276  0.00  0.00    -0.312 N 
ATOM     16  C   UNL     1      18.893   7.449  21.773  0.00  0.00    +0.214 C 
ATOM     27  H   UNL     1      18.990   9.527  21.818  0.00  0.00    +0.149 HD
BRANCH   7  20
ATOM     20  C   UNL     1      20.174   8.810  23.419  0.00  0.00    +0.131 C 
BRANCH  20  24
ATOM     24  C   UNL     1      20.779  10.174  23.415  0.00  0.00    -0.016 C 
ATOM     25  C   UNL     1      20.635  11.051  22.415  0.00  0.00    +0.005 C 
ENDBRANCH  20  24
ENDBRANCH   7  20
ENDBRANCH  14  16
ENDBRANCH   9  14
TORSDOF 8
ENDMDL
MODEL 5
REMARK VINA RESULT:      -5.5     26.859     28.773
REMARK  Name = 11912458
REMARK  10 active torsions:
REMARK  status: ('A' for Active; 'I' for Inactive)
REMARK    1  A    between atoms: S_1  and  N_6
REMARK    2  A    between atoms: S_1  and  C_17
REMARK    3  A    between atoms: O_5  and  C_23
REMARK    4  A    between atoms: O_5  and  C_26
REMARK    5  A    between atoms: N_7  and  C_20
REMARK    6  A    between atoms: C_8  and  C_13
REMARK    7  A    between atoms: C_9  and  C_14
REMARK    8  A    between atoms: C_13  and  C_15
REMARK    9  A    between atoms: C_14  and  C_16
REMARK   10  A    between atoms: C_20  and  C_24
REMARK                            x       y       z     vdW  Elec       q    Type
REMARK                         _______ _______ _______ _____ _____    ______ ____
ROOT
ATOM      6  N   UNL     1      -7.252 -11.262  16.598  0.00  0.00    -0.176 NA
ATOM      8  C   UNL     1      -5.010 -11.873  17.479  0.00  0.00    +0.008 C 
ATOM      9  C   UNL     1      -4.368 -11.243  16.220  0.00  0.00    +0.003 C 
ATOM     10  C   UNL     1      -5.277 -10.168  15.604  0.00  0.00    +0.021 C 
ATOM     11  C   UNL     1      -6.424 -12.376  17.148  0.00  0.00    +0.113 C 
ATOM     12  C   UNL     1      -6.679 -10.709  15.337  0.00  0.00    +0.110 C 
ENDROOT
BRANCH   6   1
ATOM      1  S   UNL     1      -8.941 -11.550  16.569  0.00  0.00    +0.061 S 
ATOM      2  O   UNL     1      -9.363 -12.012  17.875  0.00  0.00    -0.153 OA
ATOM      3  O   UNL     1      -9.270 -12.293  15.373  0.00  0.00    -0.153 OA
BRANCH   1  17
ATOM     17  C   UNL     1      -9.530  -9.899  16.364  0.00  0.00    +0.106 A 
ATOM     18  C   UNL     1     -10.097  -9.507  15.151  0.00  0.00    +0.032 A 
ATOM     19  C   UNL     1      -9.432  -8.987  17.415  0.00  0.00    +0.032 A 
ATOM     21  C   UNL     1     -10.564  -8.202  14.989  0.00  0.00    +0.047 A 
ATOM     22  C   UNL     1      -9.899  -7.683  17.252  0.00  0.00    +0.047 A 
ATOM     23  C   UNL     1     -10.464  -7.290  16.039  0.00  0.00    +0.120 A 
BRANCH  23   5
ATOM      5  O   UNL     1     -10.919  -6.017  15.881  0.00  0.00    -0.495 OA
ATOM     26  C   UNL     1     -12.039  -5.830  15.017  0.00  0.00    +0.277 C 
ENDBRANCH  23   5
ENDBRANCH   1  17
ENDBRANCH   6   1
BRANCH   8  13
ATOM     13  C   UNL     1      -5.042 -10.941  18.698  0.00  0.00    +0.002 C 
ATOM     15  C   UNL     1      -5.958 -11.483  19.775  0.00  0.00    +0.004 C 
ENDBRANCH   8  13
BRANCH   9  14
ATOM     14  C   UNL     1      -2.969 -10.684  16.474  0.00  0.00    +0.099 C 
BRANCH  14  16
ATOM      4  O   UNL     1      -1.178  -9.866  15.068  0.00  0.00    -0.276 OA
ATOM      7  N   UNL     1      -2.612 -11.503  14.253  0.00  0.00    -0.312 N 
ATOM     16  C   UNL     1      -2.139 -10.617  15.210  0.00  0.00    +0.214 C 
ATOM     27  H   UNL     1      -3.408 -12.094  14.475  0.00  0.00    +0.149 HD
BRANCH   7  20
ATOM     20  C   UNL     1      -2.012 -11.650  12.947  0.00  0.00    +0.131 C 
BRANCH  20  24
ATOM     24  C   UNL     1      -2.651 -10.684  12.005  0.00  0.00    -0.016 C 
ATOM     25  C   UNL     1      -1.968  -9.834  11.231  0.00  0.00    +0.005 C 
ENDBRANCH  20  24
ENDBRANCH   7  20
ENDBRANCH  14  16
ENDBRANCH   9  14
TORSDOF 8
ENDMDL
MODEL 6
REMARK VINA RESULT:      -5.5     18.086     21.184
REMARK  Name = 11912458
REMARK  10 active torsions:
REMARK  status: ('A' for Active; 'I' for Inactive)
REMARK    1  A    between atoms: S_1  and  N_6
REMARK    2  A    between atoms: S_1  and  C_17
REMARK    3  A    between atoms: O_5  and  C_23
REMARK    4  A    between atoms: O_5  and  C_26
REMARK    5  A    between atoms: N_7  and  C_20
REMARK    6  A    between atoms: C_8  and  C_13
REMARK    7  A    between atoms: C_9  and  C_14
REMARK    8  A    between atoms: C_13  and  C_15
REMARK    9  A    between atoms: C_14  and  C_16
REMARK   10  A    between atoms: C_20  and  C_24
REMARK                            x       y       z     vdW  Elec       q    Type
REMARK                         _______ _______ _______ _____ _____    ______ ____
ROOT
ATOM      6  N   UNL     1      12.966   5.338   1.970  0.00  0.00    -0.176 NA
ATOM      8  C   UNL     1      10.643   5.395   2.851  0.00  0.00    +0.008 C 
ATOM      9  C   UNL     1      11.099   6.410   3.927  0.00  0.00    +0.003 C 
ATOM     10  C   UNL     1      12.339   7.194   3.469  0.00  0.00    +0.021 C 
ATOM     11  C   UNL     1      11.824   4.500   2.442  0.00  0.00    +0.113 C 
ATOM     12  C   UNL     1      13.462   6.258   3.034  0.00  0.00    +0.110 C 
ENDROOT
BRANCH   6   1
ATOM      1  S   UNL     1      14.183   4.497   1.104  0.00  0.00    +0.061 S 
ATOM      2  O   UNL     1      14.389   3.203   1.718  0.00  0.00    -0.153 OA
ATOM      3  O   UNL     1      15.291   5.394   0.861  0.00  0.00    -0.153 OA
BRANCH   1  17
ATOM     17  C   UNL     1      13.345   4.240  -0.429  0.00  0.00    +0.106 A 
ATOM     18  C   UNL     1      13.161   5.306  -1.310  0.00  0.00    +0.032 A 
ATOM     19  C   UNL     1      12.869   2.971  -0.760  0.00  0.00    +0.032 A 
ATOM     21  C   UNL     1      12.501   5.103  -2.522  0.00  0.00    +0.047 A 
ATOM     22  C   UNL     1      12.208   2.769  -1.971  0.00  0.00    +0.047 A 
ATOM     23  C   UNL     1      12.024   3.835  -2.852  0.00  0.00    +0.120 A 
BRANCH  23   5
ATOM      5  O   UNL     1      11.379   3.637  -4.034  0.00  0.00    -0.495 OA
ATOM     26  C   UNL     1      10.187   2.854  -4.000  0.00  0.00    +0.277 C 
ENDBRANCH  23   5
ENDBRANCH   1  17
ENDBRANCH   6   1
BRANCH   8  13
ATOM     13  C   UNL     1      10.003   6.040   1.614  0.00  0.00    +0.002 C 
ATOM     15  C   UNL     1       9.862   5.038   0.488  0.00  0.00    +0.004 C 
ENDBRANCH   8  13
BRANCH   9  14
ATOM     14  C   UNL     1       9.988   7.364   4.363  0.00  0.00    +0.099 C 
BRANCH  14  16
ATOM      4  O   UNL     1       8.102   6.244   5.383  0.00  0.00    -0.276 OA
ATOM      7  N   UNL     1       9.820   7.042   6.730  0.00  0.00    -0.312 N 
ATOM     16  C   UNL     1       9.181   6.814   5.520  0.00  0.00    +0.214 C 
ATOM     27  H   UNL     1      10.721   7.511   6.734  0.00  0.00    +0.149 HD
BRANCH   7  20
ATOM     20  C   UNL     1       9.275   6.625   8.002  0.00  0.00    +0.131 C 
BRANCH  20  24
ATOM     24  C   UNL     1       9.894   5.326   8.396  0.00  0.00    -0.016 C 
ATOM     25  C   UNL     1       9.373   4.497   9.308  0.00  0.00    +0.005 C 
ENDBRANCH  20  24
ENDBRANCH   7  20
ENDBRANCH  14  16
ENDBRANCH   9  14
TORSDOF 8
ENDMDL
MODEL 7
REMARK VINA RESULT:      -5.5     26.323     28.898
REMARK  Name = 11912458
REMARK  10 active torsions:
REMARK  status: ('A' for Active; 'I' for Inactive)
REMARK    1  A    between atoms: S_1  and  N_6
REMARK    2  A    between atoms: S_1  and  C_17
REMARK    3  A    between atoms: O_5  and  C_23
REMARK    4  A    between atoms: O_5  and  C_26
REMARK    5  A    between atoms: N_7  and  C_20
REMARK    6  A    between atoms: C_8  and  C_13
REMARK    7  A    between atoms: C_9  and  C_14
REMARK    8  A    between atoms: C_13  and  C_15
REMARK    9  A    between atoms: C_14  and  C_16
REMARK   10  A    between atoms: C_20  and  C_24
REMARK                            x       y       z     vdW  Elec       q    Type
REMARK                         _______ _______ _______ _____ _____    ______ ____
ROOT
ATOM      6  N   UNL     1      -3.650 -12.273  14.361  0.00  0.00    -0.176 NA
ATOM      8  C   UNL     1      -3.598 -10.493  16.095  0.00  0.00    +0.008 C 
ATOM      9  C   UNL     1      -4.762 -11.202  16.827  0.00  0.00    +0.003 C 
ATOM     10  C   UNL     1      -4.798 -12.704  16.502  0.00  0.00    +0.021 C 
ATOM     11  C   UNL     1      -3.664 -10.797  14.589  0.00  0.00    +0.113 C 
ATOM     12  C   UNL     1      -4.818 -12.948  14.996  0.00  0.00    +0.110 C 
ENDROOT
BRANCH   6   1
ATOM      1  S   UNL     1      -3.305 -12.762  12.755  0.00  0.00    +0.061 S 
ATOM      2  O   UNL     1      -4.147 -13.889  12.414  0.00  0.00    -0.153 OA
ATOM      3  O   UNL     1      -1.871 -12.822  12.581  0.00  0.00    -0.153 OA
BRANCH   1  17
ATOM     17  C   UNL     1      -3.902 -11.355  11.872  0.00  0.00    +0.106 A 
ATOM     18  C   UNL     1      -5.269 -11.074  11.849  0.00  0.00    +0.032 A 
ATOM     19  C   UNL     1      -3.008 -10.523  11.198  0.00  0.00    +0.032 A 
ATOM     21  C   UNL     1      -5.741  -9.962  11.152  0.00  0.00    +0.047 A 
ATOM     22  C   UNL     1      -3.481  -9.411  10.501  0.00  0.00    +0.047 A 
ATOM     23  C   UNL     1      -4.847  -9.131  10.478  0.00  0.00    +0.120 A 
BRANCH  23   5
ATOM      5  O   UNL     1      -5.308  -8.046   9.797  0.00  0.00    -0.495 OA
ATOM     26  C   UNL     1      -6.547  -8.192   9.105  0.00  0.00    +0.277 C 
ENDBRANCH  23   5
ENDBRANCH   1  17
ENDBRANCH   6   1
BRANCH   8  13
ATOM     13  C   UNL     1      -2.209 -10.832  16.651  0.00  0.00    +0.002 C 
ATOM     15  C   UNL     1      -1.115 -10.288  15.758  0.00  0.00    +0.004 C 
ENDBRANCH   8  13
BRANCH   9  14
ATOM     14  C   UNL     1      -4.748 -10.978  18.338  0.00  0.00    +0.099 C 
BRANCH  14  16
ATOM      4  O   UNL     1      -6.394 -10.616  20.073  0.00  0.00    -0.276 OA
ATOM      7  N   UNL     1      -6.989 -10.292  17.850  0.00  0.00    -0.312 N 
ATOM     16  C   UNL     1      -6.115 -10.616  18.877  0.00  0.00    +0.214 C 
ATOM     27  H   UNL     1      -6.654 -10.308  16.891  0.00  0.00    +0.149 HD
BRANCH   7  20
ATOM     20  C   UNL     1      -8.364  -9.909  18.074  0.00  0.00    +0.131 C 
BRANCH  20  24
ATOM     24  C   UNL     1      -8.737  -8.839  17.103  0.00  0.00    -0.016 C 
ATOM     25  C   UNL     1      -9.781  -8.017  17.262  0.00  0.00    +0.005 C 
ENDBRANCH  20  24
ENDBRANCH   7  20
ENDBRANCH  14  16
ENDBRANCH   9  14
TORSDOF 8
ENDMDL
MODEL 8
REMARK VINA RESULT:      -5.5     25.757     27.426
REMARK  Name = 11912458
REMARK  10 active torsions:
REMARK  status: ('A' for Active; 'I' for Inactive)
REMARK    1  A    between atoms: S_1  and  N_6
REMARK    2  A    between atoms: S_1  and  C_17
REMARK    3  A    between atoms: O_5  and  C_23
REMARK    4  A    between atoms: O_5  and  C_26
REMARK    5  A    between atoms: N_7  and  C_20
REMARK    6  A    between atoms: C_8  and  C_13
REMARK    7  A    between atoms: C_9  and  C_14
REMARK    8  A    between atoms: C_13  and  C_15
REMARK    9  A    between atoms: C_14  and  C_16
REMARK   10  A    between atoms: C_20  and  C_24
REMARK                            x       y       z     vdW  Elec       q    Type
REMARK                         _______ _______ _______ _____ _____    ______ ____
ROOT
ATOM      6  N   UNL     1     -13.336   9.932  20.770  0.00  0.00    -0.176 NA
ATOM      8  C   UNL     1     -12.400   8.116  19.354  0.00  0.00    +0.008 C 
ATOM      9  C   UNL     1     -11.719   9.188  18.469  0.00  0.00    +0.003 C 
ATOM     10  C   UNL     1     -11.474  10.488  19.250  0.00  0.00    +0.021 C 
ATOM     11  C   UNL     1     -13.669   8.699  19.996  0.00  0.00    +0.113 C 
ATOM     12  C   UNL     1     -12.756  10.997  19.902  0.00  0.00    +0.110 C 
ENDROOT
BRANCH   6   1
ATOM      1  S   UNL     1     -14.544  10.457  21.866  0.00  0.00    +0.061 S 
ATOM      2  O   UNL     1     -15.489   9.381  22.077  0.00  0.00    -0.153 OA
ATOM      3  O   UNL     1     -14.989  11.776  21.477  0.00  0.00    -0.153 OA
BRANCH   1  17
ATOM     17  C   UNL     1     -13.575  10.620  23.333  0.00  0.00    +0.106 A 
ATOM     18  C   UNL     1     -14.055  10.120  24.544  0.00  0.00    +0.032 A 
ATOM     19  C   UNL     1     -12.330  11.246  23.281  0.00  0.00    +0.032 A 
ATOM     21  C   UNL     1     -13.289  10.247  25.703  0.00  0.00    +0.047 A 
ATOM     22  C   UNL     1     -11.565  11.373  24.441  0.00  0.00    +0.047 A 
ATOM     23  C   UNL     1     -12.045  10.874  25.652  0.00  0.00    +0.120 A 
BRANCH  23   5
ATOM      5  O   UNL     1     -11.298  10.999  26.783  0.00  0.00    -0.495 OA
ATOM     26  C   UNL     1     -10.103  10.224  26.862  0.00  0.00    +0.277 C 
ENDBRANCH  23   5
ENDBRANCH   1  17
ENDBRANCH   6   1
BRANCH   8  13
ATOM     13  C   UNL     1     -11.482   7.514  20.426  0.00  0.00    +0.002 C 
ATOM     15  C   UNL     1     -12.155   6.356  21.132  0.00  0.00    +0.004 C 
ENDBRANCH   8  13
BRANCH   9  14
ATOM     14  C   UNL     1     -10.425   8.697  17.819  0.00  0.00    +0.099 C 
BRANCH  14  16
ATOM      4  O   UNL     1     -10.251  10.062  15.830  0.00  0.00    -0.276 OA
ATOM      7  N   UNL     1     -10.574   7.771  15.617  0.00  0.00    -0.312 N 
ATOM     16  C   UNL     1     -10.402   8.950  16.327  0.00  0.00    +0.214 C 
ATOM     27  H   UNL     1     -10.676   6.897  16.124  0.00  0.00    +0.149 HD
BRANCH   7  20
ATOM     20  C   UNL     1     -10.596   7.714  14.173  0.00  0.00    +0.131 C 
BRANCH  20  24
ATOM     24  C   UNL     1     -12.012   7.781  13.703  0.00  0.00    -0.016 C 
ATOM     25  C   UNL     1     -12.605   8.902  13.278  0.00  0.00    +0.005 C 
ENDBRANCH  20  24
ENDBRANCH   7  20
ENDBRANCH  14  16
ENDBRANCH   9  14
TORSDOF 8
ENDMDL
MODEL 9
REMARK VINA RESULT:      -5.5     26.222     28.525
REMARK  Name = 11912458
REMARK  10 active torsions:
REMARK  status: ('A' for Active; 'I' for Inactive)
REMARK    1  A    between atoms: S_1  and  N_6
REMARK    2  A    between atoms: S_1  and  C_17
REMARK    3  A    between atoms: O_5  and  C_23
REMARK    4  A    between atoms: O_5  and  C_26
REMARK    5  A    between atoms: N_7  and  C_20
REMARK    6  A    between atoms: C_8  and  C_13
REMARK    7  A    between atoms: C_9  and  C_14
REMARK    8  A    between atoms: C_13  and  C_15
REMARK    9  A    between atoms: C_14  and  C_16
REMARK   10  A    between atoms: C_20  and  C_24
REMARK                            x       y       z     vdW  Elec       q    Type
REMARK                         _______ _______ _______ _____ _____    ______ ____
ROOT
ATOM      6  N   UNL     1     -12.267   9.118  19.728  0.00  0.00    -0.176 NA
ATOM      8  C   UNL     1     -13.812   7.778  21.141  0.00  0.00    +0.008 C 
ATOM      9  C   UNL     1     -12.857   6.569  20.999  0.00  0.00    +0.003 C 
ATOM     10  C   UNL     1     -11.417   7.022  20.711  0.00  0.00    +0.021 C 
ATOM     11  C   UNL     1     -13.686   8.690  19.910  0.00  0.00    +0.113 C 
ATOM     12  C   UNL     1     -11.357   7.959  19.508  0.00  0.00    +0.110 C 
ENDROOT
BRANCH   6   1
ATOM      1  S   UNL     1     -12.033  10.445  18.669  0.00  0.00    +0.061 S 
ATOM      2  O   UNL     1     -10.764  11.073  18.974  0.00  0.00    -0.153 OA
ATOM      3  O   UNL     1     -13.253  11.219  18.609  0.00  0.00    -0.153 OA
BRANCH   1  17
ATOM     17  C   UNL     1     -11.857   9.587  17.137  0.00  0.00    +0.106 A 
ATOM     18  C   UNL     1     -10.585   9.342  16.617  0.00  0.00    +0.032 A 
ATOM     19  C   UNL     1     -12.988   9.150  16.448  0.00  0.00    +0.032 A 
ATOM     21  C   UNL     1     -10.446   8.663  15.407  0.00  0.00    +0.047 A 
ATOM     22  C   UNL     1     -12.848   8.470  15.237  0.00  0.00    +0.047 A 
ATOM     23  C   UNL     1     -11.577   8.227  14.717  0.00  0.00    +0.120 A 
BRANCH  23   5
ATOM      5  O   UNL     1     -11.441   7.565  13.535  0.00  0.00    -0.495 OA
ATOM     26  C   UNL     1     -10.138   7.532  12.956  0.00  0.00    +0.277 C 
ENDBRANCH  23   5
ENDBRANCH   1  17
ENDBRANCH   6   1
BRANCH   8  13
ATOM     13  C   UNL     1     -13.614   8.585  22.430  0.00  0.00    +0.002 C 
ATOM     15  C   UNL     1     -14.911   8.710  23.201  0.00  0.00    +0.004 C 
ENDBRANCH   8  13
BRANCH   9  14
ATOM     14  C   UNL     1     -12.895   5.628  22.203  0.00  0.00    +0.099 C 
BRANCH  14  16
ATOM      4  O   UNL     1     -15.042   4.703  21.581  0.00  0.00    -0.276 OA
ATOM      7  N   UNL     1     -14.578   5.104  23.822  0.00  0.00    -0.312 N 
ATOM     16  C   UNL     1     -14.285   5.091  22.467  0.00  0.00    +0.214 C 
ATOM     27  H   UNL     1     -13.875   5.432  24.478  0.00  0.00    +0.149 HD
BRANCH   7  20
ATOM     20  C   UNL     1     -15.839   4.648  24.363  0.00  0.00    +0.131 C 
BRANCH  20  24
ATOM     24  C   UNL     1     -15.657   3.287  24.947  0.00  0.00    -0.016 C 
ATOM     25  C   UNL     1     -16.546   2.697  25.753  0.00  0.00    +0.005 C 
ENDBRANCH  20  24
ENDBRANCH   7  20
ENDBRANCH  14  16
ENDBRANCH   9  14
TORSDOF 8
ENDMDL
MODEL 10
REMARK VINA RESULT:      -5.4     29.873     32.064
REMARK  Name = 11912458
REMARK  10 active torsions:
REMARK  status: ('A' for Active; 'I' for Inactive)
REMARK    1  A    between atoms: S_1  and  N_6
REMARK    2  A    between atoms: S_1  and  C_17
REMARK    3  A    between atoms: O_5  and  C_23
REMARK    4  A    between atoms: O_5  and  C_26
REMARK    5  A    between atoms: N_7  and  C_20
REMARK    6  A    between atoms: C_8  and  C_13
REMARK    7  A    between atoms: C_9  and  C_14
REMARK    8  A    between atoms: C_13  and  C_15
REMARK    9  A    between atoms: C_14  and  C_16
REMARK   10  A    between atoms: C_20  and  C_24
REMARK                            x       y       z     vdW  Elec       q    Type
REMARK                         _______ _______ _______ _____ _____    ______ ____
ROOT
ATOM      6  N   UNL     1     -16.594   2.273  29.528  0.00  0.00    -0.176 NA
ATOM      8  C   UNL     1     -14.212   2.360  30.233  0.00  0.00    +0.008 C 
ATOM      9  C   UNL     1     -14.566   3.508  31.209  0.00  0.00    +0.003 C 
ATOM     10  C   UNL     1     -16.046   3.459  31.621  0.00  0.00    +0.021 C 
ATOM     11  C   UNL     1     -15.185   2.368  29.043  0.00  0.00    +0.113 C 
ATOM     12  C   UNL     1     -16.963   3.423  30.402  0.00  0.00    +0.110 C 
ENDROOT
BRANCH   6   1
ATOM      1  S   UNL     1     -17.753   1.858  28.336  0.00  0.00    +0.061 S 
ATOM      2  O   UNL     1     -19.042   2.390  28.726  0.00  0.00    -0.153 OA
ATOM      3  O   UNL     1     -17.594   0.461  27.994  0.00  0.00    -0.153 OA
BRANCH   1  17
ATOM     17  C   UNL     1     -17.158   2.821  26.982  0.00  0.00    +0.106 A 
ATOM     18  C   UNL     1     -17.404   4.194  26.942  0.00  0.00    +0.032 A 
ATOM     19  C   UNL     1     -16.440   2.211  25.953  0.00  0.00    +0.032 A 
ATOM     21  C   UNL     1     -16.933   4.955  25.872  0.00  0.00    +0.047 A 
ATOM     22  C   UNL     1     -15.969   2.973  24.884  0.00  0.00    +0.047 A 
ATOM     23  C   UNL     1     -16.216   4.345  24.844  0.00  0.00    +0.120 A 
BRANCH  23   5
ATOM      5  O   UNL     1     -15.757   5.089  23.800  0.00  0.00    -0.495 OA
ATOM     26  C   UNL     1     -14.372   4.974  23.480  0.00  0.00    +0.277 C 
ENDBRANCH  23   5
ENDBRANCH   1  17
ENDBRANCH   6   1
BRANCH   8  13
ATOM     13  C   UNL     1     -14.173   0.973  30.886  0.00  0.00    +0.002 C 
ATOM     15  C   UNL     1     -13.621  -0.065  29.932  0.00  0.00    +0.004 C 
ENDBRANCH   8  13
BRANCH   9  14
ATOM     14  C   UNL     1     -13.664   3.548  32.442  0.00  0.00    +0.099 C 
BRANCH  14  16
ATOM      4  O   UNL     1     -14.462   4.428  34.549  0.00  0.00    -0.276 OA
ATOM      7  N   UNL     1     -13.918   5.896  32.832  0.00  0.00    -0.312 N 
ATOM     16  C   UNL     1     -14.063   4.643  33.408  0.00  0.00    +0.214 C 
ATOM     27  H   UNL     1     -13.564   5.968  31.883  0.00  0.00    +0.149 HD
BRANCH   7  20
ATOM     20  C   UNL     1     -14.229   7.125  33.527  0.00  0.00    +0.131 C 
BRANCH  20  24
ATOM     24  C   UNL     1     -13.069   8.058  33.412  0.00  0.00    -0.016 C 
ATOM     25  C   UNL     1     -12.279   8.136  32.336  0.00  0.00    +0.005 C 
ENDBRANCH  20  24
ENDBRANCH   7  20
ENDBRANCH  14  16
ENDBRANCH   9  14
TORSDOF 8
ENDMDL
