MODEL 1
REMARK VINA RESULT:      -7.1      0.000      0.000
REMARK  Name = 38028426
REMARK  13 active torsions:
REMARK  status: ('A' for Active; 'I' for Inactive)
REMARK    1  A    between atoms: S_1  and  N_5
REMARK    2  A    between atoms: S_1  and  C_21
REMARK    3  A    between atoms: N_5  and  C_15
REMARK    4  A    between atoms: N_6  and  C_22
REMARK    5  A    between atoms: C_8  and  C_12
REMARK    6  A    between atoms: C_9  and  C_15
REMARK    7  A    between atoms: C_11  and  C_16
REMARK    8  A    between atoms: C_12  and  C_17
REMARK    9  A    between atoms: C_12  and  C_18
REMARK   10  A    between atoms: C_13  and  C_19
REMARK   11  A    between atoms: C_16  and  C_20
REMARK   12  A    between atoms: C_22  and  C_25
REMARK   13  A    between atoms: C_28  and  C_31
REMARK                            x       y       z     vdW  Elec       q    Type
REMARK                         _______ _______ _______ _____ _____    ______ ____
ROOT
ATOM      8  C   UNL     1      16.809   8.321  21.120  0.00  0.00    +0.000 C 
ATOM      9  C   UNL     1      16.262   7.366  20.029  0.00  0.00    +0.030 C 
ATOM     10  C   UNL     1      18.319   8.536  20.936  0.00  0.00    +0.012 C 
ATOM     11  C   UNL     1      19.108   7.214  21.005  0.00  0.00    +0.023 C 
ATOM     13  C   UNL     1      18.470   6.134  20.156  0.00  0.00    -0.073 C 
ATOM     14  C   UNL     1      17.202   6.225  19.719  0.00  0.00    -0.023 C 
ATOM     19  C   UNL     1      19.338   4.964  19.783  0.00  0.00    +0.039 C 
ENDROOT
BRANCH   8  12
ATOM     12  C   UNL     1      16.088   9.673  21.106  0.00  0.00    -0.013 C 
ATOM     17  C   UNL     1      17.068  10.795  20.781  0.00  0.00    +0.007 C 
ATOM     18  C   UNL     1      15.403   9.924  22.446  0.00  0.00    +0.007 C 
ENDBRANCH   8  12
BRANCH   9  15
ATOM     15  C   UNL     1      14.891   6.807  20.422  0.00  0.00    +0.113 C 
BRANCH  15   5
ATOM      5  N   UNL     1      14.109   6.549  19.203  0.00  0.00    -0.189 NA
ATOM     34  H   UNL     1      14.638   6.380  18.340  0.00  0.00    +0.148 HD
BRANCH   5   1
ATOM      1  S   UNL     1      12.527   7.165  19.054  0.00  0.00    +0.058 S 
ATOM      3  O   UNL     1      11.714   6.665  20.146  0.00  0.00    -0.153 OA
ATOM      4  O   UNL     1      12.083   7.007  17.682  0.00  0.00    -0.153 OA
BRANCH   1  21
ATOM     21  C   UNL     1      12.788   8.894  19.315  0.00  0.00    +0.105 A 
ATOM     23  C   UNL     1      12.239   9.521  20.434  0.00  0.00    +0.029 A 
ATOM     24  C   UNL     1      13.540   9.632  18.400  0.00  0.00    +0.029 A 
ATOM     26  C   UNL     1      12.443  10.885  20.638  0.00  0.00    +0.005 A 
ATOM     27  C   UNL     1      13.744  10.996  18.606  0.00  0.00    +0.005 A 
ATOM     28  C   UNL     1      13.195  11.622  19.725  0.00  0.00    -0.050 A 
ATOM     31  C   UNL     1      13.413  13.082  19.944  0.00  0.00    +0.044 C 
ENDBRANCH   1  21
ENDBRANCH   5   1
ENDBRANCH  15   5
ENDBRANCH   9  15
BRANCH  11  16
ATOM     16  C   UNL     1      19.276   6.746  22.454  0.00  0.00    +0.103 C 
BRANCH  16  20
ATOM      2  O   UNL     1      21.312   7.703  23.345  0.00  0.00    -0.276 OA
ATOM      6  N   UNL     1      21.290   5.477  22.679  0.00  0.00    -0.311 N 
ATOM     20  C   UNL     1      20.726   6.728  22.882  0.00  0.00    +0.214 C 
ATOM     35  H   UNL     1      20.721   4.728  22.294  0.00  0.00    +0.149 HD
BRANCH   6  22
ATOM     22  C   UNL     1      22.666   5.170  22.998  0.00  0.00    +0.141 C 
BRANCH  22  25
ATOM      7  N   UNL     1      24.463   4.010  19.880  0.00  0.00    -0.263 NA
ATOM     25  C   UNL     1      23.289   4.261  21.978  0.00  0.00    -0.012 A 
ATOM     29  C   UNL     1      23.286   2.881  22.150  0.00  0.00    +0.008 A 
ATOM     30  C   UNL     1      23.885   4.771  20.836  0.00  0.00    +0.115 A 
ATOM     32  C   UNL     1      23.870   2.065  21.188  0.00  0.00    +0.020 A 
ATOM     33  C   UNL     1      24.440   2.673  20.081  0.00  0.00    +0.111 A 
ENDBRANCH  22  25
ENDBRANCH   6  22
ENDBRANCH  16  20
ENDBRANCH  11  16
TORSDOF 9
ENDMDL
MODEL 2
REMARK VINA RESULT:      -6.6     27.759     30.654
REMARK  Name = 38028426
REMARK  13 active torsions:
REMARK  status: ('A' for Active; 'I' for Inactive)
REMARK    1  A    between atoms: S_1  and  N_5
REMARK    2  A    between atoms: S_1  and  C_21
REMARK    3  A    between atoms: N_5  and  C_15
REMARK    4  A    between atoms: N_6  and  C_22
REMARK    5  A    between atoms: C_8  and  C_12
REMARK    6  A    between atoms: C_9  and  C_15
REMARK    7  A    between atoms: C_11  and  C_16
REMARK    8  A    between atoms: C_12  and  C_17
REMARK    9  A    between atoms: C_12  and  C_18
REMARK   10  A    between atoms: C_13  and  C_19
REMARK   11  A    between atoms: C_16  and  C_20
REMARK   12  A    between atoms: C_22  and  C_25
REMARK   13  A    between atoms: C_28  and  C_31
REMARK                            x       y       z     vdW  Elec       q    Type
REMARK                         _______ _______ _______ _____ _____    ______ ____
ROOT
ATOM      8  C   UNL     1      -5.732 -10.609  15.270  0.00  0.00    +0.000 C 
ATOM      9  C   UNL     1      -6.561 -10.591  16.579  0.00  0.00    +0.030 C 
ATOM     10  C   UNL     1      -4.782 -11.816  15.253  0.00  0.00    +0.012 C 
ATOM     11  C   UNL     1      -3.808 -11.810  16.447  0.00  0.00    +0.023 C 
ATOM     13  C   UNL     1      -4.523 -11.529  17.753  0.00  0.00    -0.073 C 
ATOM     14  C   UNL     1      -5.758 -10.996  17.792  0.00  0.00    -0.023 C 
ATOM     19  C   UNL     1      -3.804 -11.916  19.015  0.00  0.00    +0.039 C 
ENDROOT
BRANCH   8  12
ATOM     12  C   UNL     1      -6.629 -10.637  14.028  0.00  0.00    -0.013 C 
ATOM     17  C   UNL     1      -6.706 -12.050  13.460  0.00  0.00    +0.007 C 
ATOM     18  C   UNL     1      -6.113  -9.659  12.977  0.00  0.00    +0.007 C 
ENDBRANCH   8  12
BRANCH   9  15
ATOM     15  C   UNL     1      -7.187  -9.213  16.817  0.00  0.00    +0.113 C 
BRANCH  15   5
ATOM      5  N   UNL     1      -8.247  -9.336  17.831  0.00  0.00    -0.189 NA
ATOM     34  H   UNL     1      -8.082 -10.000  18.596  0.00  0.00    +0.148 HD
BRANCH   5   1
ATOM      1  S   UNL     1      -9.863  -8.977  17.428  0.00  0.00    +0.058 S 
ATOM      3  O   UNL     1     -10.005  -7.545  17.248  0.00  0.00    -0.153 OA
ATOM      4  O   UNL     1     -10.747  -9.690  18.331  0.00  0.00    -0.153 OA
BRANCH   1  21
ATOM     21  C   UNL     1     -10.017  -9.745  15.843  0.00  0.00    +0.105 A 
ATOM     23  C   UNL     1     -10.008  -8.964  14.687  0.00  0.00    +0.029 A 
ATOM     24  C   UNL     1     -10.152 -11.131  15.749  0.00  0.00    +0.029 A 
ATOM     26  C   UNL     1     -10.132  -9.570  13.437  0.00  0.00    +0.005 A 
ATOM     27  C   UNL     1     -10.275 -11.735  14.498  0.00  0.00    +0.005 A 
ATOM     28  C   UNL     1     -10.266 -10.955  13.342  0.00  0.00    -0.050 A 
ATOM     31  C   UNL     1     -10.399 -11.602  12.005  0.00  0.00    +0.044 C 
ENDBRANCH   1  21
ENDBRANCH   5   1
ENDBRANCH  15   5
ENDBRANCH   9  15
BRANCH  11  16
ATOM     16  C   UNL     1      -2.666 -10.814  16.222  0.00  0.00    +0.103 C 
BRANCH  16  20
ATOM      2  O   UNL     1      -1.164 -12.052  14.785  0.00  0.00    -0.276 OA
ATOM      6  N   UNL     1      -2.187 -10.126  13.982  0.00  0.00    -0.311 N 
ATOM     20  C   UNL     1      -1.914 -11.092  14.940  0.00  0.00    +0.214 C 
ATOM     35  H   UNL     1      -2.829  -9.369  14.203  0.00  0.00    +0.149 HD
BRANCH   6  22
ATOM     22  C   UNL     1      -1.606 -10.138  12.660  0.00  0.00    +0.141 C 
BRANCH  22  25
ATOM      7  N   UNL     1      -3.876  -9.897   9.646  0.00  0.00    -0.263 NA
ATOM     25  C   UNL     1      -2.608 -10.517  11.609  0.00  0.00    -0.012 A 
ATOM     29  C   UNL     1      -3.193 -11.778  11.597  0.00  0.00    +0.008 A 
ATOM     30  C   UNL     1      -2.980  -9.620  10.620  0.00  0.00    +0.115 A 
ATOM     32  C   UNL     1      -4.119 -12.099  10.612  0.00  0.00    +0.020 A 
ATOM     33  C   UNL     1      -4.424 -11.132   9.668  0.00  0.00    +0.111 A 
ENDBRANCH  22  25
ENDBRANCH   6  22
ENDBRANCH  16  20
ENDBRANCH  11  16
TORSDOF 9
ENDMDL
MODEL 3
REMARK VINA RESULT:      -6.5     28.636     31.639
REMARK  Name = 38028426
REMARK  13 active torsions:
REMARK  status: ('A' for Active; 'I' for Inactive)
REMARK    1  A    between atoms: S_1  and  N_5
REMARK    2  A    between atoms: S_1  and  C_21
REMARK    3  A    between atoms: N_5  and  C_15
REMARK    4  A    between atoms: N_6  and  C_22
REMARK    5  A    between atoms: C_8  and  C_12
REMARK    6  A    between atoms: C_9  and  C_15
REMARK    7  A    between atoms: C_11  and  C_16
REMARK    8  A    between atoms: C_12  and  C_17
REMARK    9  A    between atoms: C_12  and  C_18
REMARK   10  A    between atoms: C_13  and  C_19
REMARK   11  A    between atoms: C_16  and  C_20
REMARK   12  A    between atoms: C_22  and  C_25
REMARK   13  A    between atoms: C_28  and  C_31
REMARK                            x       y       z     vdW  Elec       q    Type
REMARK                         _______ _______ _______ _____ _____    ______ ____
ROOT
ATOM      8  C   UNL     1      -5.974 -11.305  15.139  0.00  0.00    +0.000 C 
ATOM      9  C   UNL     1      -4.607 -11.523  15.835  0.00  0.00    +0.030 C 
ATOM     10  C   UNL     1      -6.715 -10.119  15.775  0.00  0.00    +0.012 C 
ATOM     11  C   UNL     1      -6.963 -10.327  17.282  0.00  0.00    +0.023 C 
ATOM     13  C   UNL     1      -5.716 -10.806  17.995  0.00  0.00    -0.073 C 
ATOM     14  C   UNL     1      -4.668 -11.326  17.331  0.00  0.00    -0.023 C 
ATOM     19  C   UNL     1      -5.681 -10.634  19.488  0.00  0.00    +0.039 C 
ENDROOT
BRANCH   8  12
ATOM     12  C   UNL     1      -5.814 -11.069  13.633  0.00  0.00    -0.013 C 
ATOM     17  C   UNL     1      -5.979  -9.589  13.307  0.00  0.00    +0.007 C 
ATOM     18  C   UNL     1      -6.821 -11.910  12.854  0.00  0.00    +0.007 C 
ENDBRANCH   8  12
BRANCH   9  15
ATOM     15  C   UNL     1      -4.046 -12.915  15.525  0.00  0.00    +0.113 C 
BRANCH  15   5
ATOM      5  N   UNL     1      -2.656 -12.782  15.062  0.00  0.00    -0.189 NA
ATOM     34  H   UNL     1      -2.139 -11.953  15.380  0.00  0.00    +0.148 HD
BRANCH   5   1
ATOM      1  S   UNL     1      -2.166 -13.508  13.600  0.00  0.00    +0.058 S 
ATOM      3  O   UNL     1      -2.976 -14.687  13.358  0.00  0.00    -0.153 OA
ATOM      4  O   UNL     1      -0.719 -13.598  13.576  0.00  0.00    -0.153 OA
BRANCH   1  21
ATOM     21  C   UNL     1      -2.626 -12.277  12.416  0.00  0.00    +0.105 A 
ATOM     23  C   UNL     1      -3.405 -12.627  11.314  0.00  0.00    +0.029 A 
ATOM     24  C   UNL     1      -2.205 -10.957  12.584  0.00  0.00    +0.029 A 
ATOM     26  C   UNL     1      -3.765 -11.657  10.379  0.00  0.00    +0.005 A 
ATOM     27  C   UNL     1      -2.567  -9.987  11.649  0.00  0.00    +0.005 A 
ATOM     28  C   UNL     1      -3.346 -10.337  10.546  0.00  0.00    -0.050 A 
ATOM     31  C   UNL     1      -3.731  -9.300   9.546  0.00  0.00    +0.044 C 
ENDBRANCH   1  21
ENDBRANCH   5   1
ENDBRANCH  15   5
ENDBRANCH   9  15
BRANCH  11  16
ATOM     16  C   UNL     1      -8.135 -11.285  17.522  0.00  0.00    +0.103 C 
BRANCH  16  20
ATOM      2  O   UNL     1      -9.518 -10.635  19.397  0.00  0.00    -0.276 OA
ATOM      6  N   UNL     1     -10.087  -9.930  17.257  0.00  0.00    -0.311 N 
ATOM     20  C   UNL     1      -9.304 -10.597  18.188  0.00  0.00    +0.214 C 
ATOM     35  H   UNL     1      -9.825  -9.952  16.275  0.00  0.00    +0.149 HD
BRANCH   6  22
ATOM     22  C   UNL     1     -11.274  -9.185  17.612  0.00  0.00    +0.141 C 
BRANCH  22  25
ATOM      7  N   UNL     1     -10.508  -6.124  15.527  0.00  0.00    -0.263 NA
ATOM     25  C   UNL     1     -11.472  -7.990  16.726  0.00  0.00    -0.012 A 
ATOM     29  C   UNL     1     -12.741  -7.626  16.286  0.00  0.00    +0.008 A 
ATOM     30  C   UNL     1     -10.399  -7.213  16.322  0.00  0.00    +0.115 A 
ATOM     32  C   UNL     1     -12.894  -6.513  15.468  0.00  0.00    +0.020 A 
ATOM     33  C   UNL     1     -11.757  -5.802  15.120  0.00  0.00    +0.111 A 
ENDBRANCH  22  25
ENDBRANCH   6  22
ENDBRANCH  16  20
ENDBRANCH  11  16
TORSDOF 9
ENDMDL
MODEL 4
REMARK VINA RESULT:      -6.5     16.138     19.588
REMARK  Name = 38028426
REMARK  13 active torsions:
REMARK  status: ('A' for Active; 'I' for Inactive)
REMARK    1  A    between atoms: S_1  and  N_5
REMARK    2  A    between atoms: S_1  and  C_21
REMARK    3  A    between atoms: N_5  and  C_15
REMARK    4  A    between atoms: N_6  and  C_22
REMARK    5  A    between atoms: C_8  and  C_12
REMARK    6  A    between atoms: C_9  and  C_15
REMARK    7  A    between atoms: C_11  and  C_16
REMARK    8  A    between atoms: C_12  and  C_17
REMARK    9  A    between atoms: C_12  and  C_18
REMARK   10  A    between atoms: C_13  and  C_19
REMARK   11  A    between atoms: C_16  and  C_20
REMARK   12  A    between atoms: C_22  and  C_25
REMARK   13  A    between atoms: C_28  and  C_31
REMARK                            x       y       z     vdW  Elec       q    Type
REMARK                         _______ _______ _______ _____ _____    ______ ____
ROOT
ATOM      8  C   UNL     1       9.552   8.369   2.675  0.00  0.00    +0.000 C 
ATOM      9  C   UNL     1       8.472   8.223   3.776  0.00  0.00    +0.030 C 
ATOM     10  C   UNL     1       9.806   7.018   1.991  0.00  0.00    +0.012 C 
ATOM     11  C   UNL     1      10.268   5.937   2.988  0.00  0.00    +0.023 C 
ATOM     13  C   UNL     1       9.404   5.914   4.232  0.00  0.00    -0.073 C 
ATOM     14  C   UNL     1       8.598   6.939   4.561  0.00  0.00    -0.023 C 
ATOM     19  C   UNL     1       9.454   4.666   5.068  0.00  0.00    +0.039 C 
ENDROOT
BRANCH   8  12
ATOM     12  C   UNL     1       9.158   9.415   1.627  0.00  0.00    -0.013 C 
ATOM     17  C   UNL     1       7.709   9.216   1.196  0.00  0.00    +0.007 C 
ATOM     18  C   UNL     1      10.095   9.342   0.424  0.00  0.00    +0.007 C 
ENDBRANCH   8  12
BRANCH   9  15
ATOM     15  C   UNL     1       8.499   9.416   4.738  0.00  0.00    +0.113 C 
BRANCH  15   5
ATOM      5  N   UNL     1       9.895   9.710   5.100  0.00  0.00    -0.189 NA
ATOM     34  H   UNL     1      10.621   9.379   4.453  0.00  0.00    +0.148 HD
BRANCH   5   1
ATOM      1  S   UNL     1      10.329   9.927   6.733  0.00  0.00    +0.058 S 
ATOM      3  O   UNL     1       9.339  10.765   7.383  0.00  0.00    -0.153 OA
ATOM      4  O   UNL     1      11.737  10.268   6.809  0.00  0.00    -0.153 OA
BRANCH   1  21
ATOM     21  C   UNL     1      10.160   8.287   7.371  0.00  0.00    +0.105 A 
ATOM     23  C   UNL     1      11.211   7.379   7.247  0.00  0.00    +0.029 A 
ATOM     24  C   UNL     1       8.974   7.901   7.997  0.00  0.00    +0.029 A 
ATOM     26  C   UNL     1      11.076   6.084   7.748  0.00  0.00    +0.005 A 
ATOM     27  C   UNL     1       8.840   6.607   8.498  0.00  0.00    +0.005 A 
ATOM     28  C   UNL     1       9.891   5.698   8.374  0.00  0.00    -0.050 A 
ATOM     31  C   UNL     1       9.747   4.313   8.909  0.00  0.00    +0.044 C 
ENDBRANCH   1  21
ENDBRANCH   5   1
ENDBRANCH  15   5
ENDBRANCH   9  15
BRANCH  11  16
ATOM     16  C   UNL     1      11.746   6.116   3.349  0.00  0.00    +0.103 C 
BRANCH  16  20
ATOM      2  O   UNL     1      13.536   6.393   1.744  0.00  0.00    -0.276 OA
ATOM      6  N   UNL     1      12.381   4.378   1.834  0.00  0.00    -0.311 N 
ATOM     20  C   UNL     1      12.663   5.677   2.229  0.00  0.00    +0.214 C 
ATOM     35  H   UNL     1      11.640   3.862   2.301  0.00  0.00    +0.149 HD
BRANCH   6  22
ATOM     22  C   UNL     1      13.101   3.699   0.781  0.00  0.00    +0.141 C 
BRANCH  22  25
ATOM      7  N   UNL     1      10.278   4.137  -1.697  0.00  0.00    -0.263 NA
ATOM     25  C   UNL     1      12.270   3.546  -0.459  0.00  0.00    -0.012 A 
ATOM     29  C   UNL     1      12.676   2.713  -1.496  0.00  0.00    +0.008 A 
ATOM     30  C   UNL     1      11.074   4.230  -0.607  0.00  0.00    +0.115 A 
ATOM     32  C   UNL     1      11.884   2.590  -2.632  0.00  0.00    +0.020 A 
ATOM     33  C   UNL     1      10.706   3.317  -2.683  0.00  0.00    +0.111 A 
ENDBRANCH  22  25
ENDBRANCH   6  22
ENDBRANCH  16  20
ENDBRANCH  11  16
TORSDOF 9
ENDMDL
MODEL 5
REMARK VINA RESULT:      -6.5     27.894     30.480
REMARK  Name = 38028426
REMARK  13 active torsions:
REMARK  status: ('A' for Active; 'I' for Inactive)
REMARK    1  A    between atoms: S_1  and  N_5
REMARK    2  A    between atoms: S_1  and  C_21
REMARK    3  A    between atoms: N_5  and  C_15
REMARK    4  A    between atoms: N_6  and  C_22
REMARK    5  A    between atoms: C_8  and  C_12
REMARK    6  A    between atoms: C_9  and  C_15
REMARK    7  A    between atoms: C_11  and  C_16
REMARK    8  A    between atoms: C_12  and  C_17
REMARK    9  A    between atoms: C_12  and  C_18
REMARK   10  A    between atoms: C_13  and  C_19
REMARK   11  A    between atoms: C_16  and  C_20
REMARK   12  A    between atoms: C_22  and  C_25
REMARK   13  A    between atoms: C_28  and  C_31
REMARK                            x       y       z     vdW  Elec       q    Type
REMARK                         _______ _______ _______ _____ _____    ______ ____
ROOT
ATOM      8  C   UNL     1      -6.097 -10.368  15.222  0.00  0.00    +0.000 C 
ATOM      9  C   UNL     1      -6.918 -10.463  16.532  0.00  0.00    +0.030 C 
ATOM     10  C   UNL     1      -5.103 -11.536  15.126  0.00  0.00    +0.012 C 
ATOM     11  C   UNL     1      -4.123 -11.566  16.316  0.00  0.00    +0.023 C 
ATOM     13  C   UNL     1      -4.840 -11.394  17.639  0.00  0.00    -0.073 C 
ATOM     14  C   UNL     1      -6.094 -10.912  17.715  0.00  0.00    -0.023 C 
ATOM     19  C   UNL     1      -4.100 -11.831  18.872  0.00  0.00    +0.039 C 
ENDROOT
BRANCH   8  12
ATOM     12  C   UNL     1      -7.000 -10.353  13.984  0.00  0.00    -0.013 C 
ATOM     17  C   UNL     1      -7.689 -11.703  13.813  0.00  0.00    +0.007 C 
ATOM     18  C   UNL     1      -6.191  -9.997  12.740  0.00  0.00    +0.007 C 
ENDBRANCH   8  12
BRANCH   9  15
ATOM     15  C   UNL     1      -7.595  -9.127  16.858  0.00  0.00    +0.113 C 
BRANCH  15   5
ATOM      5  N   UNL     1      -8.501  -9.313  18.002  0.00  0.00    -0.189 NA
ATOM     34  H   UNL     1      -8.069  -9.559  18.900  0.00  0.00    +0.148 HD
BRANCH   5   1
ATOM      1  S   UNL     1     -10.119  -9.783  17.746  0.00  0.00    +0.058 S 
ATOM      3  O   UNL     1     -10.854  -9.661  18.990  0.00  0.00    -0.153 OA
ATOM      4  O   UNL     1     -10.139 -11.029  17.005  0.00  0.00    -0.153 OA
BRANCH   1  21
ATOM     21  C   UNL     1     -10.691  -8.521  16.648  0.00  0.00    +0.105 A 
ATOM     23  C   UNL     1     -11.075  -8.848  15.348  0.00  0.00    +0.029 A 
ATOM     24  C   UNL     1     -10.754  -7.196  17.082  0.00  0.00    +0.029 A 
ATOM     26  C   UNL     1     -11.523  -7.851  14.482  0.00  0.00    +0.005 A 
ATOM     27  C   UNL     1     -11.204  -6.200  16.215  0.00  0.00    +0.005 A 
ATOM     28  C   UNL     1     -11.588  -6.528  14.915  0.00  0.00    -0.050 A 
ATOM     31  C   UNL     1     -12.067  -5.462  13.988  0.00  0.00    +0.044 C 
ENDBRANCH   1  21
ENDBRANCH   5   1
ENDBRANCH  15   5
ENDBRANCH   9  15
BRANCH  11  16
ATOM     16  C   UNL     1      -3.020 -10.516  16.148  0.00  0.00    +0.103 C 
BRANCH  16  20
ATOM      2  O   UNL     1      -1.138 -11.633  15.116  0.00  0.00    -0.276 OA
ATOM      6  N   UNL     1      -2.432 -10.169  13.857  0.00  0.00    -0.311 N 
ATOM     20  C   UNL     1      -2.082 -10.853  15.011  0.00  0.00    +0.214 C 
ATOM     35  H   UNL     1      -3.236  -9.547  13.867  0.00  0.00    +0.149 HD
BRANCH   6  22
ATOM     22  C   UNL     1      -1.708 -10.298  12.613  0.00  0.00    +0.141 C 
BRANCH  22  25
ATOM      7  N   UNL     1      -4.037 -11.848  10.068  0.00  0.00    -0.263 NA
ATOM     25  C   UNL     1      -2.631 -10.435  11.437  0.00  0.00    -0.012 A 
ATOM     29  C   UNL     1      -2.942  -9.340  10.638  0.00  0.00    +0.008 A 
ATOM     30  C   UNL     1      -3.199 -11.656  11.113  0.00  0.00    +0.115 A 
ATOM     32  C   UNL     1      -3.798  -9.497   9.555  0.00  0.00    +0.020 A 
ATOM     33  C   UNL     1      -4.314 -10.760   9.315  0.00  0.00    +0.111 A 
ENDBRANCH  22  25
ENDBRANCH   6  22
ENDBRANCH  16  20
ENDBRANCH  11  16
TORSDOF 9
ENDMDL
MODEL 6
REMARK VINA RESULT:      -6.5     28.254     31.706
REMARK  Name = 38028426
REMARK  13 active torsions:
REMARK  status: ('A' for Active; 'I' for Inactive)
REMARK    1  A    between atoms: S_1  and  N_5
REMARK    2  A    between atoms: S_1  and  C_21
REMARK    3  A    between atoms: N_5  and  C_15
REMARK    4  A    between atoms: N_6  and  C_22
REMARK    5  A    between atoms: C_8  and  C_12
REMARK    6  A    between atoms: C_9  and  C_15
REMARK    7  A    between atoms: C_11  and  C_16
REMARK    8  A    between atoms: C_12  and  C_17
REMARK    9  A    between atoms: C_12  and  C_18
REMARK   10  A    between atoms: C_13  and  C_19
REMARK   11  A    between atoms: C_16  and  C_20
REMARK   12  A    between atoms: C_22  and  C_25
REMARK   13  A    between atoms: C_28  and  C_31
REMARK                            x       y       z     vdW  Elec       q    Type
REMARK                         _______ _______ _______ _____ _____    ______ ____
ROOT
ATOM      8  C   UNL     1      -6.718 -10.955  18.036  0.00  0.00    +0.000 C 
ATOM      9  C   UNL     1      -5.947 -11.361  16.755  0.00  0.00    +0.030 C 
ATOM     10  C   UNL     1      -8.232 -10.977  17.780  0.00  0.00    +0.012 C 
ATOM     11  C   UNL     1      -8.645 -10.025  16.641  0.00  0.00    +0.023 C 
ATOM     13  C   UNL     1      -7.751 -10.181  15.427  0.00  0.00    -0.073 C 
ATOM     14  C   UNL     1      -6.555 -10.792  15.495  0.00  0.00    -0.023 C 
ATOM     19  C   UNL     1      -8.283  -9.657  14.123  0.00  0.00    +0.039 C 
ENDROOT
BRANCH   8  12
ATOM     12  C   UNL     1      -6.378 -11.869  19.218  0.00  0.00    -0.013 C 
ATOM     17  C   UNL     1      -7.635 -12.565  19.730  0.00  0.00    +0.007 C 
ATOM     18  C   UNL     1      -5.710 -11.070  20.333  0.00  0.00    +0.007 C 
ENDBRANCH   8  12
BRANCH   9  15
ATOM     15  C   UNL     1      -4.473 -10.950  16.843  0.00  0.00    +0.113 C 
BRANCH  15   5
ATOM      5  N   UNL     1      -4.061 -10.362  15.559  0.00  0.00    -0.189 NA
ATOM     34  H   UNL     1      -4.741  -9.755  15.087  0.00  0.00    +0.148 HD
BRANCH   5   1
ATOM      1  S   UNL     1      -2.895 -11.146  14.594  0.00  0.00    +0.058 S 
ATOM      3  O   UNL     1      -3.174 -12.569  14.567  0.00  0.00    -0.153 OA
ATOM      4  O   UNL     1      -1.576 -10.667  14.960  0.00  0.00    -0.153 OA
BRANCH   1  21
ATOM     21  C   UNL     1      -3.255 -10.489  12.992  0.00  0.00    +0.105 A 
ATOM     23  C   UNL     1      -4.573 -10.214  12.631  0.00  0.00    +0.029 A 
ATOM     24  C   UNL     1      -2.219 -10.251  12.087  0.00  0.00    +0.029 A 
ATOM     26  C   UNL     1      -4.857  -9.698  11.366  0.00  0.00    +0.005 A 
ATOM     27  C   UNL     1      -2.504  -9.735  10.823  0.00  0.00    +0.005 A 
ATOM     28  C   UNL     1      -3.822  -9.459  10.463  0.00  0.00    -0.050 A 
ATOM     31  C   UNL     1      -4.126  -8.908   9.110  0.00  0.00    +0.044 C 
ENDBRANCH   1  21
ENDBRANCH   5   1
ENDBRANCH  15   5
ENDBRANCH   9  15
BRANCH  11  16
ATOM     16  C   UNL     1      -8.671  -8.569  17.119  0.00  0.00    +0.103 C 
BRANCH  16  20
ATOM      2  O   UNL     1     -11.016  -8.445  17.701  0.00  0.00    -0.276 OA
ATOM      6  N   UNL     1     -10.112  -6.870  16.252  0.00  0.00    -0.311 N 
ATOM     20  C   UNL     1     -10.064  -7.983  17.078  0.00  0.00    +0.214 C 
ATOM     35  H   UNL     1      -9.267  -6.558  15.781  0.00  0.00    +0.149 HD
BRANCH   6  22
ATOM     22  C   UNL     1     -11.318  -6.107  16.023  0.00  0.00    +0.141 C 
BRANCH  22  25
ATOM      7  N   UNL     1     -12.651  -5.258  12.588  0.00  0.00    -0.263 NA
ATOM     25  C   UNL     1     -11.832  -6.275  14.623  0.00  0.00    -0.012 A 
ATOM     29  C   UNL     1     -11.973  -7.538  14.057  0.00  0.00    +0.008 A 
ATOM     30  C   UNL     1     -12.182  -5.177  13.853  0.00  0.00    +0.115 A 
ATOM     32  C   UNL     1     -12.453  -7.661  12.759  0.00  0.00    +0.020 A 
ATOM     33  C   UNL     1     -12.775  -6.502  12.072  0.00  0.00    +0.111 A 
ENDBRANCH  22  25
ENDBRANCH   6  22
ENDBRANCH  16  20
ENDBRANCH  11  16
TORSDOF 9
ENDMDL
MODEL 7
REMARK VINA RESULT:      -6.4     27.394     30.405
REMARK  Name = 38028426
REMARK  13 active torsions:
REMARK  status: ('A' for Active; 'I' for Inactive)
REMARK    1  A    between atoms: S_1  and  N_5
REMARK    2  A    between atoms: S_1  and  C_21
REMARK    3  A    between atoms: N_5  and  C_15
REMARK    4  A    between atoms: N_6  and  C_22
REMARK    5  A    between atoms: C_8  and  C_12
REMARK    6  A    between atoms: C_9  and  C_15
REMARK    7  A    between atoms: C_11  and  C_16
REMARK    8  A    between atoms: C_12  and  C_17
REMARK    9  A    between atoms: C_12  and  C_18
REMARK   10  A    between atoms: C_13  and  C_19
REMARK   11  A    between atoms: C_16  and  C_20
REMARK   12  A    between atoms: C_22  and  C_25
REMARK   13  A    between atoms: C_28  and  C_31
REMARK                            x       y       z     vdW  Elec       q    Type
REMARK                         _______ _______ _______ _____ _____    ______ ____
ROOT
ATOM      8  C   UNL     1      -4.933 -10.641  11.143  0.00  0.00    +0.000 C 
ATOM      9  C   UNL     1      -4.508  -9.740   9.955  0.00  0.00    +0.030 C 
ATOM     10  C   UNL     1      -4.284 -10.151  12.446  0.00  0.00    +0.012 C 
ATOM     11  C   UNL     1      -2.745 -10.146  12.363  0.00  0.00    +0.023 C 
ATOM     13  C   UNL     1      -2.253  -9.508  11.081  0.00  0.00    -0.073 C 
ATOM     14  C   UNL     1      -3.058  -9.323  10.020  0.00  0.00    -0.023 C 
ATOM     19  C   UNL     1      -0.823  -9.045  11.060  0.00  0.00    +0.039 C 
ENDROOT
BRANCH   8  12
ATOM     12  C   UNL     1      -6.456 -10.685  11.307  0.00  0.00    -0.013 C 
ATOM     17  C   UNL     1      -6.944  -9.458  12.071  0.00  0.00    +0.007 C 
ATOM     18  C   UNL     1      -6.877 -11.968  12.018  0.00  0.00    +0.007 C 
ENDBRANCH   8  12
BRANCH   9  15
ATOM     15  C   UNL     1      -4.783 -10.429   8.614  0.00  0.00    +0.113 C 
BRANCH  15   5
ATOM      5  N   UNL     1      -5.259  -9.427   7.647  0.00  0.00    -0.189 NA
ATOM     34  H   UNL     1      -5.007  -8.449   7.831  0.00  0.00    +0.148 HD
BRANCH   5   1
ATOM      1  S   UNL     1      -6.663  -9.723   6.728  0.00  0.00    +0.058 S 
ATOM      3  O   UNL     1      -7.178 -11.040   7.053  0.00  0.00    -0.153 OA
ATOM      4  O   UNL     1      -6.412  -9.358   5.347  0.00  0.00    -0.153 OA
BRANCH   1  21
ATOM     21  C   UNL     1      -7.782  -8.522   7.384  0.00  0.00    +0.105 A 
ATOM     23  C   UNL     1      -8.237  -7.479   6.577  0.00  0.00    +0.029 A 
ATOM     24  C   UNL     1      -8.208  -8.617   8.709  0.00  0.00    +0.029 A 
ATOM     26  C   UNL     1      -9.118  -6.530   7.096  0.00  0.00    +0.005 A 
ATOM     27  C   UNL     1      -9.090  -7.668   9.226  0.00  0.00    +0.005 A 
ATOM     28  C   UNL     1      -9.544  -6.625   8.420  0.00  0.00    -0.050 A 
ATOM     31  C   UNL     1     -10.486  -5.610   8.974  0.00  0.00    +0.044 C 
ENDBRANCH   1  21
ENDBRANCH   5   1
ENDBRANCH  15   5
ENDBRANCH   9  15
BRANCH  11  16
ATOM     16  C   UNL     1      -2.178 -11.560  12.525  0.00  0.00    +0.103 C 
BRANCH  16  20
ATOM      2  O   UNL     1      -2.176 -13.196  14.308  0.00  0.00    -0.276 OA
ATOM      6  N   UNL     1      -2.215 -10.932  14.832  0.00  0.00    -0.311 N 
ATOM     20  C   UNL     1      -2.189 -12.016  13.967  0.00  0.00    +0.214 C 
ATOM     35  H   UNL     1      -2.218  -9.989  14.453  0.00  0.00    +0.149 HD
BRANCH   6  22
ATOM     22  C   UNL     1      -2.230 -11.069  16.270  0.00  0.00    +0.141 C 
BRANCH  22  25
ATOM      7  N   UNL     1      -5.179 -11.349  18.622  0.00  0.00    -0.263 NA
ATOM     25  C   UNL     1      -3.611 -10.904  16.836  0.00  0.00    -0.012 A 
ATOM     29  C   UNL     1      -4.586 -10.189  16.148  0.00  0.00    +0.008 A 
ATOM     30  C   UNL     1      -3.955 -11.459  18.057  0.00  0.00    +0.115 A 
ATOM     32  C   UNL     1      -5.856 -10.054  16.696  0.00  0.00    +0.020 A 
ATOM     33  C   UNL     1      -6.100 -10.647  17.924  0.00  0.00    +0.111 A 
ENDBRANCH  22  25
ENDBRANCH   6  22
ENDBRANCH  16  20
ENDBRANCH  11  16
TORSDOF 9
ENDMDL
MODEL 8
REMARK VINA RESULT:      -6.4     15.676     19.123
REMARK  Name = 38028426
REMARK  13 active torsions:
REMARK  status: ('A' for Active; 'I' for Inactive)
REMARK    1  A    between atoms: S_1  and  N_5
REMARK    2  A    between atoms: S_1  and  C_21
REMARK    3  A    between atoms: N_5  and  C_15
REMARK    4  A    between atoms: N_6  and  C_22
REMARK    5  A    between atoms: C_8  and  C_12
REMARK    6  A    between atoms: C_9  and  C_15
REMARK    7  A    between atoms: C_11  and  C_16
REMARK    8  A    between atoms: C_12  and  C_17
REMARK    9  A    between atoms: C_12  and  C_18
REMARK   10  A    between atoms: C_13  and  C_19
REMARK   11  A    between atoms: C_16  and  C_20
REMARK   12  A    between atoms: C_22  and  C_25
REMARK   13  A    between atoms: C_28  and  C_31
REMARK                            x       y       z     vdW  Elec       q    Type
REMARK                         _______ _______ _______ _____ _____    ______ ____
ROOT
ATOM      8  C   UNL     1       8.839   8.554   3.275  0.00  0.00    +0.000 C 
ATOM      9  C   UNL     1       7.860   8.024   4.353  0.00  0.00    +0.030 C 
ATOM     10  C   UNL     1       9.409   7.391   2.449  0.00  0.00    +0.012 C 
ATOM     11  C   UNL     1      10.155   6.365   3.324  0.00  0.00    +0.023 C 
ATOM     13  C   UNL     1       9.358   5.993   4.557  0.00  0.00    -0.073 C 
ATOM     14  C   UNL     1       8.328   6.739   4.995  0.00  0.00    -0.023 C 
ATOM     19  C   UNL     1       9.743   4.718   5.253  0.00  0.00    +0.039 C 
ENDROOT
BRANCH   8  12
ATOM     12  C   UNL     1       8.167   9.570   2.346  0.00  0.00    -0.013 C 
ATOM     17  C   UNL     1       8.161   9.054   0.911  0.00  0.00    +0.007 C 
ATOM     18  C   UNL     1       8.873  10.920   2.433  0.00  0.00    +0.007 C 
ENDBRANCH   8  12
BRANCH   9  15
ATOM     15  C   UNL     1       7.611   9.077   5.438  0.00  0.00    +0.113 C 
BRANCH  15   5
ATOM      5  N   UNL     1       8.904   9.586   5.920  0.00  0.00    -0.189 NA
ATOM     34  H   UNL     1       9.615   9.792   5.209  0.00  0.00    +0.148 HD
BRANCH   5   1
ATOM      1  S   UNL     1       9.443   9.207   7.492  0.00  0.00    +0.058 S 
ATOM      3  O   UNL     1       8.687   8.076   7.996  0.00  0.00    -0.153 OA
ATOM      4  O   UNL     1       9.536  10.427   8.270  0.00  0.00    -0.153 OA
BRANCH   1  21
ATOM     21  C   UNL     1      11.097   8.664   7.184  0.00  0.00    +0.105 A 
ATOM     23  C   UNL     1      11.423   7.314   7.313  0.00  0.00    +0.029 A 
ATOM     24  C   UNL     1      12.076   9.587   6.815  0.00  0.00    +0.029 A 
ATOM     26  C   UNL     1      12.729   6.887   7.073  0.00  0.00    +0.005 A 
ATOM     27  C   UNL     1      13.382   9.159   6.574  0.00  0.00    +0.005 A 
ATOM     28  C   UNL     1      13.708   7.809   6.703  0.00  0.00    -0.050 A 
ATOM     31  C   UNL     1      15.104   7.352   6.447  0.00  0.00    +0.044 C 
ENDBRANCH   1  21
ENDBRANCH   5   1
ENDBRANCH  15   5
ENDBRANCH   9  15
BRANCH  11  16
ATOM     16  C   UNL     1      11.549   6.875   3.705  0.00  0.00    +0.103 C 
BRANCH  16  20
ATOM      2  O   UNL     1      13.638   6.894   2.484  0.00  0.00    -0.276 OA
ATOM      6  N   UNL     1      12.325   4.976   2.475  0.00  0.00    -0.311 N 
ATOM     20  C   UNL     1      12.630   6.283   2.828  0.00  0.00    +0.214 C 
ATOM     35  H   UNL     1      11.466   4.553   2.815  0.00  0.00    +0.149 HD
BRANCH   6  22
ATOM     22  C   UNL     1      13.180   4.165   1.640  0.00  0.00    +0.141 C 
BRANCH  22  25
ATOM      7  N   UNL     1      10.583   3.871  -1.093  0.00  0.00    -0.263 NA
ATOM     25  C   UNL     1      12.556   3.879   0.305  0.00  0.00    -0.012 A 
ATOM     29  C   UNL     1      13.313   3.376  -0.748  0.00  0.00    +0.008 A 
ATOM     30  C   UNL     1      11.207   4.107   0.083  0.00  0.00    +0.115 A 
ATOM     32  C   UNL     1      12.707   3.120  -1.972  0.00  0.00    +0.020 A 
ATOM     33  C   UNL     1      11.352   3.381  -2.092  0.00  0.00    +0.111 A 
ENDBRANCH  22  25
ENDBRANCH   6  22
ENDBRANCH  16  20
ENDBRANCH  11  16
TORSDOF 9
ENDMDL
MODEL 9
REMARK VINA RESULT:      -6.4     15.860     18.955
REMARK  Name = 38028426
REMARK  13 active torsions:
REMARK  status: ('A' for Active; 'I' for Inactive)
REMARK    1  A    between atoms: S_1  and  N_5
REMARK    2  A    between atoms: S_1  and  C_21
REMARK    3  A    between atoms: N_5  and  C_15
REMARK    4  A    between atoms: N_6  and  C_22
REMARK    5  A    between atoms: C_8  and  C_12
REMARK    6  A    between atoms: C_9  and  C_15
REMARK    7  A    between atoms: C_11  and  C_16
REMARK    8  A    between atoms: C_12  and  C_17
REMARK    9  A    between atoms: C_12  and  C_18
REMARK   10  A    between atoms: C_13  and  C_19
REMARK   11  A    between atoms: C_16  and  C_20
REMARK   12  A    between atoms: C_22  and  C_25
REMARK   13  A    between atoms: C_28  and  C_31
REMARK                            x       y       z     vdW  Elec       q    Type
REMARK                         _______ _______ _______ _____ _____    ______ ____
ROOT
ATOM      8  C   UNL     1      12.112   8.105   5.198  0.00  0.00    +0.000 C 
ATOM      9  C   UNL     1      12.053   9.411   4.367  0.00  0.00    +0.030 C 
ATOM     10  C   UNL     1      13.038   7.082   4.522  0.00  0.00    +0.012 C 
ATOM     11  C   UNL     1      12.575   6.731   3.094  0.00  0.00    +0.023 C 
ATOM     13  C   UNL     1      12.239   7.972   2.292  0.00  0.00    -0.073 C 
ATOM     14  C   UNL     1      12.021   9.163   2.877  0.00  0.00    -0.023 C 
ATOM     19  C   UNL     1      12.201   7.822   0.797  0.00  0.00    +0.039 C 
ENDROOT
BRANCH   8  12
ATOM     12  C   UNL     1      12.585   8.364   6.632  0.00  0.00    -0.013 C 
ATOM     17  C   UNL     1      13.784   9.306   6.635  0.00  0.00    +0.007 C 
ATOM     18  C   UNL     1      12.929   7.048   7.324  0.00  0.00    +0.007 C 
ENDBRANCH   8  12
BRANCH   9  15
ATOM     15  C   UNL     1      10.847  10.267   4.768  0.00  0.00    +0.113 C 
BRANCH  15   5
ATOM      5  N   UNL     1       9.668   9.825   4.007  0.00  0.00    -0.189 NA
ATOM     34  H   UNL     1       9.627  10.096   3.018  0.00  0.00    +0.148 HD
BRANCH   5   1
ATOM      1  S   UNL     1       8.194   9.523   4.808  0.00  0.00    +0.058 S 
ATOM      3  O   UNL     1       7.214   9.059   3.845  0.00  0.00    -0.153 OA
ATOM      4  O   UNL     1       7.890  10.642   5.679  0.00  0.00    -0.153 OA
BRANCH   1  21
ATOM     21  C   UNL     1       8.624   8.161   5.849  0.00  0.00    +0.105 A 
ATOM     23  C   UNL     1       8.731   6.878   5.311  0.00  0.00    +0.029 A 
ATOM     24  C   UNL     1       8.852   8.368   7.210  0.00  0.00    +0.029 A 
ATOM     26  C   UNL     1       9.067   5.803   6.134  0.00  0.00    +0.005 A 
ATOM     27  C   UNL     1       9.189   7.292   8.032  0.00  0.00    +0.005 A 
ATOM     28  C   UNL     1       9.296   6.010   7.494  0.00  0.00    -0.050 A 
ATOM     31  C   UNL     1       9.655   4.860   8.373  0.00  0.00    +0.044 C 
ENDBRANCH   1  21
ENDBRANCH   5   1
ENDBRANCH  15   5
ENDBRANCH   9  15
BRANCH  11  16
ATOM     16  C   UNL     1      11.394   5.757   3.120  0.00  0.00    +0.103 C 
BRANCH  16  20
ATOM      2  O   UNL     1      10.832   3.660   2.051  0.00  0.00    -0.276 OA
ATOM      6  N   UNL     1      13.040   4.383   2.062  0.00  0.00    -0.311 N 
ATOM     20  C   UNL     1      11.689   4.484   2.358  0.00  0.00    +0.214 C 
ATOM     35  H   UNL     1      13.674   5.122   2.354  0.00  0.00    +0.149 HD
BRANCH   6  22
ATOM     22  C   UNL     1      13.609   3.268   1.340  0.00  0.00    +0.141 C 
BRANCH  22  25
ATOM      7  N   UNL     1      14.884   4.439  -2.022  0.00  0.00    -0.263 NA
ATOM     25  C   UNL     1      13.674   3.528  -0.137  0.00  0.00    -0.012 A 
ATOM     29  C   UNL     1      12.642   3.132  -0.981  0.00  0.00    +0.008 A 
ATOM     30  C   UNL     1      14.763   4.173  -0.702  0.00  0.00    +0.115 A 
ATOM     32  C   UNL     1      12.730   3.388  -2.344  0.00  0.00    +0.020 A 
ATOM     33  C   UNL     1      13.861   4.039  -2.811  0.00  0.00    +0.111 A 
ENDBRANCH  22  25
ENDBRANCH   6  22
ENDBRANCH  16  20
ENDBRANCH  11  16
TORSDOF 9
ENDMDL
MODEL 10
REMARK VINA RESULT:      -6.4     28.262     31.299
REMARK  Name = 38028426
REMARK  13 active torsions:
REMARK  status: ('A' for Active; 'I' for Inactive)
REMARK    1  A    between atoms: S_1  and  N_5
REMARK    2  A    between atoms: S_1  and  C_21
REMARK    3  A    between atoms: N_5  and  C_15
REMARK    4  A    between atoms: N_6  and  C_22
REMARK    5  A    between atoms: C_8  and  C_12
REMARK    6  A    between atoms: C_9  and  C_15
REMARK    7  A    between atoms: C_11  and  C_16
REMARK    8  A    between atoms: C_12  and  C_17
REMARK    9  A    between atoms: C_12  and  C_18
REMARK   10  A    between atoms: C_13  and  C_19
REMARK   11  A    between atoms: C_16  and  C_20
REMARK   12  A    between atoms: C_22  and  C_25
REMARK   13  A    between atoms: C_28  and  C_31
REMARK                            x       y       z     vdW  Elec       q    Type
REMARK                         _______ _______ _______ _____ _____    ______ ____
ROOT
ATOM      8  C   UNL     1      -4.575 -11.691  12.353  0.00  0.00    +0.000 C 
ATOM      9  C   UNL     1      -3.427 -11.178  11.447  0.00  0.00    +0.030 C 
ATOM     10  C   UNL     1      -5.930 -11.514  11.653  0.00  0.00    +0.012 C 
ATOM     11  C   UNL     1      -6.213 -10.043  11.294  0.00  0.00    +0.023 C 
ATOM     13  C   UNL     1      -5.019  -9.386  10.632  0.00  0.00    -0.073 C 
ATOM     14  C   UNL     1      -3.784  -9.915  10.700  0.00  0.00    -0.023 C 
ATOM     19  C   UNL     1      -5.284  -8.129   9.851  0.00  0.00    +0.039 C 
ENDROOT
BRANCH   8  12
ATOM     12  C   UNL     1      -4.380 -13.161  12.741  0.00  0.00    -0.013 C 
ATOM     17  C   UNL     1      -4.872 -14.075  11.625  0.00  0.00    +0.007 C 
ATOM     18  C   UNL     1      -5.103 -13.466  14.049  0.00  0.00    +0.007 C 
ENDBRANCH   8  12
BRANCH   9  15
ATOM     15  C   UNL     1      -2.146 -10.949  12.256  0.00  0.00    +0.113 C 
BRANCH  15   5
ATOM      5  N   UNL     1      -2.489 -10.291  13.526  0.00  0.00    -0.189 NA
ATOM     34  H   UNL     1      -2.668  -9.281  13.491  0.00  0.00    +0.148 HD
BRANCH   5   1
ATOM      1  S   UNL     1      -1.956 -10.950  15.004  0.00  0.00    +0.058 S 
ATOM      3  O   UNL     1      -0.925 -10.096  15.564  0.00  0.00    -0.153 OA
ATOM      4  O   UNL     1      -1.714 -12.369  14.831  0.00  0.00    -0.153 OA
BRANCH   1  21
ATOM     21  C   UNL     1      -3.401 -10.792  16.010  0.00  0.00    +0.105 A 
ATOM     23  C   UNL     1      -3.415 -11.326  17.299  0.00  0.00    +0.029 A 
ATOM     24  C   UNL     1      -4.528 -10.137  15.514  0.00  0.00    +0.029 A 
ATOM     26  C   UNL     1      -4.556 -11.204  18.091  0.00  0.00    +0.005 A 
ATOM     27  C   UNL     1      -5.669 -10.015  16.307  0.00  0.00    +0.005 A 
ATOM     28  C   UNL     1      -5.683 -10.548  17.596  0.00  0.00    -0.050 A 
ATOM     31  C   UNL     1      -6.903 -10.418  18.444  0.00  0.00    +0.044 C 
ENDBRANCH   1  21
ENDBRANCH   5   1
ENDBRANCH  15   5
ENDBRANCH   9  15
BRANCH  11  16
ATOM     16  C   UNL     1      -6.663  -9.250  12.525  0.00  0.00    +0.103 C 
BRANCH  16  20
ATOM      2  O   UNL     1      -8.929 -10.005  12.141  0.00  0.00    -0.276 OA
ATOM      6  N   UNL     1      -8.297  -9.321  14.270  0.00  0.00    -0.311 N 
ATOM     20  C   UNL     1      -8.085  -9.575  12.923  0.00  0.00    +0.214 C 
ATOM     35  H   UNL     1      -7.532  -8.970  14.840  0.00  0.00    +0.149 HD
BRANCH   6  22
ATOM     22  C   UNL     1      -9.566  -9.539  14.925  0.00  0.00    +0.141 C 
BRANCH  22  25
ATOM      7  N   UNL     1     -12.231  -6.985  14.099  0.00  0.00    -0.263 NA
ATOM     25  C   UNL     1     -10.393  -8.287  14.979  0.00  0.00    -0.012 A 
ATOM     29  C   UNL     1     -10.122  -7.289  15.909  0.00  0.00    +0.008 A 
ATOM     30  C   UNL     1     -11.448  -8.089  14.104  0.00  0.00    +0.115 A 
ATOM     32  C   UNL     1     -10.903  -6.140  15.935  0.00  0.00    +0.020 A 
ATOM     33  C   UNL     1     -11.936  -6.037  15.017  0.00  0.00    +0.111 A 
ENDBRANCH  22  25
ENDBRANCH   6  22
ENDBRANCH  16  20
ENDBRANCH  11  16
TORSDOF 9
ENDMDL
