MODEL 1
REMARK VINA RESULT:      -7.3      0.000      0.000
REMARK  Name = 44716833
REMARK  14 active torsions:
REMARK  status: ('A' for Active; 'I' for Inactive)
REMARK    1  A    between atoms: S_1  and  N_11
REMARK    2  A    between atoms: S_1  and  C_25
REMARK    3  A    between atoms: O_6  and  C_24
REMARK    4  A    between atoms: O_6  and  C_31
REMARK    5  A    between atoms: O_8  and  C_37
REMARK    6  A    between atoms: N_11  and  C_16
REMARK    7  A    between atoms: N_12  and  C_23
REMARK    8  A    between atoms: N_14  and  C_34
REMARK    9  A    between atoms: C_18  and  C_21
REMARK   10  A    between atoms: C_22  and  C_24
REMARK   11  A    between atoms: C_23  and  C_26
REMARK   12  A    between atoms: C_23  and  C_27
REMARK   13  A    between atoms: C_26  and  C_29
REMARK   14  A    between atoms: C_31  and  C_37
REMARK                            x       y       z     vdW  Elec       q    Type
REMARK                         _______ _______ _______ _____ _____    ______ ____
ROOT
ATOM      3  O   UNL     1      15.270  13.598  22.588  0.00  0.00    -0.273 OA
ATOM     10  N   UNL     1      14.316  12.187  21.000  0.00  0.00    -0.288 N 
ATOM     16  C   UNL     1      14.154  11.334  18.218  0.00  0.00    +0.080 C 
ATOM     17  C   UNL     1      12.922  11.286  19.121  0.00  0.00    +0.052 C 
ATOM     18  C   UNL     1      13.270  11.227  20.611  0.00  0.00    +0.163 C 
ATOM     19  C   UNL     1      15.099  12.448  18.660  0.00  0.00    +0.039 C 
ATOM     20  C   UNL     1      15.491  12.272  20.122  0.00  0.00    +0.110 C 
ATOM     22  C   UNL     1      14.329  12.897  22.206  0.00  0.00    +0.242 C 
ENDROOT
BRANCH  18  21
ATOM      2  O   UNL     1      14.272   9.668  22.118  0.00  0.00    -0.274 OA
ATOM     12  N   UNL     1      13.557   8.918  20.033  0.00  0.00    -0.302 N 
ATOM     21  C   UNL     1      13.752   9.866  21.024  0.00  0.00    +0.234 C 
ATOM     40  H   UNL     1      13.044   9.172  19.194  0.00  0.00    +0.150 HD
BRANCH  12  23
ATOM     23  C   UNL     1      13.954   7.536  20.173  0.00  0.00    +0.163 C 
BRANCH  23  27
ATOM      7  O   UNL     1      12.006   6.518  19.136  0.00  0.00    -0.274 OA
ATOM     15  N   UNL     1      12.399   6.120  21.365  0.00  0.00    -0.328 N 
ATOM     27  C   UNL     1      12.684   6.699  20.146  0.00  0.00    +0.231 C 
ATOM     41  H   UNL     1      12.981   6.261  22.185  0.00  0.00    +0.145 HD
ATOM     42  H   UNL     1      11.586   5.525  21.481  0.00  0.00    +0.145 HD
ENDBRANCH  23  27
BRANCH  23  26
ATOM     26  C   UNL     1      14.910   7.092  19.059  0.00  0.00    +0.067 C 
BRANCH  26  29
ATOM     29  C   UNL     1      16.289   6.757  19.573  0.00  0.00    -0.045 A 
ATOM     32  C   UNL     1      17.071   5.815  18.906  0.00  0.00    +0.004 A 
ATOM     33  C   UNL     1      16.783   7.390  20.714  0.00  0.00    +0.004 A 
ATOM     35  C   UNL     1      18.346   5.504  19.380  0.00  0.00    +0.000 A 
ATOM     36  C   UNL     1      18.056   7.080  21.188  0.00  0.00    +0.000 A 
ATOM     38  C   UNL     1      18.839   6.137  20.521  0.00  0.00    +0.000 A 
ENDBRANCH  26  29
ENDBRANCH  23  26
ENDBRANCH  12  23
ENDBRANCH  18  21
BRANCH  16  11
ATOM     11  N   UNL     1      13.727  11.577  16.819  0.00  0.00    -0.185 NA
ATOM     39  H   UNL     1      12.961  12.251  16.695  0.00  0.00    +0.148 HD
BRANCH  11   1
ATOM      1  S   UNL     1      13.951  10.371  15.644  0.00  0.00    +0.077 S 
ATOM      4  O   UNL     1      12.721  10.187  14.900  0.00  0.00    -0.152 OA
ATOM      5  O   UNL     1      14.608   9.236  16.261  0.00  0.00    -0.152 OA
BRANCH   1  25
ATOM     13  N   UNL     1      14.845  11.416  13.256  0.00  0.00    -0.216 NA
ATOM     14  N   UNL     1      16.923  12.035  13.737  0.00  0.00    -0.338 N 
ATOM     25  C   UNL     1      15.132  11.128  14.567  0.00  0.00    +0.211 A 
ATOM     28  C   UNL     1      16.415  11.502  14.888  0.00  0.00    +0.135 A 
ATOM     30  C   UNL     1      15.945  11.961  12.786  0.00  0.00    +0.201 A 
ATOM     34  C   UNL     1      18.248  12.576  13.558  0.00  0.00    +0.150 C 
ENDBRANCH   1  25
ENDBRANCH  11   1
ENDBRANCH  16  11
BRANCH  22  24
ATOM     24  C   UNL     1      13.097  12.789  23.070  0.00  0.00    +0.256 C 
BRANCH  24   6
ATOM      6  O   UNL     1      13.500  12.173  24.269  0.00  0.00    -0.359 OA
BRANCH   6  31
ATOM     31  C   UNL     1      12.639  12.504  25.358  0.00  0.00    +0.280 C 
BRANCH  31  37
ATOM      9  O   UNL     1      10.256  12.396  24.891  0.00  0.00    -0.248 OA
ATOM     37  C   UNL     1      11.304  11.835  25.174  0.00  0.00    +0.331 C 
BRANCH  37   8
ATOM      8  O   UNL     1      11.421  10.498  25.368  0.00  0.00    -0.479 OA
ATOM     43  H   UNL     1      10.566  10.089  25.621  0.00  0.00    +0.295 HD
ENDBRANCH  37   8
ENDBRANCH  31  37
ENDBRANCH   6  31
ENDBRANCH  24   6
ENDBRANCH  22  24
TORSDOF 13
ENDMDL
MODEL 2
REMARK VINA RESULT:      -6.6     27.493     30.002
REMARK  Name = 44716833
REMARK  14 active torsions:
REMARK  status: ('A' for Active; 'I' for Inactive)
REMARK    1  A    between atoms: S_1  and  N_11
REMARK    2  A    between atoms: S_1  and  C_25
REMARK    3  A    between atoms: O_6  and  C_24
REMARK    4  A    between atoms: O_6  and  C_31
REMARK    5  A    between atoms: O_8  and  C_37
REMARK    6  A    between atoms: N_11  and  C_16
REMARK    7  A    between atoms: N_12  and  C_23
REMARK    8  A    between atoms: N_14  and  C_34
REMARK    9  A    between atoms: C_18  and  C_21
REMARK   10  A    between atoms: C_22  and  C_24
REMARK   11  A    between atoms: C_23  and  C_26
REMARK   12  A    between atoms: C_23  and  C_27
REMARK   13  A    between atoms: C_26  and  C_29
REMARK   14  A    between atoms: C_31  and  C_37
REMARK                            x       y       z     vdW  Elec       q    Type
REMARK                         _______ _______ _______ _____ _____    ______ ____
ROOT
ATOM      3  O   UNL     1      -3.485 -12.607  10.323  0.00  0.00    -0.273 OA
ATOM     10  N   UNL     1      -4.622 -10.589  10.560  0.00  0.00    -0.288 N 
ATOM     16  C   UNL     1      -6.435  -8.615   9.416  0.00  0.00    +0.080 C 
ATOM     17  C   UNL     1      -5.312  -8.187  10.361  0.00  0.00    +0.052 C 
ATOM     18  C   UNL     1      -4.831  -9.318  11.274  0.00  0.00    +0.163 C 
ATOM     19  C   UNL     1      -6.042  -9.877   8.654  0.00  0.00    +0.039 C 
ATOM     20  C   UNL     1      -5.675 -10.996   9.621  0.00  0.00    +0.110 C 
ATOM     22  C   UNL     1      -3.581 -11.485  10.828  0.00  0.00    +0.242 C 
ENDROOT
BRANCH  18  21
ATOM      2  O   UNL     1      -7.006  -9.420  12.254  0.00  0.00    -0.274 OA
ATOM     12  N   UNL     1      -5.163 -10.038  13.536  0.00  0.00    -0.302 N 
ATOM     21  C   UNL     1      -5.799  -9.597  12.386  0.00  0.00    +0.234 C 
ATOM     40  H   UNL     1      -4.165 -10.225  13.512  0.00  0.00    +0.150 HD
BRANCH  12  23
ATOM     23  C   UNL     1      -5.868 -10.354  14.756  0.00  0.00    +0.163 C 
BRANCH  23  27
ATOM      7  O   UNL     1      -7.211 -12.379  14.777  0.00  0.00    -0.274 OA
ATOM     15  N   UNL     1      -4.924 -12.579  14.705  0.00  0.00    -0.328 N 
ATOM     27  C   UNL     1      -6.098 -11.858  14.765  0.00  0.00    +0.231 C 
ATOM     41  H   UNL     1      -4.011 -12.135  14.673  0.00  0.00    +0.145 HD
ATOM     42  H   UNL     1      -4.936 -13.593  14.690  0.00  0.00    +0.145 HD
ENDBRANCH  23  27
BRANCH  23  26
ATOM     26  C   UNL     1      -5.087  -9.926  16.004  0.00  0.00    +0.067 C 
BRANCH  26  29
ATOM     29  C   UNL     1      -5.743 -10.376  17.287  0.00  0.00    -0.045 A 
ATOM     32  C   UNL     1      -5.000 -11.065  18.245  0.00  0.00    +0.004 A 
ATOM     33  C   UNL     1      -7.092 -10.103  17.514  0.00  0.00    +0.004 A 
ATOM     35  C   UNL     1      -5.606 -11.482  19.430  0.00  0.00    +0.000 A 
ATOM     36  C   UNL     1      -7.697 -10.518  18.699  0.00  0.00    +0.000 A 
ATOM     38  C   UNL     1      -6.954 -11.208  19.658  0.00  0.00    +0.000 A 
ENDBRANCH  26  29
ENDBRANCH  23  26
ENDBRANCH  12  23
ENDBRANCH  18  21
BRANCH  16  11
ATOM     11  N   UNL     1      -6.706  -7.521   8.452  0.00  0.00    -0.185 NA
ATOM     39  H   UNL     1      -5.927  -6.873   8.279  0.00  0.00    +0.148 HD
BRANCH  11   1
ATOM      1  S   UNL     1      -8.295  -6.966   8.227  0.00  0.00    +0.077 S 
ATOM      4  O   UNL     1      -8.328  -5.523   8.368  0.00  0.00    -0.152 OA
ATOM      5  O   UNL     1      -9.194  -7.795   9.006  0.00  0.00    -0.152 OA
BRANCH   1  25
ATOM     13  N   UNL     1      -9.693  -6.917   5.853  0.00  0.00    -0.216 NA
ATOM     14  N   UNL     1      -8.404  -8.116   4.499  0.00  0.00    -0.338 N 
ATOM     25  C   UNL     1      -8.579  -7.353   6.526  0.00  0.00    +0.211 A 
ATOM     28  C   UNL     1      -7.765  -8.099   5.707  0.00  0.00    +0.135 A 
ATOM     30  C   UNL     1      -9.556  -7.394   4.636  0.00  0.00    +0.201 A 
ATOM     34  C   UNL     1      -7.947  -8.775   3.300  0.00  0.00    +0.150 C 
ENDBRANCH   1  25
ENDBRANCH  11   1
ENDBRANCH  16  11
BRANCH  22  24
ATOM     24  C   UNL     1      -2.516 -11.020  11.790  0.00  0.00    +0.256 C 
BRANCH  24   6
ATOM      6  O   UNL     1      -2.773 -11.662  13.015  0.00  0.00    -0.359 OA
BRANCH   6  31
ATOM     31  C   UNL     1      -1.579 -11.897  13.759  0.00  0.00    +0.280 C 
BRANCH  31  37
ATOM      9  O   UNL     1      -1.108 -10.017  15.226  0.00  0.00    -0.248 OA
ATOM     37  C   UNL     1      -1.615 -11.115  15.043  0.00  0.00    +0.331 C 
BRANCH  37   8
ATOM      8  O   UNL     1      -2.299 -11.802  15.990  0.00  0.00    -0.479 OA
ATOM     43  H   UNL     1      -1.753 -12.509  16.396  0.00  0.00    +0.295 HD
ENDBRANCH  37   8
ENDBRANCH  31  37
ENDBRANCH   6  31
ENDBRANCH  24   6
ENDBRANCH  22  24
TORSDOF 13
ENDMDL
MODEL 3
REMARK VINA RESULT:      -6.6     27.451     29.991
REMARK  Name = 44716833
REMARK  14 active torsions:
REMARK  status: ('A' for Active; 'I' for Inactive)
REMARK    1  A    between atoms: S_1  and  N_11
REMARK    2  A    between atoms: S_1  and  C_25
REMARK    3  A    between atoms: O_6  and  C_24
REMARK    4  A    between atoms: O_6  and  C_31
REMARK    5  A    between atoms: O_8  and  C_37
REMARK    6  A    between atoms: N_11  and  C_16
REMARK    7  A    between atoms: N_12  and  C_23
REMARK    8  A    between atoms: N_14  and  C_34
REMARK    9  A    between atoms: C_18  and  C_21
REMARK   10  A    between atoms: C_22  and  C_24
REMARK   11  A    between atoms: C_23  and  C_26
REMARK   12  A    between atoms: C_23  and  C_27
REMARK   13  A    between atoms: C_26  and  C_29
REMARK   14  A    between atoms: C_31  and  C_37
REMARK                            x       y       z     vdW  Elec       q    Type
REMARK                         _______ _______ _______ _____ _____    ______ ____
ROOT
ATOM      3  O   UNL     1      -3.165 -12.237  10.573  0.00  0.00    -0.273 OA
ATOM     10  N   UNL     1      -4.597 -10.402  10.573  0.00  0.00    -0.288 N 
ATOM     16  C   UNL     1      -6.659  -8.865   9.202  0.00  0.00    +0.080 C 
ATOM     17  C   UNL     1      -5.635  -8.169  10.098  0.00  0.00    +0.052 C 
ATOM     18  C   UNL     1      -5.009  -9.105  11.136  0.00  0.00    +0.163 C 
ATOM     19  C   UNL     1      -6.064 -10.131   8.591  0.00  0.00    +0.039 C 
ATOM     20  C   UNL     1      -5.556 -11.066   9.681  0.00  0.00    +0.110 C 
ATOM     22  C   UNL     1      -3.439 -11.093  10.946  0.00  0.00    +0.242 C 
ENDROOT
BRANCH  18  21
ATOM      2  O   UNL     1      -7.154  -9.178  12.186  0.00  0.00    -0.274 OA
ATOM     12  N   UNL     1      -5.292  -9.915  13.374  0.00  0.00    -0.302 N 
ATOM     21  C   UNL     1      -5.949  -9.401  12.268  0.00  0.00    +0.234 C 
ATOM     40  H   UNL     1      -4.303 -10.135  13.308  0.00  0.00    +0.150 HD
BRANCH  12  23
ATOM     23  C   UNL     1      -5.966 -10.262  14.604  0.00  0.00    +0.163 C 
BRANCH  23  27
ATOM      7  O   UNL     1      -7.254 -12.315  14.780  0.00  0.00    -0.274 OA
ATOM     15  N   UNL     1      -5.012 -12.463  14.302  0.00  0.00    -0.328 N 
ATOM     27  C   UNL     1      -6.168 -11.770  14.594  0.00  0.00    +0.231 C 
ATOM     41  H   UNL     1      -4.126 -11.998  14.129  0.00  0.00    +0.145 HD
ATOM     42  H   UNL     1      -5.011 -13.476  14.250  0.00  0.00    +0.145 HD
ENDBRANCH  23  27
BRANCH  23  26
ATOM     26  C   UNL     1      -5.169  -9.838  15.842  0.00  0.00    +0.067 C 
BRANCH  26  29
ATOM     29  C   UNL     1      -5.786 -10.327  17.130  0.00  0.00    -0.045 A 
ATOM     32  C   UNL     1      -5.043 -11.127  17.998  0.00  0.00    +0.004 A 
ATOM     33  C   UNL     1      -7.098  -9.980  17.452  0.00  0.00    +0.004 A 
ATOM     35  C   UNL     1      -5.612 -11.580  19.188  0.00  0.00    +0.000 A 
ATOM     36  C   UNL     1      -7.667 -10.432  18.641  0.00  0.00    +0.000 A 
ATOM     38  C   UNL     1      -6.924 -11.233  19.510  0.00  0.00    +0.000 A 
ENDBRANCH  26  29
ENDBRANCH  23  26
ENDBRANCH  12  23
ENDBRANCH  18  21
BRANCH  16  11
ATOM     11  N   UNL     1      -7.070  -7.940   8.118  0.00  0.00    -0.185 NA
ATOM     39  H   UNL     1      -6.600  -7.026   8.107  0.00  0.00    +0.148 HD
BRANCH  11   1
ATOM      1  S   UNL     1      -8.621  -8.069   7.439  0.00  0.00    +0.077 S 
ATOM      4  O   UNL     1      -9.216  -9.332   7.830  0.00  0.00    -0.152 OA
ATOM      5  O   UNL     1      -8.550  -7.698   6.039  0.00  0.00    -0.152 OA
BRANCH   1  25
ATOM     13  N   UNL     1      -9.150  -5.454   8.131  0.00  0.00    -0.216 NA
ATOM     14  N   UNL     1     -10.882  -5.650   9.506  0.00  0.00    -0.338 N 
ATOM     25  C   UNL     1      -9.492  -6.776   8.272  0.00  0.00    +0.211 A 
ATOM     28  C   UNL     1     -10.564  -6.922   9.121  0.00  0.00    +0.135 A 
ATOM     30  C   UNL     1     -10.006  -4.804   8.886  0.00  0.00    +0.201 A 
ATOM     34  C   UNL     1     -11.946  -5.270  10.402  0.00  0.00    +0.150 C 
ENDBRANCH   1  25
ENDBRANCH  11   1
ENDBRANCH  16  11
BRANCH  22  24
ATOM     24  C   UNL     1      -2.478 -10.368  11.855  0.00  0.00    +0.256 C 
BRANCH  24   6
ATOM      6  O   UNL     1      -2.670 -10.893  13.145  0.00  0.00    -0.359 OA
BRANCH   6  31
ATOM     31  C   UNL     1      -1.768 -10.327  14.095  0.00  0.00    +0.280 C 
BRANCH  31  37
ATOM      9  O   UNL     1      -1.562 -10.700  16.488  0.00  0.00    -0.248 OA
ATOM     37  C   UNL     1      -1.799 -11.128  15.368  0.00  0.00    +0.331 C 
BRANCH  37   8
ATOM      8  O   UNL     1      -2.134 -12.415  15.103  0.00  0.00    -0.479 OA
ATOM     43  H   UNL     1      -2.321 -12.921  15.922  0.00  0.00    +0.295 HD
ENDBRANCH  37   8
ENDBRANCH  31  37
ENDBRANCH   6  31
ENDBRANCH  24   6
ENDBRANCH  22  24
TORSDOF 13
ENDMDL
MODEL 4
REMARK VINA RESULT:      -6.4      2.010      2.779
REMARK  Name = 44716833
REMARK  14 active torsions:
REMARK  status: ('A' for Active; 'I' for Inactive)
REMARK    1  A    between atoms: S_1  and  N_11
REMARK    2  A    between atoms: S_1  and  C_25
REMARK    3  A    between atoms: O_6  and  C_24
REMARK    4  A    between atoms: O_6  and  C_31
REMARK    5  A    between atoms: O_8  and  C_37
REMARK    6  A    between atoms: N_11  and  C_16
REMARK    7  A    between atoms: N_12  and  C_23
REMARK    8  A    between atoms: N_14  and  C_34
REMARK    9  A    between atoms: C_18  and  C_21
REMARK   10  A    between atoms: C_22  and  C_24
REMARK   11  A    between atoms: C_23  and  C_26
REMARK   12  A    between atoms: C_23  and  C_27
REMARK   13  A    between atoms: C_26  and  C_29
REMARK   14  A    between atoms: C_31  and  C_37
REMARK                            x       y       z     vdW  Elec       q    Type
REMARK                         _______ _______ _______ _____ _____    ______ ____
ROOT
ATOM      3  O   UNL     1      15.129  12.378  22.664  0.00  0.00    -0.273 OA
ATOM     10  N   UNL     1      14.420  12.053  20.470  0.00  0.00    -0.288 N 
ATOM     16  C   UNL     1      15.122  11.684  17.666  0.00  0.00    +0.080 C 
ATOM     17  C   UNL     1      13.839  12.416  18.058  0.00  0.00    +0.052 C 
ATOM     18  C   UNL     1      13.347  12.055  19.462  0.00  0.00    +0.163 C 
ATOM     19  C   UNL     1      16.190  11.860  18.742  0.00  0.00    +0.039 C 
ATOM     20  C   UNL     1      15.673  11.385  20.094  0.00  0.00    +0.110 C 
ATOM     22  C   UNL     1      14.271  12.504  21.786  0.00  0.00    +0.242 C 
ENDROOT
BRANCH  18  21
ATOM      2  O   UNL     1      12.099  10.298  20.494  0.00  0.00    -0.274 OA
ATOM     12  N   UNL     1      12.910   9.986  18.334  0.00  0.00    -0.302 N 
ATOM     21  C   UNL     1      12.707  10.698  19.505  0.00  0.00    +0.234 C 
ATOM     40  H   UNL     1      13.360  10.441  17.546  0.00  0.00    +0.150 HD
BRANCH  12  23
ATOM     23  C   UNL     1      12.415   8.644  18.129  0.00  0.00    +0.163 C 
BRANCH  23  27
ATOM      7  O   UNL     1      10.451   8.022  16.840  0.00  0.00    -0.274 OA
ATOM     15  N   UNL     1      11.880   9.598  15.973  0.00  0.00    -0.328 N 
ATOM     27  C   UNL     1      11.480   8.689  16.930  0.00  0.00    +0.231 C 
ATOM     41  H   UNL     1      12.721  10.159  16.072  0.00  0.00    +0.145 HD
ATOM     42  H   UNL     1      11.337   9.738  15.128  0.00  0.00    +0.145 HD
ENDBRANCH  23  27
BRANCH  23  26
ATOM     26  C   UNL     1      13.547   7.639  17.886  0.00  0.00    +0.067 C 
BRANCH  26  29
ATOM     29  C   UNL     1      14.339   7.338  19.135  0.00  0.00    -0.045 A 
ATOM     32  C   UNL     1      13.696   7.286  20.372  0.00  0.00    +0.004 A 
ATOM     33  C   UNL     1      15.713   7.113  19.054  0.00  0.00    +0.004 A 
ATOM     35  C   UNL     1      14.427   7.008  21.527  0.00  0.00    +0.000 A 
ATOM     36  C   UNL     1      16.444   6.835  20.208  0.00  0.00    +0.000 A 
ATOM     38  C   UNL     1      15.801   6.783  21.446  0.00  0.00    +0.000 A 
ENDBRANCH  26  29
ENDBRANCH  23  26
ENDBRANCH  12  23
ENDBRANCH  18  21
BRANCH  16  11
ATOM     11  N   UNL     1      15.622  12.229  16.380  0.00  0.00    -0.185 NA
ATOM     39  H   UNL     1      15.575  13.251  16.278  0.00  0.00    +0.148 HD
BRANCH  11   1
ATOM      1  S   UNL     1      15.587  11.266  14.982  0.00  0.00    +0.077 S 
ATOM      4  O   UNL     1      14.959   9.995  15.287  0.00  0.00    -0.152 OA
ATOM      5  O   UNL     1      16.895  11.302  14.357  0.00  0.00    -0.152 OA
BRANCH   1  25
ATOM     13  N   UNL     1      14.501  12.045  12.572  0.00  0.00    -0.216 NA
ATOM     14  N   UNL     1      12.958  13.520  13.183  0.00  0.00    -0.338 N 
ATOM     25  C   UNL     1      14.491  12.179  13.938  0.00  0.00    +0.211 A 
ATOM     28  C   UNL     1      13.542  13.089  14.341  0.00  0.00    +0.135 A 
ATOM     30  C   UNL     1      13.566  12.866  12.149  0.00  0.00    +0.201 A 
ATOM     34  C   UNL     1      11.894  14.488  13.073  0.00  0.00    +0.150 C 
ENDBRANCH   1  25
ENDBRANCH  11   1
ENDBRANCH  16  11
BRANCH  22  24
ATOM     24  C   UNL     1      12.972  13.194  22.124  0.00  0.00    +0.256 C 
BRANCH  24   6
ATOM      6  O   UNL     1      12.661  12.838  23.449  0.00  0.00    -0.359 OA
BRANCH   6  31
ATOM     31  C   UNL     1      11.253  12.799  23.678  0.00  0.00    +0.280 C 
BRANCH  31  37
ATOM      9  O   UNL     1      10.893  11.067  25.345  0.00  0.00    -0.248 OA
ATOM     37  C   UNL     1      10.856  11.438  24.181  0.00  0.00    +0.331 C 
BRANCH  37   8
ATOM      8  O   UNL     1      10.441  10.661  23.150  0.00  0.00    -0.479 OA
ATOM     43  H   UNL     1      10.520  11.124  22.288  0.00  0.00    +0.295 HD
ENDBRANCH  37   8
ENDBRANCH  31  37
ENDBRANCH   6  31
ENDBRANCH  24   6
ENDBRANCH  22  24
TORSDOF 13
ENDMDL
MODEL 5
REMARK VINA RESULT:      -6.3     27.280     31.036
REMARK  Name = 44716833
REMARK  14 active torsions:
REMARK  status: ('A' for Active; 'I' for Inactive)
REMARK    1  A    between atoms: S_1  and  N_11
REMARK    2  A    between atoms: S_1  and  C_25
REMARK    3  A    between atoms: O_6  and  C_24
REMARK    4  A    between atoms: O_6  and  C_31
REMARK    5  A    between atoms: O_8  and  C_37
REMARK    6  A    between atoms: N_11  and  C_16
REMARK    7  A    between atoms: N_12  and  C_23
REMARK    8  A    between atoms: N_14  and  C_34
REMARK    9  A    between atoms: C_18  and  C_21
REMARK   10  A    between atoms: C_22  and  C_24
REMARK   11  A    between atoms: C_23  and  C_26
REMARK   12  A    between atoms: C_23  and  C_27
REMARK   13  A    between atoms: C_26  and  C_29
REMARK   14  A    between atoms: C_31  and  C_37
REMARK                            x       y       z     vdW  Elec       q    Type
REMARK                         _______ _______ _______ _____ _____    ______ ____
ROOT
ATOM      3  O   UNL     1      -4.450 -14.573  16.962  0.00  0.00    -0.273 OA
ATOM     10  N   UNL     1      -5.688 -12.921  15.888  0.00  0.00    -0.288 N 
ATOM     16  C   UNL     1      -7.906 -11.032  15.975  0.00  0.00    +0.080 C 
ATOM     17  C   UNL     1      -7.501 -11.698  14.660  0.00  0.00    +0.052 C 
ATOM     18  C   UNL     1      -6.053 -12.195  14.659  0.00  0.00    +0.163 C 
ATOM     19  C   UNL     1      -7.580 -11.940  17.158  0.00  0.00    +0.039 C 
ATOM     20  C   UNL     1      -6.103 -12.312  17.158  0.00  0.00    +0.110 C 
ATOM     22  C   UNL     1      -4.861 -14.048  15.924  0.00  0.00    +0.242 C 
ENDROOT
BRANCH  18  21
ATOM      2  O   UNL     1      -5.286  -9.955  14.974  0.00  0.00    -0.274 OA
ATOM     12  N   UNL     1      -3.949 -11.446  13.789  0.00  0.00    -0.302 N 
ATOM     21  C   UNL     1      -5.070 -11.070  14.510  0.00  0.00    +0.234 C 
ATOM     40  H   UNL     1      -3.834 -12.418  13.518  0.00  0.00    +0.150 HD
BRANCH  12  23
ATOM     23  C   UNL     1      -2.864 -10.542  13.486  0.00  0.00    +0.163 C 
BRANCH  23  27
ATOM      7  O   UNL     1      -1.165  -9.684  14.997  0.00  0.00    -0.274 OA
ATOM     15  N   UNL     1      -1.908 -11.838  15.289  0.00  0.00    -0.328 N 
ATOM     27  C   UNL     1      -1.879 -10.620  14.643  0.00  0.00    +0.231 C 
ATOM     41  H   UNL     1      -2.520 -12.595  14.999  0.00  0.00    +0.145 HD
ATOM     42  H   UNL     1      -1.310 -12.017  16.088  0.00  0.00    +0.145 HD
ENDBRANCH  23  27
BRANCH  23  26
ATOM     26  C   UNL     1      -2.167 -10.893  12.167  0.00  0.00    +0.067 C 
BRANCH  26  29
ATOM     29  C   UNL     1      -3.015 -10.583  10.957  0.00  0.00    -0.045 A 
ATOM     32  C   UNL     1      -3.688 -11.611  10.296  0.00  0.00    +0.004 A 
ATOM     33  C   UNL     1      -3.127  -9.270  10.500  0.00  0.00    +0.004 A 
ATOM     35  C   UNL     1      -4.472 -11.326   9.179  0.00  0.00    +0.000 A 
ATOM     36  C   UNL     1      -3.911  -8.985   9.384  0.00  0.00    +0.000 A 
ATOM     38  C   UNL     1      -4.584 -10.013   8.722  0.00  0.00    +0.000 A 
ENDBRANCH  26  29
ENDBRANCH  23  26
ENDBRANCH  12  23
ENDBRANCH  18  21
BRANCH  16  11
ATOM     11  N   UNL     1      -9.363 -10.754  15.954  0.00  0.00    -0.185 NA
ATOM     39  H   UNL     1      -9.914 -11.305  15.284  0.00  0.00    +0.148 HD
BRANCH  11   1
ATOM      1  S   UNL     1      -9.939  -9.228  16.427  0.00  0.00    +0.077 S 
ATOM      4  O   UNL     1     -10.964  -8.790  15.500  0.00  0.00    -0.152 OA
ATOM      5  O   UNL     1      -8.807  -8.372  16.722  0.00  0.00    -0.152 OA
BRANCH   1  25
ATOM     13  N   UNL     1     -10.038 -10.150  19.023  0.00  0.00    -0.216 NA
ATOM     14  N   UNL     1     -12.164  -9.829  19.578  0.00  0.00    -0.338 N 
ATOM     25  C   UNL     1     -10.722  -9.597  17.969  0.00  0.00    +0.211 A 
ATOM     28  C   UNL     1     -12.043  -9.390  18.289  0.00  0.00    +0.135 A 
ATOM     30  C   UNL     1     -10.935 -10.275  19.975  0.00  0.00    +0.201 A 
ATOM     34  C   UNL     1     -13.367  -9.822  20.373  0.00  0.00    +0.150 C 
ENDBRANCH   1  25
ENDBRANCH  11   1
ENDBRANCH  16  11
BRANCH  22  24
ATOM     24  C   UNL     1      -4.469 -14.647  14.595  0.00  0.00    +0.256 C 
BRANCH  24   6
ATOM      6  O   UNL     1      -3.091 -14.410  14.438  0.00  0.00    -0.359 OA
BRANCH   6  31
ATOM     31  C   UNL     1      -2.419 -15.523  13.851  0.00  0.00    +0.280 C 
BRANCH  31  37
ATOM      9  O   UNL     1      -0.103 -15.872  13.202  0.00  0.00    -0.248 OA
ATOM     37  C   UNL     1      -1.037 -15.114  13.420  0.00  0.00    +0.331 C 
BRANCH  37   8
ATOM      8  O   UNL     1      -0.964 -13.765  13.302  0.00  0.00    -0.479 OA
ATOM     43  H   UNL     1      -1.847 -13.343  13.372  0.00  0.00    +0.295 HD
ENDBRANCH  37   8
ENDBRANCH  31  37
ENDBRANCH   6  31
ENDBRANCH  24   6
ENDBRANCH  22  24
TORSDOF 13
ENDMDL
MODEL 6
REMARK VINA RESULT:      -6.2      1.811      2.525
REMARK  Name = 44716833
REMARK  14 active torsions:
REMARK  status: ('A' for Active; 'I' for Inactive)
REMARK    1  A    between atoms: S_1  and  N_11
REMARK    2  A    between atoms: S_1  and  C_25
REMARK    3  A    between atoms: O_6  and  C_24
REMARK    4  A    between atoms: O_6  and  C_31
REMARK    5  A    between atoms: O_8  and  C_37
REMARK    6  A    between atoms: N_11  and  C_16
REMARK    7  A    between atoms: N_12  and  C_23
REMARK    8  A    between atoms: N_14  and  C_34
REMARK    9  A    between atoms: C_18  and  C_21
REMARK   10  A    between atoms: C_22  and  C_24
REMARK   11  A    between atoms: C_23  and  C_26
REMARK   12  A    between atoms: C_23  and  C_27
REMARK   13  A    between atoms: C_26  and  C_29
REMARK   14  A    between atoms: C_31  and  C_37
REMARK                            x       y       z     vdW  Elec       q    Type
REMARK                         _______ _______ _______ _____ _____    ______ ____
ROOT
ATOM      3  O   UNL     1      15.039  11.484  22.805  0.00  0.00    -0.273 OA
ATOM     10  N   UNL     1      14.314  11.473  20.593  0.00  0.00    -0.288 N 
ATOM     16  C   UNL     1      14.995  11.436  17.760  0.00  0.00    +0.080 C 
ATOM     17  C   UNL     1      13.746  12.168  18.251  0.00  0.00    +0.052 C 
ATOM     18  C   UNL     1      13.240  11.652  19.601  0.00  0.00    +0.163 C 
ATOM     19  C   UNL     1      16.071  11.426  18.842  0.00  0.00    +0.039 C 
ATOM     20  C   UNL     1      15.535  10.805  20.126  0.00  0.00    +0.110 C 
ATOM     22  C   UNL     1      14.186  11.759  21.957  0.00  0.00    +0.242 C 
ENDROOT
BRANCH  18  21
ATOM      2  O   UNL     1      11.905   9.841  20.404  0.00  0.00    -0.274 OA
ATOM     12  N   UNL     1      12.724   9.758  18.226  0.00  0.00    -0.302 N 
ATOM     21  C   UNL     1      12.540  10.330  19.474  0.00  0.00    +0.234 C 
ATOM     40  H   UNL     1      13.202  10.285  17.502  0.00  0.00    +0.150 HD
BRANCH  12  23
ATOM     23  C   UNL     1      12.172   8.475  17.856  0.00  0.00    +0.163 C 
BRANCH  23  27
ATOM      7  O   UNL     1      11.792   9.107  15.540  0.00  0.00    -0.274 OA
ATOM     15  N   UNL     1      10.018   8.322  16.770  0.00  0.00    -0.328 N 
ATOM     27  C   UNL     1      11.336   8.691  16.603  0.00  0.00    +0.231 C 
ATOM     41  H   UNL     1       9.659   7.960  17.649  0.00  0.00    +0.145 HD
ATOM     42  H   UNL     1       9.354   8.403  16.007  0.00  0.00    +0.145 HD
ENDBRANCH  23  27
BRANCH  23  26
ATOM     26  C   UNL     1      13.262   7.428  17.597  0.00  0.00    +0.067 C 
BRANCH  26  29
ATOM     29  C   UNL     1      14.118   7.164  18.812  0.00  0.00    -0.045 A 
ATOM     32  C   UNL     1      13.519   6.948  20.053  0.00  0.00    +0.004 A 
ATOM     33  C   UNL     1      15.507   7.135  18.694  0.00  0.00    +0.004 A 
ATOM     35  C   UNL     1      14.309   6.704  21.176  0.00  0.00    +0.000 A 
ATOM     36  C   UNL     1      16.297   6.891  19.816  0.00  0.00    +0.000 A 
ATOM     38  C   UNL     1      15.698   6.675  21.058  0.00  0.00    +0.000 A 
ENDBRANCH  26  29
ENDBRANCH  23  26
ENDBRANCH  12  23
ENDBRANCH  18  21
BRANCH  16  11
ATOM     11  N   UNL     1      15.518  12.119  16.551  0.00  0.00    -0.185 NA
ATOM     39  H   UNL     1      15.839  13.086  16.687  0.00  0.00    +0.148 HD
BRANCH  11   1
ATOM      1  S   UNL     1      14.978  11.646  15.012  0.00  0.00    +0.077 S 
ATOM      4  O   UNL     1      13.910  12.529  14.582  0.00  0.00    -0.152 OA
ATOM      5  O   UNL     1      14.783  10.210  15.007  0.00  0.00    -0.152 OA
BRANCH   1  25
ATOM     13  N   UNL     1      17.665  12.024  14.532  0.00  0.00    -0.216 NA
ATOM     14  N   UNL     1      17.723  12.419  12.348  0.00  0.00    -0.338 N 
ATOM     25  C   UNL     1      16.396  11.979  14.010  0.00  0.00    +0.211 A 
ATOM     28  C   UNL     1      16.407  12.222  12.657  0.00  0.00    +0.135 A 
ATOM     30  C   UNL     1      18.439  12.291  13.504  0.00  0.00    +0.201 A 
ATOM     34  C   UNL     1      18.258  12.710  11.040  0.00  0.00    +0.150 C 
ENDBRANCH   1  25
ENDBRANCH  11   1
ENDBRANCH  16  11
BRANCH  22  24
ATOM     24  C   UNL     1      12.920  12.456  22.389  0.00  0.00    +0.256 C 
BRANCH  24   6
ATOM      6  O   UNL     1      12.114  11.481  23.004  0.00  0.00    -0.359 OA
BRANCH   6  31
ATOM     31  C   UNL     1      10.885  12.025  23.484  0.00  0.00    +0.280 C 
BRANCH  31  37
ATOM      9  O   UNL     1      10.410  12.804  25.737  0.00  0.00    -0.248 OA
ATOM     37  C   UNL     1      10.845  11.944  24.986  0.00  0.00    +0.331 C 
BRANCH  37   8
ATOM      8  O   UNL     1      11.366  10.764  25.405  0.00  0.00    -0.479 OA
ATOM     43  H   UNL     1      12.324  10.695  25.204  0.00  0.00    +0.295 HD
ENDBRANCH  37   8
ENDBRANCH  31  37
ENDBRANCH   6  31
ENDBRANCH  24   6
ENDBRANCH  22  24
TORSDOF 13
ENDMDL
MODEL 7
REMARK VINA RESULT:      -6.2     27.264     30.699
REMARK  Name = 44716833
REMARK  14 active torsions:
REMARK  status: ('A' for Active; 'I' for Inactive)
REMARK    1  A    between atoms: S_1  and  N_11
REMARK    2  A    between atoms: S_1  and  C_25
REMARK    3  A    between atoms: O_6  and  C_24
REMARK    4  A    between atoms: O_6  and  C_31
REMARK    5  A    between atoms: O_8  and  C_37
REMARK    6  A    between atoms: N_11  and  C_16
REMARK    7  A    between atoms: N_12  and  C_23
REMARK    8  A    between atoms: N_14  and  C_34
REMARK    9  A    between atoms: C_18  and  C_21
REMARK   10  A    between atoms: C_22  and  C_24
REMARK   11  A    between atoms: C_23  and  C_26
REMARK   12  A    between atoms: C_23  and  C_27
REMARK   13  A    between atoms: C_26  and  C_29
REMARK   14  A    between atoms: C_31  and  C_37
REMARK                            x       y       z     vdW  Elec       q    Type
REMARK                         _______ _______ _______ _____ _____    ______ ____
ROOT
ATOM      3  O   UNL     1      -3.650 -15.404  15.553  0.00  0.00    -0.273 OA
ATOM     10  N   UNL     1      -5.078 -13.573  15.397  0.00  0.00    -0.288 N 
ATOM     16  C   UNL     1      -7.132 -11.917  16.635  0.00  0.00    +0.080 C 
ATOM     17  C   UNL     1      -7.114 -12.135  15.122  0.00  0.00    +0.052 C 
ATOM     18  C   UNL     1      -5.735 -12.532  14.589  0.00  0.00    +0.163 C 
ATOM     19  C   UNL     1      -6.531 -13.120  17.357  0.00  0.00    +0.039 C 
ATOM     20  C   UNL     1      -5.120 -13.397  16.855  0.00  0.00    +0.110 C 
ATOM     22  C   UNL     1      -4.307 -14.614  14.870  0.00  0.00    +0.242 C 
ENDROOT
BRANCH  18  21
ATOM      2  O   UNL     1      -4.986 -10.345  15.190  0.00  0.00    -0.274 OA
ATOM     12  N   UNL     1      -3.739 -11.582  13.663  0.00  0.00    -0.302 N 
ATOM     21  C   UNL     1      -4.793 -11.364  14.535  0.00  0.00    +0.234 C 
ATOM     40  H   UNL     1      -3.631 -12.494  13.229  0.00  0.00    +0.150 HD
BRANCH  12  23
ATOM     23  C   UNL     1      -2.705 -10.603  13.413  0.00  0.00    +0.163 C 
BRANCH  23  27
ATOM      7  O   UNL     1      -1.131  -9.750  15.056  0.00  0.00    -0.274 OA
ATOM     15  N   UNL     1      -1.524 -12.012  14.983  0.00  0.00    -0.328 N 
ATOM     27  C   UNL     1      -1.698 -10.715  14.547  0.00  0.00    +0.231 C 
ATOM     41  H   UNL     1      -2.016 -12.798  14.568  0.00  0.00    +0.145 HD
ATOM     42  H   UNL     1      -0.890 -12.225  15.745  0.00  0.00    +0.145 HD
ENDBRANCH  23  27
BRANCH  23  26
ATOM     26  C   UNL     1      -2.015 -10.822  12.062  0.00  0.00    +0.067 C 
BRANCH  26  29
ATOM     29  C   UNL     1      -2.924 -10.545  10.889  0.00  0.00    -0.045 A 
ATOM     32  C   UNL     1      -3.093  -9.238  10.432  0.00  0.00    +0.004 A 
ATOM     33  C   UNL     1      -3.596 -11.595  10.263  0.00  0.00    +0.004 A 
ATOM     35  C   UNL     1      -3.933  -8.981   9.349  0.00  0.00    +0.000 A 
ATOM     36  C   UNL     1      -4.436 -11.338   9.181  0.00  0.00    +0.000 A 
ATOM     38  C   UNL     1      -4.605 -10.031   8.723  0.00  0.00    +0.000 A 
ENDBRANCH  26  29
ENDBRANCH  23  26
ENDBRANCH  12  23
ENDBRANCH  18  21
BRANCH  16  11
ATOM     11  N   UNL     1      -8.533 -11.723  17.084  0.00  0.00    -0.185 NA
ATOM     39  H   UNL     1      -9.260 -12.075  16.449  0.00  0.00    +0.148 HD
BRANCH  11   1
ATOM      1  S   UNL     1      -8.914 -10.442  18.132  0.00  0.00    +0.077 S 
ATOM      4  O   UNL     1      -7.696  -9.918  18.717  0.00  0.00    -0.152 OA
ATOM      5  O   UNL     1     -10.017 -10.847  18.982  0.00  0.00    -0.152 OA
BRANCH   1  25
ATOM     13  N   UNL     1      -9.636  -9.459  15.660  0.00  0.00    -0.216 NA
ATOM     14  N   UNL     1     -10.378  -7.422  16.139  0.00  0.00    -0.338 N 
ATOM     25  C   UNL     1      -9.545  -9.229  17.010  0.00  0.00    +0.211 A 
ATOM     28  C   UNL     1      -9.999  -7.972  17.331  0.00  0.00    +0.135 A 
ATOM     30  C   UNL     1     -10.141  -8.351  15.166  0.00  0.00    +0.201 A 
ATOM     34  C   UNL     1     -10.927  -6.102  15.943  0.00  0.00    +0.150 C 
ENDBRANCH   1  25
ENDBRANCH  11   1
ENDBRANCH  16  11
BRANCH  22  24
ATOM     24  C   UNL     1      -4.303 -14.764  13.369  0.00  0.00    +0.256 C 
BRANCH  24   6
ATOM      6  O   UNL     1      -3.173 -15.538  13.045  0.00  0.00    -0.359 OA
BRANCH   6  31
ATOM     31  C   UNL     1      -2.102 -14.740  12.544  0.00  0.00    +0.280 C 
BRANCH  31  37
ATOM      9  O   UNL     1      -0.612 -16.066  13.933  0.00  0.00    -0.248 OA
ATOM     37  C   UNL     1      -0.842 -15.041  13.309  0.00  0.00    +0.331 C 
BRANCH  37   8
ATOM      8  O   UNL     1       0.023 -14.001  13.211  0.00  0.00    -0.479 OA
ATOM     43  H   UNL     1      -0.381 -13.159  13.510  0.00  0.00    +0.295 HD
ENDBRANCH  37   8
ENDBRANCH  31  37
ENDBRANCH   6  31
ENDBRANCH  24   6
ENDBRANCH  22  24
TORSDOF 13
ENDMDL
MODEL 8
REMARK VINA RESULT:      -6.1     12.675     17.082
REMARK  Name = 44716833
REMARK  14 active torsions:
REMARK  status: ('A' for Active; 'I' for Inactive)
REMARK    1  A    between atoms: S_1  and  N_11
REMARK    2  A    between atoms: S_1  and  C_25
REMARK    3  A    between atoms: O_6  and  C_24
REMARK    4  A    between atoms: O_6  and  C_31
REMARK    5  A    between atoms: O_8  and  C_37
REMARK    6  A    between atoms: N_11  and  C_16
REMARK    7  A    between atoms: N_12  and  C_23
REMARK    8  A    between atoms: N_14  and  C_34
REMARK    9  A    between atoms: C_18  and  C_21
REMARK   10  A    between atoms: C_22  and  C_24
REMARK   11  A    between atoms: C_23  and  C_26
REMARK   12  A    between atoms: C_23  and  C_27
REMARK   13  A    between atoms: C_26  and  C_29
REMARK   14  A    between atoms: C_31  and  C_37
REMARK                            x       y       z     vdW  Elec       q    Type
REMARK                         _______ _______ _______ _____ _____    ______ ____
ROOT
ATOM      3  O   UNL     1       7.941   8.188   6.589  0.00  0.00    -0.273 OA
ATOM     10  N   UNL     1       9.673   7.149   5.431  0.00  0.00    -0.288 N 
ATOM     16  C   UNL     1      10.636   5.962   2.950  0.00  0.00    +0.080 C 
ATOM     17  C   UNL     1      11.116   5.437   4.303  0.00  0.00    +0.052 C 
ATOM     18  C   UNL     1      10.976   6.463   5.430  0.00  0.00    +0.163 C 
ATOM     19  C   UNL     1       9.228   6.539   3.067  0.00  0.00    +0.039 C 
ATOM     20  C   UNL     1       9.181   7.628   4.132  0.00  0.00    +0.110 C 
ATOM     22  C   UNL     1       8.964   7.498   6.585  0.00  0.00    +0.242 C 
ENDROOT
BRANCH  18  21
ATOM      2  O   UNL     1      11.780   8.706   5.601  0.00  0.00    -0.274 OA
ATOM     12  N   UNL     1      13.260   7.025   4.967  0.00  0.00    -0.302 N 
ATOM     21  C   UNL     1      12.030   7.530   5.356  0.00  0.00    +0.234 C 
ATOM     40  H   UNL     1      13.377   6.021   4.865  0.00  0.00    +0.150 HD
BRANCH  12  23
ATOM     23  C   UNL     1      14.435   7.848   4.798  0.00  0.00    +0.163 C 
BRANCH  23  27
ATOM      7  O   UNL     1      15.825   8.918   6.480  0.00  0.00    -0.274 OA
ATOM     15  N   UNL     1      14.714   6.987   7.040  0.00  0.00    -0.328 N 
ATOM     27  C   UNL     1      15.084   7.988   6.167  0.00  0.00    +0.231 C 
ATOM     41  H   UNL     1      14.083   6.237   6.774  0.00  0.00    +0.145 HD
ATOM     42  H   UNL     1      15.065   6.970   7.992  0.00  0.00    +0.145 HD
ENDBRANCH  23  27
BRANCH  23  26
ATOM     26  C   UNL     1      15.426   7.247   3.796  0.00  0.00    +0.067 C 
BRANCH  26  29
ATOM     29  C   UNL     1      15.327   7.877   2.428  0.00  0.00    -0.045 A 
ATOM     32  C   UNL     1      16.134   7.414   1.388  0.00  0.00    +0.004 A 
ATOM     33  C   UNL     1      14.430   8.921   2.202  0.00  0.00    +0.004 A 
ATOM     35  C   UNL     1      16.044   7.995   0.123  0.00  0.00    +0.000 A 
ATOM     36  C   UNL     1      14.339   9.502   0.939  0.00  0.00    +0.000 A 
ATOM     38  C   UNL     1      15.146   9.039  -0.102  0.00  0.00    +0.000 A 
ENDBRANCH  26  29
ENDBRANCH  23  26
ENDBRANCH  12  23
ENDBRANCH  18  21
BRANCH  16  11
ATOM     11  N   UNL     1      10.633   4.851   1.967  0.00  0.00    -0.185 NA
ATOM     39  H   UNL     1       9.786   4.269   1.952  0.00  0.00    +0.148 HD
BRANCH  11   1
ATOM      1  S   UNL     1      12.102   4.171   1.454  0.00  0.00    +0.077 S 
ATOM      4  O   UNL     1      12.283   2.880   2.088  0.00  0.00    -0.152 OA
ATOM      5  O   UNL     1      13.140   5.179   1.543  0.00  0.00    -0.152 OA
BRANCH   1  25
ATOM     13  N   UNL     1      10.611   4.248  -0.863  0.00  0.00    -0.216 NA
ATOM     14  N   UNL     1      11.976   3.331  -2.355  0.00  0.00    -0.338 N 
ATOM     25  C   UNL     1      11.796   3.895  -0.265  0.00  0.00    +0.211 A 
ATOM     28  C   UNL     1      12.658   3.324  -1.171  0.00  0.00    +0.135 A 
ATOM     30  C   UNL     1      10.754   3.894  -2.120  0.00  0.00    +0.201 A 
ATOM     34  C   UNL     1      12.458   2.835  -3.621  0.00  0.00    +0.150 C 
ENDBRANCH   1  25
ENDBRANCH  11   1
ENDBRANCH  16  11
BRANCH  22  24
ATOM     24  C   UNL     1       9.499   6.975   7.895  0.00  0.00    +0.256 C 
BRANCH  24   6
ATOM      6  O   UNL     1       8.673   5.899   8.267  0.00  0.00    -0.359 OA
BRANCH   6  31
ATOM     31  C   UNL     1       9.427   4.767   8.699  0.00  0.00    +0.280 C 
BRANCH  31  37
ATOM      9  O   UNL     1      10.524   4.754  10.868  0.00  0.00    -0.248 OA
ATOM     37  C   UNL     1       9.500   4.747  10.201  0.00  0.00    +0.331 C 
BRANCH  37   8
ATOM      8  O   UNL     1       8.251   4.720  10.729  0.00  0.00    -0.479 OA
ATOM     43  H   UNL     1       8.189   5.255  11.549  0.00  0.00    +0.295 HD
ENDBRANCH  37   8
ENDBRANCH  31  37
ENDBRANCH   6  31
ENDBRANCH  24   6
ENDBRANCH  22  24
TORSDOF 13
ENDMDL
MODEL 9
REMARK VINA RESULT:      -6.1     27.544     30.904
REMARK  Name = 44716833
REMARK  14 active torsions:
REMARK  status: ('A' for Active; 'I' for Inactive)
REMARK    1  A    between atoms: S_1  and  N_11
REMARK    2  A    between atoms: S_1  and  C_25
REMARK    3  A    between atoms: O_6  and  C_24
REMARK    4  A    between atoms: O_6  and  C_31
REMARK    5  A    between atoms: O_8  and  C_37
REMARK    6  A    between atoms: N_11  and  C_16
REMARK    7  A    between atoms: N_12  and  C_23
REMARK    8  A    between atoms: N_14  and  C_34
REMARK    9  A    between atoms: C_18  and  C_21
REMARK   10  A    between atoms: C_22  and  C_24
REMARK   11  A    between atoms: C_23  and  C_26
REMARK   12  A    between atoms: C_23  and  C_27
REMARK   13  A    between atoms: C_26  and  C_29
REMARK   14  A    between atoms: C_31  and  C_37
REMARK                            x       y       z     vdW  Elec       q    Type
REMARK                         _______ _______ _______ _____ _____    ______ ____
ROOT
ATOM      3  O   UNL     1      -1.766  -9.867  11.553  0.00  0.00    -0.273 OA
ATOM     10  N   UNL     1      -3.883 -10.240  10.657  0.00  0.00    -0.288 N 
ATOM     16  C   UNL     1      -6.297  -9.138   9.454  0.00  0.00    +0.080 C 
ATOM     17  C   UNL     1      -6.367 -10.375  10.349  0.00  0.00    +0.052 C 
ATOM     18  C   UNL     1      -5.038 -11.128  10.440  0.00  0.00    +0.163 C 
ATOM     19  C   UNL     1      -5.127  -8.247   9.863  0.00  0.00    +0.039 C 
ATOM     20  C   UNL     1      -3.820  -9.028   9.831  0.00  0.00    +0.110 C 
ATOM     22  C   UNL     1      -2.791 -10.550  11.477  0.00  0.00    +0.242 C 
ENDROOT
BRANCH  18  21
ATOM      2  O   UNL     1      -3.764 -12.642   9.102  0.00  0.00    -0.274 OA
ATOM     12  N   UNL     1      -5.700 -11.706   8.210  0.00  0.00    -0.302 N 
ATOM     21  C   UNL     1      -4.751 -11.918   9.196  0.00  0.00    +0.234 C 
ATOM     40  H   UNL     1      -6.522 -11.148   8.421  0.00  0.00    +0.150 HD
BRANCH  12  23
ATOM     23  C   UNL     1      -5.642 -12.332   6.909  0.00  0.00    +0.163 C 
BRANCH  23  27
ATOM      7  O   UNL     1      -7.390 -13.267   5.503  0.00  0.00    -0.274 OA
ATOM     15  N   UNL     1      -7.997 -11.903   7.249  0.00  0.00    -0.328 N 
ATOM     27  C   UNL     1      -7.077 -12.551   6.452  0.00  0.00    +0.231 C 
ATOM     41  H   UNL     1      -7.725 -11.333   8.044  0.00  0.00    +0.145 HD
ATOM     42  H   UNL     1      -8.991 -11.977   7.062  0.00  0.00    +0.145 HD
ENDBRANCH  23  27
BRANCH  23  26
ATOM     26  C   UNL     1      -4.881 -11.479   5.888  0.00  0.00    +0.067 C 
BRANCH  26  29
ATOM     29  C   UNL     1      -3.905 -12.284   5.066  0.00  0.00    -0.045 A 
ATOM     32  C   UNL     1      -2.897 -13.012   5.697  0.00  0.00    +0.004 A 
ATOM     33  C   UNL     1      -4.010 -12.301   3.675  0.00  0.00    +0.004 A 
ATOM     35  C   UNL     1      -1.994 -13.757   4.938  0.00  0.00    +0.000 A 
ATOM     36  C   UNL     1      -3.109 -13.045   2.916  0.00  0.00    +0.000 A 
ATOM     38  C   UNL     1      -2.099 -13.773   3.547  0.00  0.00    +0.000 A 
ENDBRANCH  26  29
ENDBRANCH  23  26
ENDBRANCH  12  23
ENDBRANCH  18  21
BRANCH  16  11
ATOM     11  N   UNL     1      -7.563  -8.374   9.574  0.00  0.00    -0.185 NA
ATOM     39  H   UNL     1      -7.996  -8.368  10.506  0.00  0.00    +0.148 HD
BRANCH  11   1
ATOM      1  S   UNL     1      -8.554  -8.161   8.211  0.00  0.00    +0.077 S 
ATOM      4  O   UNL     1      -9.325  -9.368   7.982  0.00  0.00    -0.152 OA
ATOM      5  O   UNL     1      -7.761  -7.588   7.142  0.00  0.00    -0.152 OA
BRANCH   1  25
ATOM     13  N   UNL     1     -10.792  -7.189   9.492  0.00  0.00    -0.216 NA
ATOM     14  N   UNL     1     -10.637  -4.999   9.157  0.00  0.00    -0.338 N 
ATOM     25  C   UNL     1      -9.665  -6.902   8.762  0.00  0.00    +0.211 A 
ATOM     28  C   UNL     1      -9.548  -5.550   8.542  0.00  0.00    +0.135 A 
ATOM     30  C   UNL     1     -11.353  -6.021   9.713  0.00  0.00    +0.201 A 
ATOM     34  C   UNL     1     -10.969  -3.596   9.210  0.00  0.00    +0.150 C 
ENDBRANCH   1  25
ENDBRANCH  11   1
ENDBRANCH  16  11
BRANCH  22  24
ATOM     24  C   UNL     1      -2.905 -11.798  12.317  0.00  0.00    +0.256 C 
BRANCH  24   6
ATOM      6  O   UNL     1      -3.017 -11.374  13.653  0.00  0.00    -0.359 OA
BRANCH   6  31
ATOM     31  C   UNL     1      -1.933 -11.839  14.456  0.00  0.00    +0.280 C 
BRANCH  31  37
ATOM      9  O   UNL     1      -1.042  -9.627  14.925  0.00  0.00    -0.248 OA
ATOM     37  C   UNL     1      -1.423 -10.719  15.321  0.00  0.00    +0.331 C 
BRANCH  37   8
ATOM      8  O   UNL     1      -1.441 -11.089  16.625  0.00  0.00    -0.479 OA
ATOM     43  H   UNL     1      -1.939 -10.450  17.180  0.00  0.00    +0.295 HD
ENDBRANCH  37   8
ENDBRANCH  31  37
ENDBRANCH   6  31
ENDBRANCH  24   6
ENDBRANCH  22  24
TORSDOF 13
ENDMDL
MODEL 10
REMARK VINA RESULT:      -6.0     27.349     31.363
REMARK  Name = 44716833
REMARK  14 active torsions:
REMARK  status: ('A' for Active; 'I' for Inactive)
REMARK    1  A    between atoms: S_1  and  N_11
REMARK    2  A    between atoms: S_1  and  C_25
REMARK    3  A    between atoms: O_6  and  C_24
REMARK    4  A    between atoms: O_6  and  C_31
REMARK    5  A    between atoms: O_8  and  C_37
REMARK    6  A    between atoms: N_11  and  C_16
REMARK    7  A    between atoms: N_12  and  C_23
REMARK    8  A    between atoms: N_14  and  C_34
REMARK    9  A    between atoms: C_18  and  C_21
REMARK   10  A    between atoms: C_22  and  C_24
REMARK   11  A    between atoms: C_23  and  C_26
REMARK   12  A    between atoms: C_23  and  C_27
REMARK   13  A    between atoms: C_26  and  C_29
REMARK   14  A    between atoms: C_31  and  C_37
REMARK                            x       y       z     vdW  Elec       q    Type
REMARK                         _______ _______ _______ _____ _____    ______ ____
ROOT
ATOM      3  O   UNL     1      -3.624 -15.469  15.394  0.00  0.00    -0.273 OA
ATOM     10  N   UNL     1      -5.047 -13.632  15.534  0.00  0.00    -0.288 N 
ATOM     16  C   UNL     1      -6.847 -12.007  17.150  0.00  0.00    +0.080 C 
ATOM     17  C   UNL     1      -7.091 -12.185  15.651  0.00  0.00    +0.052 C 
ATOM     18  C   UNL     1      -5.827 -12.569  14.878  0.00  0.00    +0.163 C 
ATOM     19  C   UNL     1      -6.137 -13.228  17.726  0.00  0.00    +0.039 C 
ATOM     20  C   UNL     1      -4.835 -13.494  16.981  0.00  0.00    +0.110 C 
ATOM     22  C   UNL     1      -4.384 -14.660  14.855  0.00  0.00    +0.242 C 
ENDROOT
BRANCH  18  21
ATOM      2  O   UNL     1      -5.126 -10.309  15.205  0.00  0.00    -0.274 OA
ATOM     12  N   UNL     1      -3.824 -11.712  13.880  0.00  0.00    -0.302 N 
ATOM     21  C   UNL     1      -4.902 -11.402  14.692  0.00  0.00    +0.234 C 
ATOM     40  H   UNL     1      -3.692 -12.671  13.572  0.00  0.00    +0.150 HD
BRANCH  12  23
ATOM     23  C   UNL     1      -2.800 -10.756  13.526  0.00  0.00    +0.163 C 
BRANCH  23  27
ATOM      7  O   UNL     1      -1.213 -11.780  15.056  0.00  0.00    -0.274 OA
ATOM     15  N   UNL     1      -1.496  -9.501  15.129  0.00  0.00    -0.328 N 
ATOM     27  C   UNL     1      -1.773 -10.764  14.649  0.00  0.00    +0.231 C 
ATOM     41  H   UNL     1      -1.950  -8.668  14.767  0.00  0.00    +0.145 HD
ATOM     42  H   UNL     1      -0.817  -9.364  15.870  0.00  0.00    +0.145 HD
ENDBRANCH  23  27
BRANCH  23  26
ATOM     26  C   UNL     1      -2.131 -11.090  12.188  0.00  0.00    +0.067 C 
BRANCH  26  29
ATOM     29  C   UNL     1      -2.979 -10.705  11.000  0.00  0.00    -0.045 A 
ATOM     32  C   UNL     1      -3.693 -11.683  10.307  0.00  0.00    +0.004 A 
ATOM     33  C   UNL     1      -3.048  -9.373  10.594  0.00  0.00    +0.004 A 
ATOM     35  C   UNL     1      -4.476 -11.328   9.209  0.00  0.00    +0.000 A 
ATOM     36  C   UNL     1      -3.831  -9.018   9.496  0.00  0.00    +0.000 A 
ATOM     38  C   UNL     1      -4.545  -9.996   8.803  0.00  0.00    +0.000 A 
ENDBRANCH  26  29
ENDBRANCH  23  26
ENDBRANCH  12  23
ENDBRANCH  18  21
BRANCH  16  11
ATOM     11  N   UNL     1      -8.148 -11.822  17.839  0.00  0.00    -0.185 NA
ATOM     39  H   UNL     1      -8.867 -11.312  17.310  0.00  0.00    +0.148 HD
BRANCH  11   1
ATOM      1  S   UNL     1      -8.210 -11.794  19.536  0.00  0.00    +0.077 S 
ATOM      4  O   UNL     1      -7.460 -10.654  20.028  0.00  0.00    -0.152 OA
ATOM      5  O   UNL     1      -7.925 -13.125  20.035  0.00  0.00    -0.152 OA
BRANCH   1  25
ATOM     13  N   UNL     1     -10.769 -12.458  20.313  0.00  0.00    -0.216 NA
ATOM     14  N   UNL     1     -11.884 -10.563  20.001  0.00  0.00    -0.338 N 
ATOM     25  C   UNL     1      -9.925 -11.487  19.833  0.00  0.00    +0.211 A 
ATOM     28  C   UNL     1     -10.594 -10.303  19.631  0.00  0.00    +0.135 A 
ATOM     30  C   UNL     1     -11.940 -11.867  20.402  0.00  0.00    +0.201 A 
ATOM     34  C   UNL     1     -12.984  -9.630  19.973  0.00  0.00    +0.150 C 
ENDBRANCH   1  25
ENDBRANCH  11   1
ENDBRANCH  16  11
BRANCH  22  24
ATOM     24  C   UNL     1      -4.640 -14.770  13.373  0.00  0.00    +0.256 C 
BRANCH  24   6
ATOM      6  O   UNL     1      -3.503 -14.251  12.728  0.00  0.00    -0.359 OA
BRANCH   6  31
ATOM     31  C   UNL     1      -2.742 -15.268  12.079  0.00  0.00    +0.280 C 
BRANCH  31  37
ATOM      9  O   UNL     1      -0.496 -16.146  12.386  0.00  0.00    -0.248 OA
ATOM     37  C   UNL     1      -1.372 -15.351  12.694  0.00  0.00    +0.331 C 
BRANCH  37   8
ATOM      8  O   UNL     1      -1.234 -14.406  13.657  0.00  0.00    -0.479 OA
ATOM     43  H   UNL     1      -2.100 -14.123  14.019  0.00  0.00    +0.295 HD
ENDBRANCH  37   8
ENDBRANCH  31  37
ENDBRANCH   6  31
ENDBRANCH  24   6
ENDBRANCH  22  24
TORSDOF 13
ENDMDL
