MODEL 1
REMARK VINA RESULT:      -7.6      0.000      0.000
REMARK  Name = 44716030
REMARK  6 active torsions:
REMARK  status: ('A' for Active; 'I' for Inactive)
REMARK    1  A    between atoms: O_3  and  C_22
REMARK    2  A    between atoms: O_3  and  C_25
REMARK    3  A    between atoms: N_5  and  C_17
REMARK    4  A    between atoms: C_11  and  C_17
REMARK    5  A    between atoms: C_12  and  C_18
REMARK    6  A    between atoms: C_21  and  C_22
REMARK                            x       y       z     vdW  Elec       q    Type
REMARK                         _______ _______ _______ _____ _____    ______ ____
ROOT
ATOM      4  N   UNL     1      16.543   8.827  20.608  0.00  0.00    -0.297 NA
ATOM     10  C   UNL     1      15.109   6.690  20.997  0.00  0.00    +0.005 C 
ATOM     11  C   UNL     1      17.421   7.671  20.942  0.00  0.00    +0.078 C 
ATOM     12  C   UNL     1      15.055   7.142  19.524  0.00  0.00    +0.092 C 
ATOM     13  C   UNL     1      16.587   6.432  21.342  0.00  0.00    +0.025 C 
ATOM     14  C   UNL     1      14.645   7.846  21.903  0.00  0.00    +0.020 C 
ATOM     15  C   UNL     1      15.781   8.493  19.377  0.00  0.00    +0.097 C 
ATOM     16  C   UNL     1      15.559   9.062  21.690  0.00  0.00    +0.085 C 
ENDROOT
BRANCH  12  18
ATOM      1  S   UNL     1      12.618   9.473  15.869  0.00  0.00    -0.061 S 
ATOM      2  O   UNL     1      12.745   6.592  19.570  0.00  0.00    -0.275 OA
ATOM      6  N   UNL     1      13.551   8.067  17.924  0.00  0.00    -0.264 N 
ATOM      9  N   UNL     1      11.164   7.959  17.377  0.00  0.00    -0.233 NA
ATOM     18  C   UNL     1      13.644   7.224  19.023  0.00  0.00    +0.223 C 
ATOM     20  C   UNL     1      12.390   8.389  17.181  0.00  0.00    +0.164 A 
ATOM     23  C   UNL     1      10.942   9.367  15.522  0.00  0.00    +0.068 A 
ATOM     24  C   UNL     1      10.335   8.520  16.425  0.00  0.00    +0.120 A 
ATOM     31  H   UNL     1      14.395   8.516  17.575  0.00  0.00    +0.157 HD
ENDBRANCH  12  18
BRANCH  11  17
ATOM     17  C   UNL     1      18.458   8.025  22.010  0.00  0.00    +0.164 C 
BRANCH  17   5
ATOM      5  N   UNL     1      19.669   7.139  21.917  0.00  0.00    -0.250 N 
ATOM      7  N   UNL     1      20.155   6.764  20.722  0.00  0.00    -0.065 NA
ATOM      8  N   UNL     1      21.210   5.991  20.951  0.00  0.00    -0.131 NA
ATOM     19  C   UNL     1      20.397   6.618  22.941  0.00  0.00    +0.137 A 
ATOM     21  C   UNL     1      21.373   5.891  22.305  0.00  0.00    +0.120 A 
BRANCH  21  22
ATOM     22  C   UNL     1      22.463   5.096  22.886  0.00  0.00    +0.287 C 
BRANCH  22   3
ATOM      3  O   UNL     1      22.047   3.739  23.059  0.00  0.00    -0.486 OA
BRANCH   3  25
ATOM     25  C   UNL     1      22.918   2.776  22.629  0.00  0.00    +0.121 A 
ATOM     26  C   UNL     1      23.272   2.708  21.282  0.00  0.00    +0.045 A 
ATOM     27  C   UNL     1      23.450   1.862  23.538  0.00  0.00    +0.045 A 
ATOM     28  C   UNL     1      24.159   1.724  20.843  0.00  0.00    +0.004 A 
ATOM     29  C   UNL     1      24.337   0.879  23.100  0.00  0.00    +0.004 A 
ATOM     30  C   UNL     1      24.692   0.810  21.751  0.00  0.00    +0.000 A 
ENDBRANCH   3  25
ENDBRANCH  22   3
ENDBRANCH  21  22
ENDBRANCH  17   5
ENDBRANCH  11  17
TORSDOF 6
ENDMDL
MODEL 2
REMARK VINA RESULT:      -7.4      4.257      5.452
REMARK  Name = 44716030
REMARK  6 active torsions:
REMARK  status: ('A' for Active; 'I' for Inactive)
REMARK    1  A    between atoms: O_3  and  C_22
REMARK    2  A    between atoms: O_3  and  C_25
REMARK    3  A    between atoms: N_5  and  C_17
REMARK    4  A    between atoms: C_11  and  C_17
REMARK    5  A    between atoms: C_12  and  C_18
REMARK    6  A    between atoms: C_21  and  C_22
REMARK                            x       y       z     vdW  Elec       q    Type
REMARK                         _______ _______ _______ _____ _____    ______ ____
ROOT
ATOM      4  N   UNL     1      13.646   8.519  21.656  0.00  0.00    -0.297 NA
ATOM     10  C   UNL     1      12.430   9.949  19.854  0.00  0.00    +0.005 C 
ATOM     11  C   UNL     1      14.255   8.286  20.318  0.00  0.00    +0.078 C 
ATOM     12  C   UNL     1      13.207  10.838  20.845  0.00  0.00    +0.092 C 
ATOM     13  C   UNL     1      13.447   8.992  19.204  0.00  0.00    +0.025 C 
ATOM     14  C   UNL     1      11.436   9.067  20.630  0.00  0.00    +0.020 C 
ATOM     15  C   UNL     1      13.772   9.964  21.981  0.00  0.00    +0.097 C 
ATOM     16  C   UNL     1      12.202   8.193  21.635  0.00  0.00    +0.085 C 
ENDROOT
BRANCH  12  18
ATOM      1  S   UNL     1      11.468  12.269  25.278  0.00  0.00    -0.061 S 
ATOM      2  O   UNL     1      11.886  12.801  20.635  0.00  0.00    -0.275 OA
ATOM      6  N   UNL     1      12.194  11.833  22.758  0.00  0.00    -0.264 N 
ATOM      9  N   UNL     1      10.778  13.763  23.285  0.00  0.00    -0.233 NA
ATOM     18  C   UNL     1      12.350  11.945  21.383  0.00  0.00    +0.223 C 
ATOM     20  C   UNL     1      11.461  12.690  23.614  0.00  0.00    +0.164 A 
ATOM     23  C   UNL     1      10.477  13.632  25.601  0.00  0.00    +0.068 A 
ATOM     24  C   UNL     1      10.215  14.302  24.425  0.00  0.00    +0.120 A 
ATOM     31  H   UNL     1      12.653  11.067  23.245  0.00  0.00    +0.157 HD
ENDBRANCH  12  18
BRANCH  11  17
ATOM     17  C   UNL     1      14.446   6.797  20.023  0.00  0.00    +0.164 C 
BRANCH  17   5
ATOM      5  N   UNL     1      15.899   6.448  19.860  0.00  0.00    -0.250 N 
ATOM      7  N   UNL     1      16.341   5.858  18.738  0.00  0.00    -0.065 NA
ATOM      8  N   UNL     1      17.648   5.669  18.880  0.00  0.00    -0.131 NA
ATOM     19  C   UNL     1      16.907   6.655  20.750  0.00  0.00    +0.137 A 
ATOM     21  C   UNL     1      18.011   6.152  20.107  0.00  0.00    +0.120 A 
BRANCH  21  22
ATOM     22  C   UNL     1      19.404   6.089  20.570  0.00  0.00    +0.287 C 
BRANCH  22   3
ATOM      3  O   UNL     1      19.976   4.820  20.247  0.00  0.00    -0.486 OA
BRANCH   3  25
ATOM     25  C   UNL     1      21.269   4.616  20.645  0.00  0.00    +0.121 A 
ATOM     26  C   UNL     1      21.628   3.414  21.255  0.00  0.00    +0.045 A 
ATOM     27  C   UNL     1      22.225   5.610  20.442  0.00  0.00    +0.045 A 
ATOM     28  C   UNL     1      22.946   3.207  21.663  0.00  0.00    +0.004 A 
ATOM     29  C   UNL     1      23.543   5.403  20.849  0.00  0.00    +0.004 A 
ATOM     30  C   UNL     1      23.904   4.200  21.459  0.00  0.00    +0.000 A 
ENDBRANCH   3  25
ENDBRANCH  22   3
ENDBRANCH  21  22
ENDBRANCH  17   5
ENDBRANCH  11  17
TORSDOF 6
ENDMDL
MODEL 3
REMARK VINA RESULT:      -7.2     27.690     31.810
REMARK  Name = 44716030
REMARK  6 active torsions:
REMARK  status: ('A' for Active; 'I' for Inactive)
REMARK    1  A    between atoms: O_3  and  C_22
REMARK    2  A    between atoms: O_3  and  C_25
REMARK    3  A    between atoms: N_5  and  C_17
REMARK    4  A    between atoms: C_11  and  C_17
REMARK    5  A    between atoms: C_12  and  C_18
REMARK    6  A    between atoms: C_21  and  C_22
REMARK                            x       y       z     vdW  Elec       q    Type
REMARK                         _______ _______ _______ _____ _____    ______ ____
ROOT
ATOM      4  N   UNL     1      -6.809 -11.948  17.500  0.00  0.00    -0.297 NA
ATOM     10  C   UNL     1      -4.374 -11.745  18.395  0.00  0.00    +0.005 C 
ATOM     11  C   UNL     1      -6.819 -11.506  18.922  0.00  0.00    +0.078 C 
ATOM     12  C   UNL     1      -4.666 -10.682  17.316  0.00  0.00    +0.092 C 
ATOM     13  C   UNL     1      -5.396 -11.539  19.528  0.00  0.00    +0.025 C 
ATOM     14  C   UNL     1      -4.641 -13.146  17.817  0.00  0.00    +0.020 C 
ATOM     15  C   UNL     1      -6.056 -10.945  16.705  0.00  0.00    +0.097 C 
ATOM     16  C   UNL     1      -6.105 -13.244  17.363  0.00  0.00    +0.085 C 
ENDROOT
BRANCH  12  18
ATOM      1  S   UNL     1      -4.460 -10.379  12.357  0.00  0.00    -0.061 S 
ATOM      2  O   UNL     1      -2.414 -10.725  16.565  0.00  0.00    -0.275 OA
ATOM      6  N   UNL     1      -4.156 -10.558  14.992  0.00  0.00    -0.264 N 
ATOM      9  N   UNL     1      -2.173 -10.541  13.551  0.00  0.00    -0.233 NA
ATOM     18  C   UNL     1      -3.601 -10.660  16.261  0.00  0.00    +0.223 C 
ATOM     20  C   UNL     1      -3.471 -10.505  13.755  0.00  0.00    +0.164 A 
ATOM     23  C   UNL     1      -3.045 -10.370  11.387  0.00  0.00    +0.068 A 
ATOM     24  C   UNL     1      -1.931 -10.463  12.194  0.00  0.00    +0.120 A 
ATOM     31  H   UNL     1      -5.167 -10.502  14.901  0.00  0.00    +0.157 HD
ENDBRANCH  12  18
BRANCH  11  17
ATOM     17  C   UNL     1      -7.813 -12.304  19.767  0.00  0.00    +0.164 C 
BRANCH  17   5
ATOM      5  N   UNL     1      -9.193 -11.711  19.702  0.00  0.00    -0.250 N 
ATOM      7  N   UNL     1     -10.219 -12.288  20.349  0.00  0.00    -0.065 NA
ATOM      8  N   UNL     1     -11.300 -11.555  20.108  0.00  0.00    -0.131 NA
ATOM     19  C   UNL     1      -9.586 -10.595  19.031  0.00  0.00    +0.137 A 
ATOM     21  C   UNL     1     -10.930 -10.513  19.303  0.00  0.00    +0.120 A 
BRANCH  21  22
ATOM     22  C   UNL     1     -11.907  -9.513  18.851  0.00  0.00    +0.287 C 
BRANCH  22   3
ATOM      3  O   UNL     1     -12.042  -9.561  17.429  0.00  0.00    -0.486 OA
BRANCH   3  25
ATOM     25  C   UNL     1     -11.997  -8.362  16.772  0.00  0.00    +0.121 A 
ATOM     26  C   UNL     1     -10.802  -7.646  16.710  0.00  0.00    +0.045 A 
ATOM     27  C   UNL     1     -13.147  -7.855  16.168  0.00  0.00    +0.045 A 
ATOM     28  C   UNL     1     -10.757  -6.422  16.043  0.00  0.00    +0.004 A 
ATOM     29  C   UNL     1     -13.102  -6.631  15.500  0.00  0.00    +0.004 A 
ATOM     30  C   UNL     1     -11.906  -5.914  15.437  0.00  0.00    +0.000 A 
ENDBRANCH   3  25
ENDBRANCH  22   3
ENDBRANCH  21  22
ENDBRANCH  17   5
ENDBRANCH  11  17
TORSDOF 6
ENDMDL
MODEL 4
REMARK VINA RESULT:      -7.2     28.020     29.899
REMARK  Name = 44716030
REMARK  6 active torsions:
REMARK  status: ('A' for Active; 'I' for Inactive)
REMARK    1  A    between atoms: O_3  and  C_22
REMARK    2  A    between atoms: O_3  and  C_25
REMARK    3  A    between atoms: N_5  and  C_17
REMARK    4  A    between atoms: C_11  and  C_17
REMARK    5  A    between atoms: C_12  and  C_18
REMARK    6  A    between atoms: C_21  and  C_22
REMARK                            x       y       z     vdW  Elec       q    Type
REMARK                         _______ _______ _______ _____ _____    ______ ____
ROOT
ATOM      4  N   UNL     1      -6.019 -11.291  18.167  0.00  0.00    -0.297 NA
ATOM     10  C   UNL     1      -6.821 -10.001  16.054  0.00  0.00    +0.005 C 
ATOM     11  C   UNL     1      -4.888 -10.530  17.570  0.00  0.00    +0.078 C 
ATOM     12  C   UNL     1      -7.464  -9.433  17.335  0.00  0.00    +0.092 C 
ATOM     13  C   UNL     1      -5.294  -9.891  16.221  0.00  0.00    +0.025 C 
ATOM     14  C   UNL     1      -7.140 -11.504  15.945  0.00  0.00    +0.020 C 
ATOM     15  C   UNL     1      -7.089 -10.327  18.534  0.00  0.00    +0.097 C 
ATOM     16  C   UNL     1      -6.591 -12.235  17.180  0.00  0.00    +0.085 C 
ENDROOT
BRANCH  12  18
ATOM      1  S   UNL     1     -10.671  -6.123  15.469  0.00  0.00    -0.061 S 
ATOM      2  O   UNL     1      -9.700 -10.183  17.610  0.00  0.00    -0.275 OA
ATOM      6  N   UNL     1      -9.293  -8.114  16.566  0.00  0.00    -0.264 N 
ATOM      9  N   UNL     1     -11.740  -8.238  16.501  0.00  0.00    -0.233 NA
ATOM     18  C   UNL     1      -8.951  -9.304  17.196  0.00  0.00    +0.223 C 
ATOM     20  C   UNL     1     -10.592  -7.646  16.257  0.00  0.00    +0.164 A 
ATOM     23  C   UNL     1     -12.381  -6.251  15.445  0.00  0.00    +0.068 A 
ATOM     24  C   UNL     1     -12.764  -7.437  16.035  0.00  0.00    +0.120 A 
ATOM     31  H   UNL     1      -8.552  -7.485  16.268  0.00  0.00    +0.157 HD
ENDBRANCH  12  18
BRANCH  11  17
ATOM     17  C   UNL     1      -3.626 -11.383  17.435  0.00  0.00    +0.164 C 
BRANCH  17   5
ATOM      5  N   UNL     1      -2.990 -11.218  16.083  0.00  0.00    -0.250 N 
ATOM      7  N   UNL     1      -2.085 -10.251  15.863  0.00  0.00    -0.065 NA
ATOM      8  N   UNL     1      -1.707 -10.345  14.593  0.00  0.00    -0.131 NA
ATOM     19  C   UNL     1      -3.217 -11.958  14.963  0.00  0.00    +0.137 A 
ATOM     21  C   UNL     1      -2.391 -11.385  14.027  0.00  0.00    +0.120 A 
BRANCH  21  22
ATOM     22  C   UNL     1      -2.196 -11.750  12.618  0.00  0.00    +0.287 C 
BRANCH  22   3
ATOM      3  O   UNL     1      -3.457 -11.846  11.953  0.00  0.00    -0.486 OA
BRANCH   3  25
ATOM     25  C   UNL     1      -3.973 -10.682  11.454  0.00  0.00    +0.121 A 
ATOM     26  C   UNL     1      -5.115 -10.124  12.028  0.00  0.00    +0.045 A 
ATOM     27  C   UNL     1      -3.359 -10.056  10.370  0.00  0.00    +0.045 A 
ATOM     28  C   UNL     1      -5.642  -8.937  11.517  0.00  0.00    +0.004 A 
ATOM     29  C   UNL     1      -3.886  -8.869   9.859  0.00  0.00    +0.004 A 
ATOM     30  C   UNL     1      -5.028  -8.309  10.434  0.00  0.00    +0.000 A 
ENDBRANCH   3  25
ENDBRANCH  22   3
ENDBRANCH  21  22
ENDBRANCH  17   5
ENDBRANCH  11  17
TORSDOF 6
ENDMDL
MODEL 5
REMARK VINA RESULT:      -7.1     27.648     30.241
REMARK  Name = 44716030
REMARK  6 active torsions:
REMARK  status: ('A' for Active; 'I' for Inactive)
REMARK    1  A    between atoms: O_3  and  C_22
REMARK    2  A    between atoms: O_3  and  C_25
REMARK    3  A    between atoms: N_5  and  C_17
REMARK    4  A    between atoms: C_11  and  C_17
REMARK    5  A    between atoms: C_12  and  C_18
REMARK    6  A    between atoms: C_21  and  C_22
REMARK                            x       y       z     vdW  Elec       q    Type
REMARK                         _______ _______ _______ _____ _____    ______ ____
ROOT
ATOM      4  N   UNL     1      -5.991 -11.307  17.950  0.00  0.00    -0.297 NA
ATOM     10  C   UNL     1      -6.959  -9.917  15.975  0.00  0.00    +0.005 C 
ATOM     11  C   UNL     1      -4.893 -10.610  17.225  0.00  0.00    +0.078 C 
ATOM     12  C   UNL     1      -7.395  -9.337  17.335  0.00  0.00    +0.092 C 
ATOM     13  C   UNL     1      -5.419  -9.914  15.948  0.00  0.00    +0.025 C 
ATOM     14  C   UNL     1      -7.393 -11.392  15.885  0.00  0.00    +0.020 C 
ATOM     15  C   UNL     1      -6.936 -10.281  18.463  0.00  0.00    +0.097 C 
ATOM     16  C   UNL     1      -6.746 -12.186  17.030  0.00  0.00    +0.085 C 
ENDROOT
BRANCH  12  18
ATOM      1  S   UNL     1     -11.239 -10.935  20.054  0.00  0.00    -0.061 S 
ATOM      2  O   UNL     1      -9.417  -8.330  16.603  0.00  0.00    -0.275 OA
ATOM      6  N   UNL     1      -9.465  -9.854  18.395  0.00  0.00    -0.264 N 
ATOM      9  N   UNL     1     -11.828  -9.233  18.199  0.00  0.00    -0.233 NA
ATOM     18  C   UNL     1      -8.875  -9.104  17.387  0.00  0.00    +0.223 C 
ATOM     20  C   UNL     1     -10.834  -9.895  18.750  0.00  0.00    +0.164 A 
ATOM     23  C   UNL     1     -12.882 -10.471  19.881  0.00  0.00    +0.068 A 
ATOM     24  C   UNL     1     -13.000  -9.565  18.850  0.00  0.00    +0.120 A 
ATOM     31  H   UNL     1      -8.876 -10.448  18.975  0.00  0.00    +0.157 HD
ENDBRANCH  12  18
BRANCH  11  17
ATOM     17  C   UNL     1      -3.721 -11.544  16.919  0.00  0.00    +0.164 C 
BRANCH  17   5
ATOM      5  N   UNL     1      -2.927 -11.063  15.737  0.00  0.00    -0.250 N 
ATOM      7  N   UNL     1      -1.900 -10.213  15.900  0.00  0.00    -0.065 NA
ATOM      8  N   UNL     1      -1.398  -9.965  14.695  0.00  0.00    -0.131 NA
ATOM     19  C   UNL     1      -3.112 -11.382  14.427  0.00  0.00    +0.137 A 
ATOM     21  C   UNL     1      -2.129 -10.674  13.782  0.00  0.00    +0.120 A 
BRANCH  21  22
ATOM     22  C   UNL     1      -1.823 -10.611  12.346  0.00  0.00    +0.287 C 
BRANCH  22   3
ATOM      3  O   UNL     1      -2.721 -11.448  11.613  0.00  0.00    -0.486 OA
BRANCH   3  25
ATOM     25  C   UNL     1      -3.377 -10.864  10.564  0.00  0.00    +0.121 A 
ATOM     26  C   UNL     1      -3.367  -9.477  10.421  0.00  0.00    +0.045 A 
ATOM     27  C   UNL     1      -4.057 -11.657   9.640  0.00  0.00    +0.045 A 
ATOM     28  C   UNL     1      -4.038  -8.882   9.352  0.00  0.00    +0.004 A 
ATOM     29  C   UNL     1      -4.728 -11.062   8.571  0.00  0.00    +0.004 A 
ATOM     30  C   UNL     1      -4.718  -9.674   8.427  0.00  0.00    +0.000 A 
ENDBRANCH   3  25
ENDBRANCH  22   3
ENDBRANCH  21  22
ENDBRANCH  17   5
ENDBRANCH  11  17
TORSDOF 6
ENDMDL
MODEL 6
REMARK VINA RESULT:      -7.0     29.530     32.983
REMARK  Name = 44716030
REMARK  6 active torsions:
REMARK  status: ('A' for Active; 'I' for Inactive)
REMARK    1  A    between atoms: O_3  and  C_22
REMARK    2  A    between atoms: O_3  and  C_25
REMARK    3  A    between atoms: N_5  and  C_17
REMARK    4  A    between atoms: C_11  and  C_17
REMARK    5  A    between atoms: C_12  and  C_18
REMARK    6  A    between atoms: C_21  and  C_22
REMARK                            x       y       z     vdW  Elec       q    Type
REMARK                         _______ _______ _______ _____ _____    ______ ____
ROOT
ATOM      4  N   UNL     1     -11.507  -7.972  14.612  0.00  0.00    -0.297 NA
ATOM     10  C   UNL     1     -10.870  -7.289  17.041  0.00  0.00    +0.005 C 
ATOM     11  C   UNL     1     -11.616  -6.496  14.777  0.00  0.00    +0.078 C 
ATOM     12  C   UNL     1      -9.649  -7.832  16.273  0.00  0.00    +0.092 C 
ATOM     13  C   UNL     1     -11.407  -6.081  16.252  0.00  0.00    +0.025 C 
ATOM     14  C   UNL     1     -11.989  -8.346  17.034  0.00  0.00    +0.020 C 
ATOM     15  C   UNL     1     -10.106  -8.371  14.904  0.00  0.00    +0.097 C 
ATOM     16  C   UNL     1     -12.379  -8.670  15.584  0.00  0.00    +0.085 C 
ENDROOT
BRANCH  12  18
ATOM      1  S   UNL     1      -5.178 -10.006  16.188  0.00  0.00    -0.061 S 
ATOM      2  O   UNL     1      -9.463  -9.438  18.012  0.00  0.00    -0.275 OA
ATOM      6  N   UNL     1      -7.646  -9.090  16.558  0.00  0.00    -0.264 N 
ATOM      9  N   UNL     1      -6.770 -10.823  18.054  0.00  0.00    -0.233 NA
ATOM     18  C   UNL     1      -8.924  -8.883  17.059  0.00  0.00    +0.223 C 
ATOM     20  C   UNL     1      -6.669  -9.994  17.038  0.00  0.00    +0.164 A 
ATOM     23  C   UNL     1      -4.606 -11.219  17.258  0.00  0.00    +0.068 A 
ATOM     24  C   UNL     1      -5.586 -11.524  18.178  0.00  0.00    +0.120 A 
ATOM     31  H   UNL     1      -7.334  -8.539  15.762  0.00  0.00    +0.157 HD
ENDBRANCH  12  18
BRANCH  11  17
ATOM     17  C   UNL     1     -12.929  -5.949  14.215  0.00  0.00    +0.164 C 
BRANCH  17   5
ATOM      5  N   UNL     1     -12.690  -5.025  13.054  0.00  0.00    -0.250 N 
ATOM      7  N   UNL     1     -12.775  -3.693  13.208  0.00  0.00    -0.065 NA
ATOM      8  N   UNL     1     -12.522  -3.142  12.026  0.00  0.00    -0.131 NA
ATOM     19  C   UNL     1     -12.380  -5.363  11.773  0.00  0.00    +0.137 A 
ATOM     21  C   UNL     1     -12.277  -4.151  11.136  0.00  0.00    +0.120 A 
BRANCH  21  22
ATOM     22  C   UNL     1     -11.964  -3.869   9.729  0.00  0.00    +0.287 C 
BRANCH  22   3
ATOM      3  O   UNL     1     -10.571  -4.077   9.481  0.00  0.00    -0.486 OA
BRANCH   3  25
ATOM     25  C   UNL     1     -10.251  -5.102   8.634  0.00  0.00    +0.121 A 
ATOM     26  C   UNL     1      -8.913  -5.431   8.413  0.00  0.00    +0.045 A 
ATOM     27  C   UNL     1     -11.261  -5.816   7.990  0.00  0.00    +0.045 A 
ATOM     28  C   UNL     1      -8.586  -6.475   7.548  0.00  0.00    +0.004 A 
ATOM     29  C   UNL     1     -10.934  -6.860   7.125  0.00  0.00    +0.004 A 
ATOM     30  C   UNL     1      -9.596  -7.190   6.904  0.00  0.00    +0.000 A 
ENDBRANCH   3  25
ENDBRANCH  22   3
ENDBRANCH  21  22
ENDBRANCH  17   5
ENDBRANCH  11  17
TORSDOF 6
ENDMDL
MODEL 7
REMARK VINA RESULT:      -7.0     27.755     32.847
REMARK  Name = 44716030
REMARK  6 active torsions:
REMARK  status: ('A' for Active; 'I' for Inactive)
REMARK    1  A    between atoms: O_3  and  C_22
REMARK    2  A    between atoms: O_3  and  C_25
REMARK    3  A    between atoms: N_5  and  C_17
REMARK    4  A    between atoms: C_11  and  C_17
REMARK    5  A    between atoms: C_12  and  C_18
REMARK    6  A    between atoms: C_21  and  C_22
REMARK                            x       y       z     vdW  Elec       q    Type
REMARK                         _______ _______ _______ _____ _____    ______ ____
ROOT
ATOM      4  N   UNL     1      -6.838 -12.118  17.502  0.00  0.00    -0.297 NA
ATOM     10  C   UNL     1      -4.442 -11.717  18.435  0.00  0.00    +0.005 C 
ATOM     11  C   UNL     1      -6.909 -11.616  18.901  0.00  0.00    +0.078 C 
ATOM     12  C   UNL     1      -4.777 -10.724  17.304  0.00  0.00    +0.092 C 
ATOM     13  C   UNL     1      -5.501 -11.530  19.537  0.00  0.00    +0.025 C 
ATOM     14  C   UNL     1      -4.605 -13.157  17.914  0.00  0.00    +0.020 C 
ATOM     15  C   UNL     1      -6.133 -11.103  16.677  0.00  0.00    +0.097 C 
ATOM     16  C   UNL     1      -6.050 -13.369  17.437  0.00  0.00    +0.085 C 
ENDROOT
BRANCH  12  18
ATOM      1  S   UNL     1      -4.477 -10.386  12.352  0.00  0.00    -0.061 S 
ATOM      2  O   UNL     1      -2.510 -10.726  16.598  0.00  0.00    -0.275 OA
ATOM      6  N   UNL     1      -4.223 -10.577  14.991  0.00  0.00    -0.264 N 
ATOM      9  N   UNL     1      -2.212 -10.519  13.590  0.00  0.00    -0.233 NA
ATOM     18  C   UNL     1      -3.692 -10.678  16.270  0.00  0.00    +0.223 C 
ATOM     20  C   UNL     1      -3.515 -10.505  13.768  0.00  0.00    +0.164 A 
ATOM     23  C   UNL     1      -3.044 -10.348  11.411  0.00  0.00    +0.068 A 
ATOM     24  C   UNL     1      -1.945 -10.429  12.238  0.00  0.00    +0.120 A 
ATOM     31  H   UNL     1      -5.233 -10.537  14.880  0.00  0.00    +0.157 HD
ENDBRANCH  12  18
BRANCH  11  17
ATOM     17  C   UNL     1      -7.869 -12.439  19.762  0.00  0.00    +0.164 C 
BRANCH  17   5
ATOM      5  N   UNL     1      -9.240 -11.825  19.801  0.00  0.00    -0.250 N 
ATOM      7  N   UNL     1      -9.415 -10.564  20.228  0.00  0.00    -0.065 NA
ATOM      8  N   UNL     1     -10.715 -10.299  20.157  0.00  0.00    -0.131 NA
ATOM     19  C   UNL     1     -10.419 -12.402  19.444  0.00  0.00    +0.137 A 
ATOM     21  C   UNL     1     -11.344 -11.415  19.678  0.00  0.00    +0.120 A 
BRANCH  21  22
ATOM     22  C   UNL     1     -12.800 -11.445  19.484  0.00  0.00    +0.287 C 
BRANCH  22   3
ATOM      3  O   UNL     1     -13.461 -11.685  20.729  0.00  0.00    -0.486 OA
BRANCH   3  25
ATOM     25  C   UNL     1     -14.453 -10.808  21.070  0.00  0.00    +0.121 A 
ATOM     26  C   UNL     1     -15.480 -11.216  21.921  0.00  0.00    +0.045 A 
ATOM     27  C   UNL     1     -14.439  -9.508  20.565  0.00  0.00    +0.045 A 
ATOM     28  C   UNL     1     -16.494 -10.322  22.268  0.00  0.00    +0.004 A 
ATOM     29  C   UNL     1     -15.452  -8.615  20.912  0.00  0.00    +0.004 A 
ATOM     30  C   UNL     1     -16.480  -9.022  21.764  0.00  0.00    +0.000 A 
ENDBRANCH   3  25
ENDBRANCH  22   3
ENDBRANCH  21  22
ENDBRANCH  17   5
ENDBRANCH  11  17
TORSDOF 6
ENDMDL
MODEL 8
REMARK VINA RESULT:      -6.9      4.099     11.425
REMARK  Name = 44716030
REMARK  6 active torsions:
REMARK  status: ('A' for Active; 'I' for Inactive)
REMARK    1  A    between atoms: O_3  and  C_22
REMARK    2  A    between atoms: O_3  and  C_25
REMARK    3  A    between atoms: N_5  and  C_17
REMARK    4  A    between atoms: C_11  and  C_17
REMARK    5  A    between atoms: C_12  and  C_18
REMARK    6  A    between atoms: C_21  and  C_22
REMARK                            x       y       z     vdW  Elec       q    Type
REMARK                         _______ _______ _______ _____ _____    ______ ____
ROOT
ATOM      4  N   UNL     1      21.417   4.566  22.457  0.00  0.00    -0.297 NA
ATOM     10  C   UNL     1      23.405   4.836  20.799  0.00  0.00    +0.005 C 
ATOM     11  C   UNL     1      20.959   5.237  21.209  0.00  0.00    +0.078 C 
ATOM     12  C   UNL     1      23.030   3.352  20.989  0.00  0.00    +0.092 C 
ATOM     13  C   UNL     1      22.151   5.561  20.278  0.00  0.00    +0.025 C 
ATOM     14  C   UNL     1      23.732   5.459  22.168  0.00  0.00    +0.020 C 
ATOM     15  C   UNL     1      21.965   3.233  22.095  0.00  0.00    +0.097 C 
ATOM     16  C   UNL     1      22.510   5.338  23.091  0.00  0.00    +0.085 C 
ENDROOT
BRANCH  12  18
ATOM      1  S   UNL     1      24.504   0.301  24.628  0.00  0.00    -0.061 S 
ATOM      2  O   UNL     1      25.189   2.476  20.528  0.00  0.00    -0.275 OA
ATOM      6  N   UNL     1      24.082   1.846  22.506  0.00  0.00    -0.264 N 
ATOM      9  N   UNL     1      26.184   0.597  22.685  0.00  0.00    -0.233 NA
ATOM     18  C   UNL     1      24.234   2.514  21.298  0.00  0.00    +0.223 C 
ATOM     20  C   UNL     1      25.001   0.964  23.124  0.00  0.00    +0.164 A 
ATOM     23  C   UNL     1      25.988  -0.556  24.711  0.00  0.00    +0.068 A 
ATOM     24  C   UNL     1      26.748  -0.275  23.596  0.00  0.00    +0.120 A 
ATOM     31  H   UNL     1      23.221   1.971  23.032  0.00  0.00    +0.157 HD
ENDBRANCH  12  18
BRANCH  11  17
ATOM     17  C   UNL     1      20.113   6.479  21.499  0.00  0.00    +0.164 C 
BRANCH  17   5
ATOM      5  N   UNL     1      18.833   6.469  20.713  0.00  0.00    -0.250 N 
ATOM      7  N   UNL     1      18.605   5.527  19.783  0.00  0.00    -0.065 NA
ATOM      8  N   UNL     1      17.411   5.773  19.256  0.00  0.00    -0.131 NA
ATOM     19  C   UNL     1      17.794   7.343  20.807  0.00  0.00    +0.137 A 
ATOM     21  C   UNL     1      16.900   6.882  19.872  0.00  0.00    +0.120 A 
BRANCH  21  22
ATOM     22  C   UNL     1      15.581   7.418  19.509  0.00  0.00    +0.287 C 
BRANCH  22   3
ATOM      3  O   UNL     1      14.546   6.582  20.032  0.00  0.00    -0.486 OA
BRANCH   3  25
ATOM     25  C   UNL     1      13.313   7.155  20.171  0.00  0.00    +0.121 A 
ATOM     26  C   UNL     1      12.919   8.179  19.309  0.00  0.00    +0.045 A 
ATOM     27  C   UNL     1      12.450   6.719  21.176  0.00  0.00    +0.045 A 
ATOM     28  C   UNL     1      11.661   8.765  19.451  0.00  0.00    +0.004 A 
ATOM     29  C   UNL     1      11.192   7.305  21.319  0.00  0.00    +0.004 A 
ATOM     30  C   UNL     1      10.798   8.328  20.455  0.00  0.00    +0.000 A 
ENDBRANCH   3  25
ENDBRANCH  22   3
ENDBRANCH  21  22
ENDBRANCH  17   5
ENDBRANCH  11  17
TORSDOF 6
ENDMDL
MODEL 9
REMARK VINA RESULT:      -6.7     27.873     30.165
REMARK  Name = 44716030
REMARK  6 active torsions:
REMARK  status: ('A' for Active; 'I' for Inactive)
REMARK    1  A    between atoms: O_3  and  C_22
REMARK    2  A    between atoms: O_3  and  C_25
REMARK    3  A    between atoms: N_5  and  C_17
REMARK    4  A    between atoms: C_11  and  C_17
REMARK    5  A    between atoms: C_12  and  C_18
REMARK    6  A    between atoms: C_21  and  C_22
REMARK                            x       y       z     vdW  Elec       q    Type
REMARK                         _______ _______ _______ _____ _____    ______ ____
ROOT
ATOM      4  N   UNL     1      -5.508 -10.405  10.951  0.00  0.00    -0.297 NA
ATOM     10  C   UNL     1      -5.060  -9.131   8.727  0.00  0.00    +0.005 C 
ATOM     11  C   UNL     1      -4.137  -9.827  10.957  0.00  0.00    +0.078 C 
ATOM     12  C   UNL     1      -6.136  -8.421   9.573  0.00  0.00    +0.092 C 
ATOM     13  C   UNL     1      -3.783  -9.210   9.584  0.00  0.00    +0.025 C 
ATOM     14  C   UNL     1      -5.496 -10.583   8.460  0.00  0.00    +0.020 C 
ATOM     15  C   UNL     1      -6.482  -9.294  10.795  0.00  0.00    +0.097 C 
ATOM     16  C   UNL     1      -5.684 -11.316   9.797  0.00  0.00    +0.085 C 
ENDROOT
BRANCH  12  18
ATOM      1  S   UNL     1      -7.364  -8.246   4.758  0.00  0.00    -0.061 S 
ATOM      2  O   UNL     1      -8.412  -7.797   9.309  0.00  0.00    -0.275 OA
ATOM      6  N   UNL     1      -7.100  -8.226   7.403  0.00  0.00    -0.264 N 
ATOM      9  N   UNL     1      -9.268  -7.663   6.407  0.00  0.00    -0.233 NA
ATOM     18  C   UNL     1      -7.358  -8.108   8.763  0.00  0.00    +0.223 C 
ATOM     20  C   UNL     1      -8.003  -8.015   6.334  0.00  0.00    +0.164 A 
ATOM     23  C   UNL     1      -8.898  -7.846   4.104  0.00  0.00    +0.068 A 
ATOM     24  C   UNL     1      -9.779  -7.568   5.127  0.00  0.00    +0.120 A 
ATOM     31  H   UNL     1      -6.170  -8.505   7.102  0.00  0.00    +0.157 HD
ENDBRANCH  12  18
BRANCH  11  17
ATOM     17  C   UNL     1      -3.085 -10.842  11.410  0.00  0.00    +0.164 C 
BRANCH  17   5
ATOM      5  N   UNL     1      -2.806 -10.729  12.882  0.00  0.00    -0.250 N 
ATOM      7  N   UNL     1      -1.661 -10.183  13.323  0.00  0.00    -0.065 NA
ATOM      8  N   UNL     1      -1.691 -10.222  14.651  0.00  0.00    -0.131 NA
ATOM     19  C   UNL     1      -3.600 -11.131  13.912  0.00  0.00    +0.137 A 
ATOM     21  C   UNL     1      -2.872 -10.799  15.027  0.00  0.00    +0.120 A 
BRANCH  21  22
ATOM     22  C   UNL     1      -3.210 -10.990  16.444  0.00  0.00    +0.287 C 
BRANCH  22   3
ATOM      3  O   UNL     1      -4.169 -12.041  16.586  0.00  0.00    -0.486 OA
BRANCH   3  25
ATOM     25  C   UNL     1      -5.134 -11.860  17.539  0.00  0.00    +0.121 A 
ATOM     26  C   UNL     1      -5.131 -10.706  18.322  0.00  0.00    +0.045 A 
ATOM     27  C   UNL     1      -6.117 -12.831  17.729  0.00  0.00    +0.045 A 
ATOM     28  C   UNL     1      -6.114 -10.522  19.295  0.00  0.00    +0.004 A 
ATOM     29  C   UNL     1      -7.099 -12.647  18.702  0.00  0.00    +0.004 A 
ATOM     30  C   UNL     1      -7.098 -11.492  19.485  0.00  0.00    +0.000 A 
ENDBRANCH   3  25
ENDBRANCH  22   3
ENDBRANCH  21  22
ENDBRANCH  17   5
ENDBRANCH  11  17
TORSDOF 6
ENDMDL
MODEL 10
REMARK VINA RESULT:      -6.5     28.421     32.262
REMARK  Name = 44716030
REMARK  6 active torsions:
REMARK  status: ('A' for Active; 'I' for Inactive)
REMARK    1  A    between atoms: O_3  and  C_22
REMARK    2  A    between atoms: O_3  and  C_25
REMARK    3  A    between atoms: N_5  and  C_17
REMARK    4  A    between atoms: C_11  and  C_17
REMARK    5  A    between atoms: C_12  and  C_18
REMARK    6  A    between atoms: C_21  and  C_22
REMARK                            x       y       z     vdW  Elec       q    Type
REMARK                         _______ _______ _______ _____ _____    ______ ____
ROOT
ATOM      4  N   UNL     1      -7.545 -10.519  16.383  0.00  0.00    -0.297 NA
ATOM     10  C   UNL     1      -5.594 -10.835  18.076  0.00  0.00    +0.005 C 
ATOM     11  C   UNL     1      -7.759  -9.661  17.580  0.00  0.00    +0.078 C 
ATOM     12  C   UNL     1      -5.109 -10.148  16.784  0.00  0.00    +0.092 C 
ATOM     13  C   UNL     1      -6.705  -9.953  18.674  0.00  0.00    +0.025 C 
ATOM     14  C   UNL     1      -6.250 -12.183  17.723  0.00  0.00    +0.020 C 
ATOM     15  C   UNL     1      -6.256 -10.131  15.754  0.00  0.00    +0.097 C 
ATOM     16  C   UNL     1      -7.436 -11.943  16.777  0.00  0.00    +0.085 C 
ENDROOT
BRANCH  12  18
ATOM      1  S   UNL     1      -4.010 -13.125  12.955  0.00  0.00    -0.061 S 
ATOM      2  O   UNL     1      -2.793 -10.672  16.765  0.00  0.00    -0.275 OA
ATOM      6  N   UNL     1      -4.194 -11.558  15.095  0.00  0.00    -0.264 N 
ATOM      9  N   UNL     1      -2.013 -12.481  14.464  0.00  0.00    -0.233 NA
ATOM     18  C   UNL     1      -3.887 -10.816  16.228  0.00  0.00    +0.223 C 
ATOM     20  C   UNL     1      -3.307 -12.319  14.298  0.00  0.00    +0.164 A 
ATOM     23  C   UNL     1      -2.465 -13.749  12.551  0.00  0.00    +0.068 A 
ATOM     24  C   UNL     1      -1.532 -13.301  13.462  0.00  0.00    +0.120 A 
ATOM     31  H   UNL     1      -5.155 -11.572  14.761  0.00  0.00    +0.157 HD
ENDBRANCH  12  18
BRANCH  11  17
ATOM     17  C   UNL     1      -9.184  -9.773  18.123  0.00  0.00    +0.164 C 
BRANCH  17   5
ATOM      5  N   UNL     1     -10.135  -8.892  17.363  0.00  0.00    -0.250 N 
ATOM      7  N   UNL     1     -11.406  -9.273  17.153  0.00  0.00    -0.065 NA
ATOM      8  N   UNL     1     -11.998  -8.309  16.458  0.00  0.00    -0.131 NA
ATOM     19  C   UNL     1      -9.878  -7.675  16.809  0.00  0.00    +0.137 A 
ATOM     21  C   UNL     1     -11.077  -7.322  16.239  0.00  0.00    +0.120 A 
BRANCH  21  22
ATOM     22  C   UNL     1     -11.423  -6.107  15.490  0.00  0.00    +0.287 C 
BRANCH  22   3
ATOM      3  O   UNL     1     -12.620  -6.315  14.736  0.00  0.00    -0.486 OA
BRANCH   3  25
ATOM     25  C   UNL     1     -12.966  -5.325  13.858  0.00  0.00    +0.121 A 
ATOM     26  C   UNL     1     -14.304  -4.962  13.709  0.00  0.00    +0.045 A 
ATOM     27  C   UNL     1     -11.980  -4.681  13.110  0.00  0.00    +0.045 A 
ATOM     28  C   UNL     1     -14.657  -3.954  12.811  0.00  0.00    +0.004 A 
ATOM     29  C   UNL     1     -12.333  -3.673  12.213  0.00  0.00    +0.004 A 
ATOM     30  C   UNL     1     -13.672  -3.309  12.064  0.00  0.00    +0.000 A 
ENDBRANCH   3  25
ENDBRANCH  22   3
ENDBRANCH  21  22
ENDBRANCH  17   5
ENDBRANCH  11  17
TORSDOF 6
ENDMDL
