MODEL 1
REMARK VINA RESULT:      -7.5      0.000      0.000
REMARK  Name = 51136976
REMARK  10 active torsions:
REMARK  status: ('A' for Active; 'I' for Inactive)
REMARK    1  A    between atoms: O_6  and  C_15
REMARK    2  A    between atoms: O_7  and  C_22
REMARK    3  A    between atoms: O_9  and  C_34
REMARK    4  A    between atoms: N_10  and  C_13
REMARK    5  A    between atoms: N_11  and  C_23
REMARK    6  A    between atoms: N_12  and  C_19
REMARK    7  A    between atoms: C_14  and  C_19
REMARK    8  A    between atoms: C_16  and  C_22
REMARK    9  A    between atoms: C_24  and  C_29
REMARK   10  A    between atoms: C_27  and  C_31
REMARK                            x       y       z     vdW  Elec       q    Type
REMARK                         _______ _______ _______ _____ _____    ______ ____
ROOT
ATOM      5  O   UNL     1     -10.642 -11.574  17.596  0.00  0.00    -0.365 OA
ATOM     13  C   UNL     1     -11.668  -9.615  16.715  0.00  0.00    +0.118 C 
ATOM     14  C   UNL     1     -10.947 -10.918  16.345  0.00  0.00    +0.155 C 
ATOM     15  C   UNL     1     -11.149  -9.321  18.114  0.00  0.00    +0.165 C 
ATOM     16  C   UNL     1     -11.065 -10.731  18.685  0.00  0.00    +0.174 C 
ENDROOT
BRANCH  13  10
ATOM     10  N   UNL     1     -11.546  -8.522  15.767  0.00  0.00    -0.292 NA
ATOM     11  N   UNL     1     -12.488  -6.435  14.058  0.00  0.00    -0.327 N 
ATOM     17  C   UNL     1     -12.089  -7.282  16.336  0.00  0.00    +0.104 C 
ATOM     18  C   UNL     1     -12.246  -8.844  14.516  0.00  0.00    +0.104 C 
ATOM     20  C   UNL     1     -11.916  -6.110  15.369  0.00  0.00    +0.120 C 
ATOM     21  C   UNL     1     -12.078  -7.724  13.488  0.00  0.00    +0.120 C 
BRANCH  11  23
ATOM     23  C   UNL     1     -12.831  -5.405  13.176  0.00  0.00    +0.030 A 
ATOM     25  C   UNL     1     -12.105  -5.224  11.998  0.00  0.00    +0.035 A 
ATOM     26  C   UNL     1     -13.899  -4.558  13.474  0.00  0.00    +0.023 A 
ATOM     27  C   UNL     1     -12.448  -4.198  11.118  0.00  0.00    +0.057 A 
ATOM     28  C   UNL     1     -14.241  -3.531  12.594  0.00  0.00    +0.002 A 
ATOM     30  C   UNL     1     -13.515  -3.351  11.415  0.00  0.00    +0.012 A 
BRANCH  27  31
ATOM      2  F   UNL     1     -12.471  -3.907   8.759  0.00  0.00    -0.166 F 
ATOM      3  F   UNL     1     -10.904  -2.876   9.857  0.00  0.00    -0.166 F 
ATOM      4  F   UNL     1     -10.802  -5.025   9.591  0.00  0.00    -0.166 F 
ATOM     31  C   UNL     1     -11.671  -4.006   9.860  0.00  0.00    +0.417 C 
ENDBRANCH  27  31
ENDBRANCH  11  23
ENDBRANCH  13  10
BRANCH  15   6
ATOM      6  O   UNL     1      -9.859  -8.724  18.077  0.00  0.00    -0.388 OA
ATOM     37  H   UNL     1      -9.540  -8.654  18.992  0.00  0.00    +0.210 HD
ENDBRANCH  15   6
BRANCH  14  19
ATOM     19  C   UNL     1      -9.636 -10.778  15.578  0.00  0.00    +0.137 C 
BRANCH  19  12
ATOM      8  O   UNL     1      -7.459  -9.069  16.341  0.00  0.00    -0.270 OA
ATOM     12  N   UNL     1      -8.518 -11.133  16.401  0.00  0.00    -0.309 N 
ATOM     24  C   UNL     1      -7.503 -10.237  16.722  0.00  0.00    +0.246 C 
ATOM     38  H   UNL     1      -8.478 -12.080  16.767  0.00  0.00    +0.149 HD
BRANCH  24  29
ATOM      1 CL   UNL     1      -4.872 -11.047  15.319  0.00  0.00    -0.083 Cl
ATOM     29  C   UNL     1      -6.399 -10.766  17.563  0.00  0.00    +0.058 A 
ATOM     32  C   UNL     1      -6.611 -10.867  18.937  0.00  0.00    +0.060 A 
ATOM     33  C   UNL     1      -5.176 -11.155  17.015  0.00  0.00    +0.053 A 
ATOM     34  C   UNL     1      -5.601 -11.358  19.765  0.00  0.00    +0.118 A 
ATOM     35  C   UNL     1      -4.166 -11.647  17.843  0.00  0.00    +0.024 A 
ATOM     36  C   UNL     1      -4.379 -11.748  19.218  0.00  0.00    +0.047 A 
BRANCH  34   9
ATOM      9  O   UNL     1      -5.808 -11.458  21.106  0.00  0.00    -0.507 OA
ATOM     40  H   UNL     1      -5.497 -10.642  21.536  0.00  0.00    +0.292 HD
ENDBRANCH  34   9
ENDBRANCH  24  29
ENDBRANCH  19  12
ENDBRANCH  14  19
BRANCH  16  22
ATOM     22  C   UNL     1     -10.112 -10.907  19.853  0.00  0.00    +0.190 C 
BRANCH  22   7
ATOM      7  O   UNL     1     -10.388  -9.911  20.824  0.00  0.00    -0.392 OA
ATOM     39  H   UNL     1     -11.354  -9.819  20.874  0.00  0.00    +0.210 HD
ENDBRANCH  22   7
ENDBRANCH  16  22
TORSDOF 10
ENDMDL
MODEL 2
REMARK VINA RESULT:      -7.4     17.385     20.024
REMARK  Name = 51136976
REMARK  10 active torsions:
REMARK  status: ('A' for Active; 'I' for Inactive)
REMARK    1  A    between atoms: O_6  and  C_15
REMARK    2  A    between atoms: O_7  and  C_22
REMARK    3  A    between atoms: O_9  and  C_34
REMARK    4  A    between atoms: N_10  and  C_13
REMARK    5  A    between atoms: N_11  and  C_23
REMARK    6  A    between atoms: N_12  and  C_19
REMARK    7  A    between atoms: C_14  and  C_19
REMARK    8  A    between atoms: C_16  and  C_22
REMARK    9  A    between atoms: C_24  and  C_29
REMARK   10  A    between atoms: C_27  and  C_31
REMARK                            x       y       z     vdW  Elec       q    Type
REMARK                         _______ _______ _______ _____ _____    ______ ____
ROOT
ATOM      5  O   UNL     1     -17.489   3.547  23.845  0.00  0.00    -0.365 OA
ATOM     13  C   UNL     1     -17.406   3.003  26.161  0.00  0.00    +0.118 C 
ATOM     14  C   UNL     1     -16.812   3.904  25.070  0.00  0.00    +0.155 C 
ATOM     15  C   UNL     1     -17.884   1.788  25.379  0.00  0.00    +0.165 C 
ATOM     16  C   UNL     1     -18.392   2.456  24.107  0.00  0.00    +0.174 C 
ENDROOT
BRANCH  13  10
ATOM     10  N   UNL     1     -16.544   2.711  27.292  0.00  0.00    -0.292 NA
ATOM     11  N   UNL     1     -15.836   2.540  30.054  0.00  0.00    -0.327 N 
ATOM     17  C   UNL     1     -17.153   1.691  28.154  0.00  0.00    +0.104 C 
ATOM     18  C   UNL     1     -16.283   3.930  28.069  0.00  0.00    +0.104 C 
ATOM     20  C   UNL     1     -16.230   1.333  29.321  0.00  0.00    +0.120 C 
ATOM     21  C   UNL     1     -15.330   3.647  29.232  0.00  0.00    +0.120 C 
BRANCH  11  23
ATOM     23  C   UNL     1     -15.370   2.433  31.369  0.00  0.00    +0.030 A 
ATOM     25  C   UNL     1     -15.224   3.577  32.154  0.00  0.00    +0.035 A 
ATOM     26  C   UNL     1     -15.051   1.181  31.896  0.00  0.00    +0.023 A 
ATOM     27  C   UNL     1     -14.760   3.470  33.465  0.00  0.00    +0.057 A 
ATOM     28  C   UNL     1     -14.586   1.074  33.207  0.00  0.00    +0.002 A 
ATOM     30  C   UNL     1     -14.441   2.219  33.992  0.00  0.00    +0.012 A 
BRANCH  27  31
ATOM      2  F   UNL     1     -15.800   5.275  34.610  0.00  0.00    -0.166 F 
ATOM      3  F   UNL     1     -13.990   4.464  35.500  0.00  0.00    -0.166 F 
ATOM      4  F   UNL     1     -13.864   5.675  33.705  0.00  0.00    -0.166 F 
ATOM     31  C   UNL     1     -14.604   4.694  34.302  0.00  0.00    +0.417 C 
ENDBRANCH  27  31
ENDBRANCH  11  23
ENDBRANCH  13  10
BRANCH  15   6
ATOM      6  O   UNL     1     -16.811   0.905  25.081  0.00  0.00    -0.388 OA
ATOM     37  H   UNL     1     -16.782   0.230  25.780  0.00  0.00    +0.210 HD
ENDBRANCH  15   6
BRANCH  14  19
ATOM     19  C   UNL     1     -15.315   3.770  24.814  0.00  0.00    +0.137 C 
BRANCH  19  12
ATOM      8  O   UNL     1     -15.176   4.267  21.989  0.00  0.00    -0.270 OA
ATOM     12  N   UNL     1     -14.795   4.943  24.176  0.00  0.00    -0.309 N 
ATOM     24  C   UNL     1     -14.766   5.100  22.793  0.00  0.00    +0.246 C 
ATOM     38  H   UNL     1     -14.441   5.689  24.768  0.00  0.00    +0.149 HD
BRANCH  24  29
ATOM      1 CL   UNL     1     -16.185   7.755  23.489  0.00  0.00    -0.083 Cl
ATOM     29  C   UNL     1     -14.170   6.363  22.287  0.00  0.00    +0.058 A 
ATOM     32  C   UNL     1     -13.003   6.280  21.527  0.00  0.00    +0.060 A 
ATOM     33  C   UNL     1     -14.742   7.608  22.553  0.00  0.00    +0.053 A 
ATOM     34  C   UNL     1     -12.409   7.441  21.032  0.00  0.00    +0.118 A 
ATOM     35  C   UNL     1     -14.148   8.768  22.058  0.00  0.00    +0.024 A 
ATOM     36  C   UNL     1     -12.981   8.685  21.297  0.00  0.00    +0.047 A 
BRANCH  34   9
ATOM      9  O   UNL     1     -11.271   7.361  20.291  0.00  0.00    -0.507 OA
ATOM     40  H   UNL     1     -10.581   6.922  20.817  0.00  0.00    +0.292 HD
ENDBRANCH  34   9
ENDBRANCH  24  29
ENDBRANCH  19  12
ENDBRANCH  14  19
BRANCH  16  22
ATOM     22  C   UNL     1     -18.463   1.560  22.883  0.00  0.00    +0.190 C 
BRANCH  22   7
ATOM      7  O   UNL     1     -17.225   1.625  22.195  0.00  0.00    -0.392 OA
ATOM     39  H   UNL     1     -17.424   1.836  21.267  0.00  0.00    +0.210 HD
ENDBRANCH  22   7
ENDBRANCH  16  22
TORSDOF 10
ENDMDL
MODEL 3
REMARK VINA RESULT:      -6.9     29.430     31.774
REMARK  Name = 51136976
REMARK  10 active torsions:
REMARK  status: ('A' for Active; 'I' for Inactive)
REMARK    1  A    between atoms: O_6  and  C_15
REMARK    2  A    between atoms: O_7  and  C_22
REMARK    3  A    between atoms: O_9  and  C_34
REMARK    4  A    between atoms: N_10  and  C_13
REMARK    5  A    between atoms: N_11  and  C_23
REMARK    6  A    between atoms: N_12  and  C_19
REMARK    7  A    between atoms: C_14  and  C_19
REMARK    8  A    between atoms: C_16  and  C_22
REMARK    9  A    between atoms: C_24  and  C_29
REMARK   10  A    between atoms: C_27  and  C_31
REMARK                            x       y       z     vdW  Elec       q    Type
REMARK                         _______ _______ _______ _____ _____    ______ ____
ROOT
ATOM      5  O   UNL     1       9.520   7.090   5.292  0.00  0.00    -0.365 OA
ATOM     13  C   UNL     1      11.747   7.930   5.301  0.00  0.00    +0.118 C 
ATOM     14  C   UNL     1      10.752   7.045   4.540  0.00  0.00    +0.155 C 
ATOM     15  C   UNL     1      11.227   7.881   6.730  0.00  0.00    +0.165 C 
ATOM     16  C   UNL     1       9.723   7.880   6.480  0.00  0.00    +0.174 C 
ENDROOT
BRANCH  13  10
ATOM     10  N   UNL     1      13.153   7.600   5.143  0.00  0.00    -0.292 NA
ATOM     11  N   UNL     1      15.933   8.143   4.772  0.00  0.00    -0.327 N 
ATOM     17  C   UNL     1      13.946   8.191   6.228  0.00  0.00    +0.104 C 
ATOM     18  C   UNL     1      13.650   8.074   3.845  0.00  0.00    +0.104 C 
ATOM     20  C   UNL     1      15.421   7.805   6.104  0.00  0.00    +0.120 C 
ATOM     21  C   UNL     1      15.116   7.683   3.642  0.00  0.00    +0.120 C 
BRANCH  11  23
ATOM     23  C   UNL     1      17.310   8.284   4.572  0.00  0.00    +0.030 A 
ATOM     25  C   UNL     1      18.173   8.326   5.667  0.00  0.00    +0.035 A 
ATOM     26  C   UNL     1      17.821   8.383   3.277  0.00  0.00    +0.023 A 
ATOM     27  C   UNL     1      19.547   8.466   5.468  0.00  0.00    +0.057 A 
ATOM     28  C   UNL     1      19.194   8.524   3.079  0.00  0.00    +0.002 A 
ATOM     30  C   UNL     1      20.057   8.566   4.175  0.00  0.00    +0.012 A 
BRANCH  27  31
ATOM      2  F   UNL     1      20.987   7.287   6.947  0.00  0.00    -0.166 F 
ATOM      3  F   UNL     1      21.546   9.331   6.458  0.00  0.00    -0.166 F 
ATOM      4  F   UNL     1      19.874   8.956   7.787  0.00  0.00    -0.166 F 
ATOM     31  C   UNL     1      20.468   8.512   6.640  0.00  0.00    +0.417 C 
ENDBRANCH  27  31
ENDBRANCH  11  23
ENDBRANCH  13  10
BRANCH  15   6
ATOM      6  O   UNL     1      11.621   6.684   7.387  0.00  0.00    -0.388 OA
ATOM     37  H   UNL     1      12.482   6.849   7.807  0.00  0.00    +0.210 HD
ENDBRANCH  15   6
BRANCH  14  19
ATOM     19  C   UNL     1      11.129   5.576   4.380  0.00  0.00    +0.137 C 
BRANCH  19  12
ATOM      8  O   UNL     1      11.195   3.253   2.694  0.00  0.00    -0.270 OA
ATOM     12  N   UNL     1      11.956   5.379   3.227  0.00  0.00    -0.309 N 
ATOM     24  C   UNL     1      11.923   4.215   2.463  0.00  0.00    +0.246 C 
ATOM     38  H   UNL     1      12.585   6.130   2.958  0.00  0.00    +0.149 HD
BRANCH  24  29
ATOM      1 CL   UNL     1      10.802   4.797  -0.356  0.00  0.00    -0.083 Cl
ATOM     29  C   UNL     1      12.861   4.154   1.314  0.00  0.00    +0.058 A 
ATOM     32  C   UNL     1      14.195   3.839   1.571  0.00  0.00    +0.060 A 
ATOM     33  C   UNL     1      12.444   4.404   0.006  0.00  0.00    +0.053 A 
ATOM     34  C   UNL     1      15.112   3.772   0.522  0.00  0.00    +0.118 A 
ATOM     35  C   UNL     1      13.360   4.337  -1.043  0.00  0.00    +0.024 A 
ATOM     36  C   UNL     1      14.694   4.020  -0.785  0.00  0.00    +0.047 A 
BRANCH  34   9
ATOM      9  O   UNL     1      16.413   3.463   0.772  0.00  0.00    -0.507 OA
ATOM     40  H   UNL     1      16.455   2.589   1.197  0.00  0.00    +0.292 HD
ENDBRANCH  34   9
ENDBRANCH  24  29
ENDBRANCH  19  12
ENDBRANCH  14  19
BRANCH  16  22
ATOM     22  C   UNL     1       8.875   7.316   7.606  0.00  0.00    +0.190 C 
BRANCH  22   7
ATOM      7  O   UNL     1       9.038   5.908   7.643  0.00  0.00    -0.392 OA
ATOM     39  H   UNL     1       9.751   5.686   7.020  0.00  0.00    +0.210 HD
ENDBRANCH  22   7
ENDBRANCH  16  22
TORSDOF 10
ENDMDL
MODEL 4
REMARK VINA RESULT:      -6.7     27.853     30.224
REMARK  Name = 51136976
REMARK  10 active torsions:
REMARK  status: ('A' for Active; 'I' for Inactive)
REMARK    1  A    between atoms: O_6  and  C_15
REMARK    2  A    between atoms: O_7  and  C_22
REMARK    3  A    between atoms: O_9  and  C_34
REMARK    4  A    between atoms: N_10  and  C_13
REMARK    5  A    between atoms: N_11  and  C_23
REMARK    6  A    between atoms: N_12  and  C_19
REMARK    7  A    between atoms: C_14  and  C_19
REMARK    8  A    between atoms: C_16  and  C_22
REMARK    9  A    between atoms: C_24  and  C_29
REMARK   10  A    between atoms: C_27  and  C_31
REMARK                            x       y       z     vdW  Elec       q    Type
REMARK                         _______ _______ _______ _____ _____    ______ ____
ROOT
ATOM      5  O   UNL     1      14.072   5.257  -0.478  0.00  0.00    -0.365 OA
ATOM     13  C   UNL     1      12.419   5.643   1.191  0.00  0.00    +0.118 C 
ATOM     14  C   UNL     1      13.876   5.916   0.793  0.00  0.00    +0.155 C 
ATOM     15  C   UNL     1      12.103   4.343   0.467  0.00  0.00    +0.165 C 
ATOM     16  C   UNL     1      12.866   4.555  -0.836  0.00  0.00    +0.174 C 
ENDROOT
BRANCH  13  10
ATOM     10  N   UNL     1      12.132   5.644   2.615  0.00  0.00    -0.292 NA
ATOM     11  N   UNL     1      10.669   6.301   4.978  0.00  0.00    -0.327 N 
ATOM     17  C   UNL     1      10.827   5.025   2.877  0.00  0.00    +0.104 C 
ATOM     18  C   UNL     1      12.150   7.014   3.143  0.00  0.00    +0.104 C 
ATOM     20  C   UNL     1      10.536   4.969   4.378  0.00  0.00    +0.120 C 
ATOM     21  C   UNL     1      11.904   7.024   4.653  0.00  0.00    +0.120 C 
BRANCH  11  23
ATOM     23  C   UNL     1      10.049   6.575   6.203  0.00  0.00    +0.030 A 
ATOM     25  C   UNL     1      10.005   5.598   7.197  0.00  0.00    +0.035 A 
ATOM     26  C   UNL     1       9.475   7.827   6.429  0.00  0.00    +0.023 A 
ATOM     27  C   UNL     1       9.389   5.872   8.418  0.00  0.00    +0.057 A 
ATOM     28  C   UNL     1       8.858   8.100   7.649  0.00  0.00    +0.002 A 
ATOM     30  C   UNL     1       8.814   7.122   8.644  0.00  0.00    +0.012 A 
BRANCH  27  31
ATOM      2  F   UNL     1      10.393   4.911  10.346  0.00  0.00    -0.166 F 
ATOM      3  F   UNL     1       8.220   4.884  10.257  0.00  0.00    -0.166 F 
ATOM      4  F   UNL     1       9.371   3.550   8.993  0.00  0.00    -0.166 F 
ATOM     31  C   UNL     1       9.342   4.826   9.479  0.00  0.00    +0.417 C 
ENDBRANCH  27  31
ENDBRANCH  11  23
ENDBRANCH  13  10
BRANCH  15   6
ATOM      6  O   UNL     1      12.620   3.218   1.166  0.00  0.00    -0.388 OA
ATOM     37  H   UNL     1      11.880   2.797   1.634  0.00  0.00    +0.210 HD
ENDBRANCH  15   6
BRANCH  14  19
ATOM     19  C   UNL     1      14.952   5.397   1.741  0.00  0.00    +0.137 C 
BRANCH  19  12
ATOM      8  O   UNL     1      16.533   7.791   1.641  0.00  0.00    -0.270 OA
ATOM     12  N   UNL     1      15.179   6.318   2.815  0.00  0.00    -0.309 N 
ATOM     24  C   UNL     1      15.964   7.459   2.678  0.00  0.00    +0.246 C 
ATOM     38  H   UNL     1      14.737   6.124   3.709  0.00  0.00    +0.149 HD
BRANCH  24  29
ATOM      1 CL   UNL     1      18.790   7.719   3.898  0.00  0.00    -0.083 Cl
ATOM     29  C   UNL     1      16.124   8.298   3.893  0.00  0.00    +0.058 A 
ATOM     32  C   UNL     1      14.990   8.922   4.414  0.00  0.00    +0.060 A 
ATOM     33  C   UNL     1      17.362   8.473   4.511  0.00  0.00    +0.053 A 
ATOM     34  C   UNL     1      15.095   9.719   5.554  0.00  0.00    +0.118 A 
ATOM     35  C   UNL     1      17.467   9.270   5.650  0.00  0.00    +0.024 A 
ATOM     36  C   UNL     1      16.333   9.893   6.172  0.00  0.00    +0.047 A 
BRANCH  34   9
ATOM      9  O   UNL     1      13.989  10.327   6.063  0.00  0.00    -0.507 OA
ATOM     40  H   UNL     1      13.906  10.095   7.004  0.00  0.00    +0.292 HD
ENDBRANCH  34   9
ENDBRANCH  24  29
ENDBRANCH  19  12
ENDBRANCH  14  19
BRANCH  16  22
ATOM     22  C   UNL     1      13.229   3.291  -1.593  0.00  0.00    +0.190 C 
BRANCH  22   7
ATOM      7  O   UNL     1      12.079   2.465  -1.685  0.00  0.00    -0.392 OA
ATOM     39  H   UNL     1      12.368   1.552  -1.521  0.00  0.00    +0.210 HD
ENDBRANCH  22   7
ENDBRANCH  16  22
TORSDOF 10
ENDMDL
MODEL 5
REMARK VINA RESULT:      -6.6      2.134      2.801
REMARK  Name = 51136976
REMARK  10 active torsions:
REMARK  status: ('A' for Active; 'I' for Inactive)
REMARK    1  A    between atoms: O_6  and  C_15
REMARK    2  A    between atoms: O_7  and  C_22
REMARK    3  A    between atoms: O_9  and  C_34
REMARK    4  A    between atoms: N_10  and  C_13
REMARK    5  A    between atoms: N_11  and  C_23
REMARK    6  A    between atoms: N_12  and  C_19
REMARK    7  A    between atoms: C_14  and  C_19
REMARK    8  A    between atoms: C_16  and  C_22
REMARK    9  A    between atoms: C_24  and  C_29
REMARK   10  A    between atoms: C_27  and  C_31
REMARK                            x       y       z     vdW  Elec       q    Type
REMARK                         _______ _______ _______ _____ _____    ______ ____
ROOT
ATOM      5  O   UNL     1      -8.159 -12.016  17.354  0.00  0.00    -0.365 OA
ATOM     13  C   UNL     1      -9.681 -10.211  17.048  0.00  0.00    +0.118 C 
ATOM     14  C   UNL     1      -9.094 -11.470  16.397  0.00  0.00    +0.155 C 
ATOM     15  C   UNL     1      -8.587  -9.784  18.016  0.00  0.00    +0.165 C 
ATOM     16  C   UNL     1      -8.092 -11.143  18.497  0.00  0.00    +0.174 C 
ENDROOT
BRANCH  13  10
ATOM     10  N   UNL     1     -10.144  -9.176  16.141  0.00  0.00    -0.292 NA
ATOM     11  N   UNL     1     -12.043  -7.384  14.984  0.00  0.00    -0.327 N 
ATOM     17  C   UNL     1     -10.618  -8.007  16.893  0.00  0.00    +0.104 C 
ATOM     18  C   UNL     1     -11.221  -9.687  15.283  0.00  0.00    +0.104 C 
ATOM     20  C   UNL     1     -11.058  -6.886  15.949  0.00  0.00    +0.120 C 
ATOM     21  C   UNL     1     -11.680  -8.622  14.285  0.00  0.00    +0.120 C 
BRANCH  11  23
ATOM     23  C   UNL     1     -12.887  -6.482  14.326  0.00  0.00    +0.030 A 
ATOM     25  C   UNL     1     -12.355  -5.552  13.433  0.00  0.00    +0.035 A 
ATOM     26  C   UNL     1     -14.262  -6.512  14.565  0.00  0.00    +0.023 A 
ATOM     27  C   UNL     1     -13.196  -4.653  12.778  0.00  0.00    +0.057 A 
ATOM     28  C   UNL     1     -15.103  -5.613  13.909  0.00  0.00    +0.002 A 
ATOM     30  C   UNL     1     -14.570  -4.683  13.015  0.00  0.00    +0.012 A 
BRANCH  27  31
ATOM      2  F   UNL     1     -11.740  -2.808  12.420  0.00  0.00    -0.166 F 
ATOM      3  F   UNL     1     -11.945  -4.225  10.784  0.00  0.00    -0.166 F 
ATOM      4  F   UNL     1     -13.565  -2.858  11.239  0.00  0.00    -0.166 F 
ATOM     31  C   UNL     1     -12.625  -3.659  11.824  0.00  0.00    +0.417 C 
ENDBRANCH  27  31
ENDBRANCH  11  23
ENDBRANCH  13  10
BRANCH  15   6
ATOM      6  O   UNL     1      -7.544  -9.085  17.348  0.00  0.00    -0.388 OA
ATOM     37  H   UNL     1      -6.976  -8.686  18.028  0.00  0.00    +0.210 HD
ENDBRANCH  15   6
BRANCH  14  19
ATOM     19  C   UNL     1      -8.336 -11.272  15.089  0.00  0.00    +0.137 C 
BRANCH  19  12
ATOM      8  O   UNL     1      -6.363  -9.614  13.822  0.00  0.00    -0.270 OA
ATOM     12  N   UNL     1      -6.919 -11.311  15.303  0.00  0.00    -0.309 N 
ATOM     24  C   UNL     1      -6.032 -10.466  14.643  0.00  0.00    +0.246 C 
ATOM     38  H   UNL     1      -6.558 -11.983  15.974  0.00  0.00    +0.149 HD
BRANCH  24  29
ATOM      1 CL   UNL     1      -4.006 -10.259  12.320  0.00  0.00    -0.083 Cl
ATOM     29  C   UNL     1      -4.592 -10.649  14.956  0.00  0.00    +0.058 A 
ATOM     32  C   UNL     1      -4.235 -10.904  16.280  0.00  0.00    +0.060 A 
ATOM     33  C   UNL     1      -3.607 -10.572  13.970  0.00  0.00    +0.053 A 
ATOM     34  C   UNL     1      -2.893 -11.082  16.618  0.00  0.00    +0.118 A 
ATOM     35  C   UNL     1      -2.266 -10.750  14.309  0.00  0.00    +0.024 A 
ATOM     36  C   UNL     1      -1.909 -11.006  15.633  0.00  0.00    +0.047 A 
BRANCH  34   9
ATOM      9  O   UNL     1      -2.544 -11.331  17.910  0.00  0.00    -0.507 OA
ATOM     40  H   UNL     1      -1.645 -11.700  17.929  0.00  0.00    +0.292 HD
ENDBRANCH  34   9
ENDBRANCH  24  29
ENDBRANCH  19  12
ENDBRANCH  14  19
BRANCH  16  22
ATOM     22  C   UNL     1      -6.683 -11.162  19.061  0.00  0.00    +0.190 C 
BRANCH  22   7
ATOM      7  O   UNL     1      -6.521 -10.053  19.930  0.00  0.00    -0.392 OA
ATOM     39  H   UNL     1      -7.385  -9.613  19.997  0.00  0.00    +0.210 HD
ENDBRANCH  22   7
ENDBRANCH  16  22
TORSDOF 10
ENDMDL
MODEL 6
REMARK VINA RESULT:      -6.5     28.352     30.762
REMARK  Name = 51136976
REMARK  10 active torsions:
REMARK  status: ('A' for Active; 'I' for Inactive)
REMARK    1  A    between atoms: O_6  and  C_15
REMARK    2  A    between atoms: O_7  and  C_22
REMARK    3  A    between atoms: O_9  and  C_34
REMARK    4  A    between atoms: N_10  and  C_13
REMARK    5  A    between atoms: N_11  and  C_23
REMARK    6  A    between atoms: N_12  and  C_19
REMARK    7  A    between atoms: C_14  and  C_19
REMARK    8  A    between atoms: C_16  and  C_22
REMARK    9  A    between atoms: C_24  and  C_29
REMARK   10  A    between atoms: C_27  and  C_31
REMARK                            x       y       z     vdW  Elec       q    Type
REMARK                         _______ _______ _______ _____ _____    ______ ____
ROOT
ATOM      5  O   UNL     1       8.997   5.611   6.876  0.00  0.00    -0.365 OA
ATOM     13  C   UNL     1      10.932   6.974   6.618  0.00  0.00    +0.118 C 
ATOM     14  C   UNL     1       9.889   6.136   5.868  0.00  0.00    +0.155 C 
ATOM     15  C   UNL     1      10.945   6.345   8.003  0.00  0.00    +0.165 C 
ATOM     16  C   UNL     1       9.467   6.016   8.176  0.00  0.00    +0.174 C 
ENDROOT
BRANCH  13  10
ATOM     10  N   UNL     1      12.232   7.101   5.983  0.00  0.00    -0.292 NA
ATOM     11  N   UNL     1      14.697   8.384   5.322  0.00  0.00    -0.327 N 
ATOM     17  C   UNL     1      13.286   7.251   6.994  0.00  0.00    +0.104 C 
ATOM     18  C   UNL     1      12.249   8.250   5.069  0.00  0.00    +0.104 C 
ATOM     20  C   UNL     1      14.668   7.329   6.340  0.00  0.00    +0.120 C 
ATOM     21  C   UNL     1      13.596   8.361   4.352  0.00  0.00    +0.120 C 
BRANCH  11  23
ATOM     23  C   UNL     1      15.922   8.921   4.913  0.00  0.00    +0.030 A 
ATOM     25  C   UNL     1      17.112   8.441   5.461  0.00  0.00    +0.035 A 
ATOM     26  C   UNL     1      15.955   9.938   3.958  0.00  0.00    +0.023 A 
ATOM     27  C   UNL     1      18.334   8.975   5.053  0.00  0.00    +0.057 A 
ATOM     28  C   UNL     1      17.177  10.472   3.551  0.00  0.00    +0.002 A 
ATOM     30  C   UNL     1      18.367   9.991   4.099  0.00  0.00    +0.012 A 
BRANCH  27  31
ATOM      2  F   UNL     1      20.048   7.328   5.020  0.00  0.00    -0.166 F 
ATOM      3  F   UNL     1      20.641   9.348   5.566  0.00  0.00    -0.166 F 
ATOM      4  F   UNL     1      19.506   8.139   6.964  0.00  0.00    -0.166 F 
ATOM     31  C   UNL     1      19.605   8.461   5.640  0.00  0.00    +0.417 C 
ENDBRANCH  27  31
ENDBRANCH  11  23
ENDBRANCH  13  10
BRANCH  15   6
ATOM      6  O   UNL     1      11.723   5.155   8.028  0.00  0.00    -0.388 OA
ATOM     37  H   UNL     1      11.490   4.635   7.241  0.00  0.00    +0.210 HD
ENDBRANCH  15   6
BRANCH  14  19
ATOM     19  C   UNL     1      10.414   4.948   5.069  0.00  0.00    +0.137 C 
BRANCH  19  12
ATOM      8  O   UNL     1      11.292   3.202   2.965  0.00  0.00    -0.270 OA
ATOM     12  N   UNL     1      10.564   5.284   3.684  0.00  0.00    -0.309 N 
ATOM     24  C   UNL     1      10.998   4.371   2.728  0.00  0.00    +0.246 C 
ATOM     38  H   UNL     1      10.333   6.231   3.397  0.00  0.00    +0.149 HD
BRANCH  24  29
ATOM      1 CL   UNL     1      13.675   5.674   1.905  0.00  0.00    -0.083 Cl
ATOM     29  C   UNL     1      11.127   4.883   1.339  0.00  0.00    +0.058 A 
ATOM     32  C   UNL     1      10.033   4.746   0.485  0.00  0.00    +0.060 A 
ATOM     33  C   UNL     1      12.299   5.485   0.881  0.00  0.00    +0.053 A 
ATOM     34  C   UNL     1      10.110   5.212  -0.828  0.00  0.00    +0.118 A 
ATOM     35  C   UNL     1      12.376   5.951  -0.432  0.00  0.00    +0.024 A 
ATOM     36  C   UNL     1      11.281   5.814  -1.286  0.00  0.00    +0.047 A 
BRANCH  34   9
ATOM      9  O   UNL     1       9.043   5.079  -1.662  0.00  0.00    -0.507 OA
ATOM     40  H   UNL     1       8.499   5.884  -1.610  0.00  0.00    +0.292 HD
ENDBRANCH  34   9
ENDBRANCH  24  29
ENDBRANCH  19  12
ENDBRANCH  14  19
BRANCH  16  22
ATOM     22  C   UNL     1       9.155   4.924   9.184  0.00  0.00    +0.190 C 
BRANCH  22   7
ATOM      7  O   UNL     1      10.141   4.945  10.203  0.00  0.00    -0.392 OA
ATOM     39  H   UNL     1      11.007   4.903   9.765  0.00  0.00    +0.210 HD
ENDBRANCH  22   7
ENDBRANCH  16  22
TORSDOF 10
ENDMDL
MODEL 7
REMARK VINA RESULT:      -6.5      6.183      8.593
REMARK  Name = 51136976
REMARK  10 active torsions:
REMARK  status: ('A' for Active; 'I' for Inactive)
REMARK    1  A    between atoms: O_6  and  C_15
REMARK    2  A    between atoms: O_7  and  C_22
REMARK    3  A    between atoms: O_9  and  C_34
REMARK    4  A    between atoms: N_10  and  C_13
REMARK    5  A    between atoms: N_11  and  C_23
REMARK    6  A    between atoms: N_12  and  C_19
REMARK    7  A    between atoms: C_14  and  C_19
REMARK    8  A    between atoms: C_16  and  C_22
REMARK    9  A    between atoms: C_24  and  C_29
REMARK   10  A    between atoms: C_27  and  C_31
REMARK                            x       y       z     vdW  Elec       q    Type
REMARK                         _______ _______ _______ _____ _____    ______ ____
ROOT
ATOM      5  O   UNL     1     -10.881 -12.621  18.970  0.00  0.00    -0.365 OA
ATOM     13  C   UNL     1      -9.110 -11.571  17.775  0.00  0.00    +0.118 C 
ATOM     14  C   UNL     1      -9.625 -12.911  18.317  0.00  0.00    +0.155 C 
ATOM     15  C   UNL     1      -9.759 -10.554  18.701  0.00  0.00    +0.165 C 
ATOM     16  C   UNL     1     -11.121 -11.201  18.919  0.00  0.00    +0.174 C 
ENDROOT
BRANCH  13  10
ATOM     10  N   UNL     1      -7.670 -11.448  17.631  0.00  0.00    -0.292 NA
ATOM     11  N   UNL     1      -5.219 -10.984  16.239  0.00  0.00    -0.327 N 
ATOM     17  C   UNL     1      -7.311 -10.095  17.189  0.00  0.00    +0.104 C 
ATOM     18  C   UNL     1      -7.161 -12.438  16.673  0.00  0.00    +0.104 C 
ATOM     20  C   UNL     1      -5.793  -9.934  17.087  0.00  0.00    +0.120 C 
ATOM     21  C   UNL     1      -5.638 -12.355  16.554  0.00  0.00    +0.120 C 
BRANCH  11  23
ATOM     23  C   UNL     1      -3.959 -10.798  15.660  0.00  0.00    +0.030 A 
ATOM     25  C   UNL     1      -3.832 -10.721  14.273  0.00  0.00    +0.035 A 
ATOM     26  C   UNL     1      -2.828 -10.691  16.471  0.00  0.00    +0.023 A 
ATOM     27  C   UNL     1      -2.575 -10.535  13.697  0.00  0.00    +0.057 A 
ATOM     28  C   UNL     1      -1.572 -10.506  15.894  0.00  0.00    +0.002 A 
ATOM     30  C   UNL     1      -1.445 -10.428  14.507  0.00  0.00    +0.012 A 
BRANCH  27  31
ATOM      2  F   UNL     1      -2.337 -11.683  11.629  0.00  0.00    -0.166 F 
ATOM      3  F   UNL     1      -3.498  -9.845  11.600  0.00  0.00    -0.166 F 
ATOM      4  F   UNL     1      -1.341  -9.757  11.801  0.00  0.00    -0.166 F 
ATOM     31  C   UNL     1      -2.441 -10.454  12.214  0.00  0.00    +0.417 C 
ENDBRANCH  27  31
ENDBRANCH  11  23
ENDBRANCH  13  10
BRANCH  15   6
ATOM      6  O   UNL     1      -9.057 -10.449  19.934  0.00  0.00    -0.388 OA
ATOM     37  H   UNL     1      -8.485  -9.666  19.881  0.00  0.00    +0.210 HD
ENDBRANCH  15   6
BRANCH  14  19
ATOM     19  C   UNL     1      -8.740 -13.620  19.336  0.00  0.00    +0.137 C 
BRANCH  19  12
ATOM      8  O   UNL     1      -9.313 -16.128  20.613  0.00  0.00    -0.270 OA
ATOM     12  N   UNL     1      -9.434 -13.811  20.576  0.00  0.00    -0.309 N 
ATOM     24  C   UNL     1      -9.669 -15.069  21.124  0.00  0.00    +0.246 C 
ATOM     38  H   UNL     1      -9.757 -12.985  21.072  0.00  0.00    +0.149 HD
BRANCH  24  29
ATOM      1 CL   UNL     1      -8.072 -15.414  23.746  0.00  0.00    -0.083 Cl
ATOM     29  C   UNL     1     -10.425 -15.099  22.402  0.00  0.00    +0.058 A 
ATOM     32  C   UNL     1     -11.813 -14.970  22.347  0.00  0.00    +0.060 A 
ATOM     33  C   UNL     1      -9.787 -15.250  23.633  0.00  0.00    +0.053 A 
ATOM     34  C   UNL     1     -12.563 -14.992  23.523  0.00  0.00    +0.118 A 
ATOM     35  C   UNL     1     -10.537 -15.273  24.809  0.00  0.00    +0.024 A 
ATOM     36  C   UNL     1     -11.925 -15.144  24.753  0.00  0.00    +0.047 A 
BRANCH  34   9
ATOM      9  O   UNL     1     -13.917 -14.866  23.469  0.00  0.00    -0.507 OA
ATOM     40  H   UNL     1     -14.272 -14.884  24.374  0.00  0.00    +0.292 HD
ENDBRANCH  34   9
ENDBRANCH  24  29
ENDBRANCH  19  12
ENDBRANCH  14  19
BRANCH  16  22
ATOM     22  C   UNL     1     -11.855 -10.772  20.177  0.00  0.00    +0.190 C 
BRANCH  22   7
ATOM      7  O   UNL     1     -11.628 -11.736  21.191  0.00  0.00    -0.392 OA
ATOM     39  H   UNL     1     -11.056 -12.424  20.811  0.00  0.00    +0.210 HD
ENDBRANCH  22   7
ENDBRANCH  16  22
TORSDOF 10
ENDMDL
MODEL 8
REMARK VINA RESULT:      -6.3      4.113      8.752
REMARK  Name = 51136976
REMARK  10 active torsions:
REMARK  status: ('A' for Active; 'I' for Inactive)
REMARK    1  A    between atoms: O_6  and  C_15
REMARK    2  A    between atoms: O_7  and  C_22
REMARK    3  A    between atoms: O_9  and  C_34
REMARK    4  A    between atoms: N_10  and  C_13
REMARK    5  A    between atoms: N_11  and  C_23
REMARK    6  A    between atoms: N_12  and  C_19
REMARK    7  A    between atoms: C_14  and  C_19
REMARK    8  A    between atoms: C_16  and  C_22
REMARK    9  A    between atoms: C_24  and  C_29
REMARK   10  A    between atoms: C_27  and  C_31
REMARK                            x       y       z     vdW  Elec       q    Type
REMARK                         _______ _______ _______ _____ _____    ______ ____
ROOT
ATOM      5  O   UNL     1     -11.008 -10.331  18.994  0.00  0.00    -0.365 OA
ATOM     13  C   UNL     1      -8.672 -10.493  18.567  0.00  0.00    +0.118 C 
ATOM     14  C   UNL     1     -10.002  -9.945  18.032  0.00  0.00    +0.155 C 
ATOM     15  C   UNL     1      -9.106 -11.675  19.420  0.00  0.00    +0.165 C 
ATOM     16  C   UNL     1     -10.392 -11.125  20.026  0.00  0.00    +0.174 C 
ENDROOT
BRANCH  13  10
ATOM     10  N   UNL     1      -7.654 -10.788  17.574  0.00  0.00    -0.292 NA
ATOM     11  N   UNL     1      -5.063 -10.654  16.378  0.00  0.00    -0.327 N 
ATOM     17  C   UNL     1      -6.512 -11.471  18.195  0.00  0.00    +0.104 C 
ATOM     18  C   UNL     1      -7.201  -9.554  16.919  0.00  0.00    +0.104 C 
ATOM     20  C   UNL     1      -5.455 -11.837  17.150  0.00  0.00    +0.120 C 
ATOM     21  C   UNL     1      -6.168  -9.856  15.831  0.00  0.00    +0.120 C 
BRANCH  11  23
ATOM     23  C   UNL     1      -3.844 -10.646  15.690  0.00  0.00    +0.030 A 
ATOM     25  C   UNL     1      -3.830 -10.618  14.296  0.00  0.00    +0.035 A 
ATOM     26  C   UNL     1      -2.643 -10.668  16.400  0.00  0.00    +0.023 A 
ATOM     27  C   UNL     1      -2.615 -10.609  13.611  0.00  0.00    +0.057 A 
ATOM     28  C   UNL     1      -1.428 -10.660  15.715  0.00  0.00    +0.002 A 
ATOM     30  C   UNL     1      -1.414 -10.631  14.319  0.00  0.00    +0.012 A 
BRANCH  27  31
ATOM      2  F   UNL     1      -1.463 -10.017  11.617  0.00  0.00    -0.166 F 
ATOM      3  F   UNL     1      -2.682 -11.816  11.546  0.00  0.00    -0.166 F 
ATOM      4  F   UNL     1      -3.632  -9.867  11.576  0.00  0.00    -0.166 F 
ATOM     31  C   UNL     1      -2.601 -10.579  12.120  0.00  0.00    +0.417 C 
ENDBRANCH  27  31
ENDBRANCH  11  23
ENDBRANCH  13  10
BRANCH  15   6
ATOM      6  O   UNL     1      -9.384 -12.819  18.624  0.00  0.00    -0.388 OA
ATOM     37  H   UNL     1      -9.230 -12.576  17.695  0.00  0.00    +0.210 HD
ENDBRANCH  15   6
BRANCH  14  19
ATOM     19  C   UNL     1     -10.456 -10.462  16.672  0.00  0.00    +0.137 C 
BRANCH  19  12
ATOM      8  O   UNL     1     -13.021  -9.223  16.315  0.00  0.00    -0.270 OA
ATOM     12  N   UNL     1     -10.767  -9.380  15.787  0.00  0.00    -0.309 N 
ATOM     24  C   UNL     1     -12.045  -8.837  15.677  0.00  0.00    +0.246 C 
ATOM     38  H   UNL     1     -10.014  -8.993  15.225  0.00  0.00    +0.149 HD
BRANCH  24  29
ATOM      1 CL   UNL     1     -11.300  -5.975  16.568  0.00  0.00    -0.083 Cl
ATOM     29  C   UNL     1     -12.210  -7.736  14.694  0.00  0.00    +0.058 A 
ATOM     32  C   UNL     1     -12.691  -8.056  13.424  0.00  0.00    +0.060 A 
ATOM     33  C   UNL     1     -11.898  -6.413  15.009  0.00  0.00    +0.053 A 
ATOM     34  C   UNL     1     -12.861  -7.053  12.470  0.00  0.00    +0.118 A 
ATOM     35  C   UNL     1     -12.068  -5.410  14.054  0.00  0.00    +0.024 A 
ATOM     36  C   UNL     1     -12.550  -5.730  12.785  0.00  0.00    +0.047 A 
BRANCH  34   9
ATOM      9  O   UNL     1     -13.331  -7.364  11.231  0.00  0.00    -0.507 OA
ATOM     40  H   UNL     1     -13.343  -6.559  10.686  0.00  0.00    +0.292 HD
ENDBRANCH  34   9
ENDBRANCH  24  29
ENDBRANCH  19  12
ENDBRANCH  14  19
BRANCH  16  22
ATOM     22  C   UNL     1     -11.383 -12.168  20.513  0.00  0.00    +0.190 C 
BRANCH  22   7
ATOM      7  O   UNL     1     -12.074 -12.700  19.395  0.00  0.00    -0.392 OA
ATOM     39  H   UNL     1     -11.958 -12.074  18.661  0.00  0.00    +0.210 HD
ENDBRANCH  22   7
ENDBRANCH  16  22
TORSDOF 10
ENDMDL
MODEL 9
REMARK VINA RESULT:      -6.3      5.102      7.729
REMARK  Name = 51136976
REMARK  10 active torsions:
REMARK  status: ('A' for Active; 'I' for Inactive)
REMARK    1  A    between atoms: O_6  and  C_15
REMARK    2  A    between atoms: O_7  and  C_22
REMARK    3  A    between atoms: O_9  and  C_34
REMARK    4  A    between atoms: N_10  and  C_13
REMARK    5  A    between atoms: N_11  and  C_23
REMARK    6  A    between atoms: N_12  and  C_19
REMARK    7  A    between atoms: C_14  and  C_19
REMARK    8  A    between atoms: C_16  and  C_22
REMARK    9  A    between atoms: C_24  and  C_29
REMARK   10  A    between atoms: C_27  and  C_31
REMARK                            x       y       z     vdW  Elec       q    Type
REMARK                         _______ _______ _______ _____ _____    ______ ____
ROOT
ATOM      5  O   UNL     1      -3.888 -12.343  15.876  0.00  0.00    -0.365 OA
ATOM     13  C   UNL     1      -5.723 -11.568  17.180  0.00  0.00    +0.118 C 
ATOM     14  C   UNL     1      -5.294 -12.581  16.110  0.00  0.00    +0.155 C 
ATOM     15  C   UNL     1      -4.725 -10.434  16.999  0.00  0.00    +0.165 C 
ATOM     16  C   UNL     1      -3.461 -11.222  16.674  0.00  0.00    +0.174 C 
ENDROOT
BRANCH  13  10
ATOM     10  N   UNL     1      -7.120 -11.171  17.165  0.00  0.00    -0.292 NA
ATOM     11  N   UNL     1      -9.655 -10.512  18.305  0.00  0.00    -0.327 N 
ATOM     17  C   UNL     1      -7.304  -9.907  17.887  0.00  0.00    +0.104 C 
ATOM     18  C   UNL     1      -7.958 -12.216  17.767  0.00  0.00    +0.104 C 
ATOM     20  C   UNL     1      -8.763  -9.448  17.832  0.00  0.00    +0.120 C 
ATOM     21  C   UNL     1      -9.439 -11.835  17.707  0.00  0.00    +0.120 C 
BRANCH  11  23
ATOM     23  C   UNL     1     -10.944 -10.192  18.745  0.00  0.00    +0.030 A 
ATOM     25  C   UNL     1     -11.922  -9.816  17.825  0.00  0.00    +0.035 A 
ATOM     26  C   UNL     1     -11.251 -10.250  20.105  0.00  0.00    +0.023 A 
ATOM     27  C   UNL     1     -13.207  -9.498  18.264  0.00  0.00    +0.057 A 
ATOM     28  C   UNL     1     -12.536  -9.931  20.544  0.00  0.00    +0.002 A 
ATOM     30  C   UNL     1     -13.515  -9.554  19.623  0.00  0.00    +0.012 A 
BRANCH  27  31
ATOM      2  F   UNL     1     -15.495  -9.009  17.838  0.00  0.00    -0.166 F 
ATOM      3  F   UNL     1     -14.024  -7.876  16.705  0.00  0.00    -0.166 F 
ATOM      4  F   UNL     1     -14.382  -9.961  16.231  0.00  0.00    -0.166 F 
ATOM     31  C   UNL     1     -14.252  -9.094  17.279  0.00  0.00    +0.417 C 
ENDBRANCH  27  31
ENDBRANCH  11  23
ENDBRANCH  13  10
BRANCH  15   6
ATOM      6  O   UNL     1      -5.081  -9.596  15.906  0.00  0.00    -0.388 OA
ATOM     37  H   UNL     1      -5.969  -9.243  16.084  0.00  0.00    +0.210 HD
ENDBRANCH  15   6
BRANCH  14  19
ATOM     19  C   UNL     1      -5.997 -12.488  14.761  0.00  0.00    +0.137 C 
BRANCH  19  12
ATOM      8  O   UNL     1      -5.537 -12.903  11.957  0.00  0.00    -0.270 OA
ATOM     12  N   UNL     1      -5.291 -11.614  13.871  0.00  0.00    -0.309 N 
ATOM     24  C   UNL     1      -5.114 -11.896  12.519  0.00  0.00    +0.246 C 
ATOM     38  H   UNL     1      -4.914 -10.751  14.251  0.00  0.00    +0.149 HD
BRANCH  24  29
ATOM      1 CL   UNL     1      -2.033 -11.982  12.725  0.00  0.00    -0.083 Cl
ATOM     29  C   UNL     1      -4.335 -10.903  11.736  0.00  0.00    +0.058 A 
ATOM     32  C   UNL     1      -5.037  -9.988  10.952  0.00  0.00    +0.060 A 
ATOM     33  C   UNL     1      -2.941 -10.868  11.768  0.00  0.00    +0.053 A 
ATOM     34  C   UNL     1      -4.346  -9.038  10.200  0.00  0.00    +0.118 A 
ATOM     35  C   UNL     1      -2.249  -9.918  11.016  0.00  0.00    +0.024 A 
ATOM     36  C   UNL     1      -2.952  -9.002  10.233  0.00  0.00    +0.047 A 
BRANCH  34   9
ATOM      9  O   UNL     1      -5.031  -8.144   9.436  0.00  0.00    -0.507 OA
ATOM     40  H   UNL     1      -5.655  -8.628   8.867  0.00  0.00    +0.292 HD
ENDBRANCH  34   9
ENDBRANCH  24  29
ENDBRANCH  19  12
ENDBRANCH  14  19
BRANCH  16  22
ATOM     22  C   UNL     1      -2.388 -10.454  15.924  0.00  0.00    +0.190 C 
BRANCH  22   7
ATOM      7  O   UNL     1      -1.119 -10.985  16.268  0.00  0.00    -0.392 OA
ATOM     39  H   UNL     1      -0.583 -10.996  15.457  0.00  0.00    +0.210 HD
ENDBRANCH  22   7
ENDBRANCH  16  22
TORSDOF 10
ENDMDL
MODEL 10
REMARK VINA RESULT:      -6.3     30.964     33.153
REMARK  Name = 51136976
REMARK  10 active torsions:
REMARK  status: ('A' for Active; 'I' for Inactive)
REMARK    1  A    between atoms: O_6  and  C_15
REMARK    2  A    between atoms: O_7  and  C_22
REMARK    3  A    between atoms: O_9  and  C_34
REMARK    4  A    between atoms: N_10  and  C_13
REMARK    5  A    between atoms: N_11  and  C_23
REMARK    6  A    between atoms: N_12  and  C_19
REMARK    7  A    between atoms: C_14  and  C_19
REMARK    8  A    between atoms: C_16  and  C_22
REMARK    9  A    between atoms: C_24  and  C_29
REMARK   10  A    between atoms: C_27  and  C_31
REMARK                            x       y       z     vdW  Elec       q    Type
REMARK                         _______ _______ _______ _____ _____    ______ ____
ROOT
ATOM      5  O   UNL     1      17.667  11.296   4.027  0.00  0.00    -0.365 OA
ATOM     13  C   UNL     1      15.696   9.983   3.795  0.00  0.00    +0.118 C 
ATOM     14  C   UNL     1      16.631  10.658   4.806  0.00  0.00    +0.155 C 
ATOM     15  C   UNL     1      16.603   9.736   2.599  0.00  0.00    +0.165 C 
ATOM     16  C   UNL     1      17.460  10.996   2.633  0.00  0.00    +0.174 C 
ENDROOT
BRANCH  13  10
ATOM     10  N   UNL     1      14.969   8.819   4.271  0.00  0.00    -0.292 NA
ATOM     11  N   UNL     1      12.653   7.281   4.930  0.00  0.00    -0.327 N 
ATOM     17  C   UNL     1      14.107   8.281   3.211  0.00  0.00    +0.104 C 
ATOM     18  C   UNL     1      14.158   9.163   5.446  0.00  0.00    +0.104 C 
ATOM     20  C   UNL     1      13.377   7.021   3.681  0.00  0.00    +0.120 C 
ATOM     21  C   UNL     1      13.431   7.932   5.991  0.00  0.00    +0.120 C 
BRANCH  11  23
ATOM     23  C   UNL     1      11.597   6.444   5.307  0.00  0.00    +0.030 A 
ATOM     25  C   UNL     1      11.178   6.407   6.637  0.00  0.00    +0.035 A 
ATOM     26  C   UNL     1      10.965   5.646   4.354  0.00  0.00    +0.023 A 
ATOM     27  C   UNL     1      10.125   5.573   7.013  0.00  0.00    +0.057 A 
ATOM     28  C   UNL     1       9.912   4.812   4.731  0.00  0.00    +0.002 A 
ATOM     30  C   UNL     1       9.492   4.775   6.061  0.00  0.00    +0.012 A 
BRANCH  27  31
ATOM      2  F   UNL     1       8.762   6.504   8.724  0.00  0.00    -0.166 F 
ATOM      3  F   UNL     1       9.088   4.355   8.792  0.00  0.00    -0.166 F 
ATOM      4  F   UNL     1      10.692   5.710   9.334  0.00  0.00    -0.166 F 
ATOM     31  C   UNL     1       9.678   5.534   8.436  0.00  0.00    +0.417 C 
ENDBRANCH  27  31
ENDBRANCH  11  23
ENDBRANCH  13  10
BRANCH  15   6
ATOM      6  O   UNL     1      17.412   8.582   2.788  0.00  0.00    -0.388 OA
ATOM     37  H   UNL     1      17.160   8.183   3.637  0.00  0.00    +0.210 HD
ENDBRANCH  15   6
BRANCH  14  19
ATOM     19  C   UNL     1      17.322   9.745   5.813  0.00  0.00    +0.137 C 
BRANCH  19  12
ATOM      8  O   UNL     1      19.348   8.399   7.338  0.00  0.00    -0.270 OA
ATOM     12  N   UNL     1      18.630   9.375   5.360  0.00  0.00    -0.309 N 
ATOM     24  C   UNL     1      19.553   8.722   6.171  0.00  0.00    +0.246 C 
ATOM     38  H   UNL     1      18.881   9.597   4.401  0.00  0.00    +0.149 HD
BRANCH  24  29
ATOM      1 CL   UNL     1      21.735  10.902   6.334  0.00  0.00    -0.083 Cl
ATOM     29  C   UNL     1      20.876   8.431   5.561  0.00  0.00    +0.058 A 
ATOM     32  C   UNL     1      21.059   7.191   4.950  0.00  0.00    +0.060 A 
ATOM     33  C   UNL     1      21.920   9.356   5.588  0.00  0.00    +0.053 A 
ATOM     34  C   UNL     1      22.285   6.876   4.365  0.00  0.00    +0.118 A 
ATOM     35  C   UNL     1      23.146   9.041   5.003  0.00  0.00    +0.024 A 
ATOM     36  C   UNL     1      23.329   7.801   4.391  0.00  0.00    +0.047 A 
BRANCH  34   9
ATOM      9  O   UNL     1      22.464   5.666   3.768  0.00  0.00    -0.507 OA
ATOM     40  H   UNL     1      21.657   5.135   3.882  0.00  0.00    +0.292 HD
ENDBRANCH  34   9
ENDBRANCH  24  29
ENDBRANCH  19  12
ENDBRANCH  14  19
BRANCH  16  22
ATOM     22  C   UNL     1      18.806  10.889   1.939  0.00  0.00    +0.190 C 
BRANCH  22   7
ATOM      7  O   UNL     1      19.737  10.299   2.831  0.00  0.00    -0.392 OA
ATOM     39  H   UNL     1      20.341   9.756   2.297  0.00  0.00    +0.210 HD
ENDBRANCH  22   7
ENDBRANCH  16  22
TORSDOF 10
ENDMDL
