MODEL 1
REMARK VINA RESULT:      -8.1      0.000      0.000
REMARK  Name = 26744678
REMARK  7 active torsions:
REMARK  status: ('A' for Active; 'I' for Inactive)
REMARK    1  A    between atoms: O_3  and  C_12
REMARK    2  A    between atoms: O_4  and  C_13
REMARK    3  A    between atoms: N_9  and  C_16
REMARK    4  A    between atoms: C_11  and  C_15
REMARK    5  A    between atoms: C_14  and  C_16
REMARK    6  A    between atoms: C_15  and  C_17
REMARK    7  A    between atoms: C_23  and  C_25
REMARK                            x       y       z     vdW  Elec       q    Type
REMARK                         _______ _______ _______ _____ _____    ______ ____
ROOT
ATOM      2  O   UNL     1      13.519   9.169  19.835  0.00  0.00    -0.366 OA
ATOM     11  C   UNL     1      14.664   8.416  19.375  0.00  0.00    +0.159 C 
ATOM     12  C   UNL     1      14.173   7.544  18.225  0.00  0.00    +0.175 C 
ATOM     13  C   UNL     1      12.717   7.335  18.588  0.00  0.00    +0.176 C 
ATOM     14  C   UNL     1      12.345   8.696  19.151  0.00  0.00    +0.167 C 
ENDROOT
BRANCH  12   3
ATOM      3  O   UNL     1      14.278   8.302  17.019  0.00  0.00    -0.387 OA
ATOM     34  H   UNL     1      14.357   9.238  17.270  0.00  0.00    +0.210 HD
ENDBRANCH  12   3
BRANCH  13   4
ATOM      4  O   UNL     1      11.912   6.978  17.486  0.00  0.00    -0.387 OA
ATOM     35  H   UNL     1      11.403   6.190  17.738  0.00  0.00    +0.210 HD
ENDBRANCH  13   4
BRANCH  11  15
ATOM     15  C   UNL     1      15.194   7.608  20.552  0.00  0.00    +0.130 C 
BRANCH  15  17
ATOM      5  O   UNL     1      16.179   9.451  21.678  0.00  0.00    -0.276 OA
ATOM      7  N   UNL     1      17.576   7.662  21.185  0.00  0.00    -0.298 N 
ATOM      8  N   UNL     1      20.109   6.279  21.419  0.00  0.00    -0.312 N 
ATOM     10  N   UNL     1      21.960   5.181  20.447  0.00  0.00    -0.240 NA
ATOM     17  C   UNL     1      16.352   8.331  21.193  0.00  0.00    +0.218 C 
ATOM     18  C   UNL     1      18.749   8.298  21.782  0.00  0.00    +0.126 C 
ATOM     19  C   UNL     1      17.779   6.327  20.618  0.00  0.00    +0.126 C 
ATOM     20  C   UNL     1      19.696   7.277  22.408  0.00  0.00    +0.125 C 
ATOM     21  C   UNL     1      19.239   6.049  20.263  0.00  0.00    +0.125 C 
ATOM     22  C   UNL     1      21.313   5.593  21.560  0.00  0.00    +0.121 A 
ATOM     24  C   UNL     1      21.773   5.377  22.850  0.00  0.00    +0.043 A 
ATOM     26  C   UNL     1      22.974   4.695  23.007  0.00  0.00    +0.005 A 
ATOM     27  C   UNL     1      23.125   4.521  20.639  0.00  0.00    +0.113 A 
ATOM     28  C   UNL     1      23.668   4.255  21.885  0.00  0.00    +0.020 A 
ENDBRANCH  15  17
ENDBRANCH  11  15
BRANCH  14  16
ATOM     16  C   UNL     1      11.174   8.648  20.117  0.00  0.00    +0.138 C 
BRANCH  16   9
ATOM      6  O   UNL     1      10.938   8.657  22.979  0.00  0.00    -0.270 OA
ATOM      9  N   UNL     1      11.161   9.799  20.971  0.00  0.00    -0.309 N 
ATOM     23  C   UNL     1      11.043   9.711  22.356  0.00  0.00    +0.244 C 
ATOM     36  H   UNL     1      11.298  10.700  20.527  0.00  0.00    +0.149 HD
BRANCH  23  25
ATOM      1  F   UNL     1      10.994  14.573  22.419  0.00  0.00    -0.205 F 
ATOM     25  C   UNL     1      11.019  10.998  23.097  0.00  0.00    +0.039 A 
ATOM     29  C   UNL     1      11.018  12.205  22.396  0.00  0.00    +0.051 A 
ATOM     30  C   UNL     1      10.999  11.001  24.491  0.00  0.00    +0.013 A 
ATOM     31  C   UNL     1      10.996  13.414  23.092  0.00  0.00    +0.124 A 
ATOM     32  C   UNL     1      10.976  12.210  25.186  0.00  0.00    +0.004 A 
ATOM     33  C   UNL     1      10.975  13.417  24.486  0.00  0.00    +0.038 A 
ENDBRANCH  23  25
ENDBRANCH  16   9
ENDBRANCH  14  16
TORSDOF 7
ENDMDL
MODEL 2
REMARK VINA RESULT:      -7.8     31.062     32.869
REMARK  Name = 26744678
REMARK  7 active torsions:
REMARK  status: ('A' for Active; 'I' for Inactive)
REMARK    1  A    between atoms: O_3  and  C_12
REMARK    2  A    between atoms: O_4  and  C_13
REMARK    3  A    between atoms: N_9  and  C_16
REMARK    4  A    between atoms: C_11  and  C_15
REMARK    5  A    between atoms: C_14  and  C_16
REMARK    6  A    between atoms: C_15  and  C_17
REMARK    7  A    between atoms: C_23  and  C_25
REMARK                            x       y       z     vdW  Elec       q    Type
REMARK                         _______ _______ _______ _____ _____    ______ ____
ROOT
ATOM      2  O   UNL     1     -15.708   1.347  31.447  0.00  0.00    -0.366 OA
ATOM     11  C   UNL     1     -15.421   1.308  30.031  0.00  0.00    +0.159 C 
ATOM     12  C   UNL     1     -14.025   1.897  29.858  0.00  0.00    +0.175 C 
ATOM     13  C   UNL     1     -13.937   2.849  31.033  0.00  0.00    +0.176 C 
ATOM     14  C   UNL     1     -14.654   2.062  32.117  0.00  0.00    +0.167 C 
ENDROOT
BRANCH  12   3
ATOM      3  O   UNL     1     -13.077   0.839  30.006  0.00  0.00    -0.387 OA
ATOM     34  H   UNL     1     -12.513   0.842  29.214  0.00  0.00    +0.210 HD
ENDBRANCH  12   3
BRANCH  13   4
ATOM      4  O   UNL     1     -12.611   3.167  31.397  0.00  0.00    -0.387 OA
ATOM     35  H   UNL     1     -12.045   2.432  31.112  0.00  0.00    +0.210 HD
ENDBRANCH  13   4
BRANCH  11  15
ATOM     15  C   UNL     1     -16.499   2.110  29.314  0.00  0.00    +0.130 C 
BRANCH  15  17
ATOM      5  O   UNL     1     -17.451   0.241  28.201  0.00  0.00    -0.276 OA
ATOM      7  N   UNL     1     -16.788   2.024  26.866  0.00  0.00    -0.298 N 
ATOM      8  N   UNL     1     -16.678   3.380  24.310  0.00  0.00    -0.312 N 
ATOM     10  N   UNL     1     -15.468   4.473  22.603  0.00  0.00    -0.240 NA
ATOM     17  C   UNL     1     -16.960   1.366  28.085  0.00  0.00    +0.218 C 
ATOM     18  C   UNL     1     -17.205   1.369  25.629  0.00  0.00    +0.126 C 
ATOM     19  C   UNL     1     -16.214   3.365  26.731  0.00  0.00    +0.126 C 
ATOM     20  C   UNL     1     -17.704   2.371  24.591  0.00  0.00    +0.125 C 
ATOM     21  C   UNL     1     -15.660   3.634  25.333  0.00  0.00    +0.125 C 
ATOM     22  C   UNL     1     -16.656   4.052  23.091  0.00  0.00    +0.121 A 
ATOM     24  C   UNL     1     -17.870   4.245  22.451  0.00  0.00    +0.043 A 
ATOM     26  C   UNL     1     -17.864   4.914  21.232  0.00  0.00    +0.005 A 
ATOM     27  C   UNL     1     -15.501   5.119  21.415  0.00  0.00    +0.113 A 
ATOM     28  C   UNL     1     -16.661   5.362  20.698  0.00  0.00    +0.020 A 
ENDBRANCH  15  17
ENDBRANCH  11  15
BRANCH  14  16
ATOM     16  C   UNL     1     -15.244   2.939  33.208  0.00  0.00    +0.138 C 
BRANCH  16   9
ATOM      6  O   UNL     1     -14.329   4.447  35.474  0.00  0.00    -0.270 OA
ATOM      9  N   UNL     1     -14.667   4.250  33.186  0.00  0.00    -0.309 N 
ATOM     23  C   UNL     1     -14.248   4.910  34.339  0.00  0.00    +0.244 C 
ATOM     36  H   UNL     1     -14.520   4.670  32.275  0.00  0.00    +0.149 HD
BRANCH  23  25
ATOM      1  F   UNL     1     -12.910   8.586  31.451  0.00  0.00    -0.205 F 
ATOM     25  C   UNL     1     -13.695   6.275  34.150  0.00  0.00    +0.039 A 
ATOM     29  C   UNL     1     -13.559   6.800  32.864  0.00  0.00    +0.051 A 
ATOM     30  C   UNL     1     -13.310   7.032  35.256  0.00  0.00    +0.013 A 
ATOM     31  C   UNL     1     -13.039   8.083  32.686  0.00  0.00    +0.124 A 
ATOM     32  C   UNL     1     -12.791   8.315  35.077  0.00  0.00    +0.004 A 
ATOM     33  C   UNL     1     -12.656   8.839  33.793  0.00  0.00    +0.038 A 
ENDBRANCH  23  25
ENDBRANCH  16   9
ENDBRANCH  14  16
TORSDOF 7
ENDMDL
MODEL 3
REMARK VINA RESULT:      -7.7     27.508     30.963
REMARK  Name = 26744678
REMARK  7 active torsions:
REMARK  status: ('A' for Active; 'I' for Inactive)
REMARK    1  A    between atoms: O_3  and  C_12
REMARK    2  A    between atoms: O_4  and  C_13
REMARK    3  A    between atoms: N_9  and  C_16
REMARK    4  A    between atoms: C_11  and  C_15
REMARK    5  A    between atoms: C_14  and  C_16
REMARK    6  A    between atoms: C_15  and  C_17
REMARK    7  A    between atoms: C_23  and  C_25
REMARK                            x       y       z     vdW  Elec       q    Type
REMARK                         _______ _______ _______ _____ _____    ______ ____
ROOT
ATOM      2  O   UNL     1      -3.706 -10.432  16.607  0.00  0.00    -0.366 OA
ATOM     11  C   UNL     1      -5.007 -11.007  16.865  0.00  0.00    +0.159 C 
ATOM     12  C   UNL     1      -4.915 -12.476  16.466  0.00  0.00    +0.175 C 
ATOM     13  C   UNL     1      -3.856 -12.442  15.384  0.00  0.00    +0.176 C 
ATOM     14  C   UNL     1      -2.890 -11.407  15.934  0.00  0.00    +0.167 C 
ENDROOT
BRANCH  12   3
ATOM      3  O   UNL     1      -4.445 -13.213  17.595  0.00  0.00    -0.387 OA
ATOM     34  H   UNL     1      -3.707 -13.769  17.292  0.00  0.00    +0.210 HD
ENDBRANCH  12   3
BRANCH  13   4
ATOM      4  O   UNL     1      -3.233 -13.690  15.172  0.00  0.00    -0.387 OA
ATOM     35  H   UNL     1      -2.406 -13.695  15.682  0.00  0.00    +0.210 HD
ENDBRANCH  13   4
BRANCH  11  15
ATOM     15  C   UNL     1      -6.031 -10.230  16.049  0.00  0.00    +0.130 C 
BRANCH  15  17
ATOM      5  O   UNL     1      -6.921  -9.670  18.178  0.00  0.00    -0.276 OA
ATOM      7  N   UNL     1      -8.254  -9.202  16.334  0.00  0.00    -0.298 N 
ATOM      8  N   UNL     1     -10.596  -7.992  15.135  0.00  0.00    -0.312 N 
ATOM     10  N   UNL     1     -12.511  -8.120  13.760  0.00  0.00    -0.240 NA
ATOM     17  C   UNL     1      -7.100  -9.677  16.958  0.00  0.00    +0.218 C 
ATOM     18  C   UNL     1      -9.339  -8.654  17.146  0.00  0.00    +0.126 C 
ATOM     19  C   UNL     1      -8.462  -9.200  14.884  0.00  0.00    +0.126 C 
ATOM     20  C   UNL     1     -10.080  -7.530  16.426  0.00  0.00    +0.125 C 
ATOM     21  C   UNL     1      -9.939  -9.137  14.497  0.00  0.00    +0.125 C 
ATOM     22  C   UNL     1     -11.701  -7.380  14.550  0.00  0.00    +0.121 A 
ATOM     24  C   UNL     1     -11.899  -6.036  14.822  0.00  0.00    +0.043 A 
ATOM     26  C   UNL     1     -13.000  -5.410  14.246  0.00  0.00    +0.005 A 
ATOM     27  C   UNL     1     -13.571  -7.478  13.218  0.00  0.00    +0.113 A 
ATOM     28  C   UNL     1     -13.856  -6.139  13.427  0.00  0.00    +0.020 A 
ENDBRANCH  15  17
ENDBRANCH  11  15
BRANCH  14  16
ATOM     16  C   UNL     1      -2.060 -10.725  14.860  0.00  0.00    +0.138 C 
BRANCH  16   9
ATOM      6  O   UNL     1      -1.843 -11.283  12.052  0.00  0.00    -0.270 OA
ATOM      9  N   UNL     1      -2.892 -10.203  13.817  0.00  0.00    -0.309 N 
ATOM     23  C   UNL     1      -2.715 -10.528  12.475  0.00  0.00    +0.244 C 
ATOM     36  H   UNL     1      -3.667  -9.614  14.103  0.00  0.00    +0.149 HD
BRANCH  23  25
ATOM      1  F   UNL     1      -7.116  -8.809  11.328  0.00  0.00    -0.205 F 
ATOM     25  C   UNL     1      -3.644  -9.881  11.514  0.00  0.00    +0.039 A 
ATOM     29  C   UNL     1      -4.970  -9.644  11.879  0.00  0.00    +0.051 A 
ATOM     30  C   UNL     1      -3.193  -9.512  10.247  0.00  0.00    +0.013 A 
ATOM     31  C   UNL     1      -5.844  -9.037  10.976  0.00  0.00    +0.124 A 
ATOM     32  C   UNL     1      -4.067  -8.904   9.345  0.00  0.00    +0.004 A 
ATOM     33  C   UNL     1      -5.392  -8.667   9.710  0.00  0.00    +0.038 A 
ENDBRANCH  23  25
ENDBRANCH  16   9
ENDBRANCH  14  16
TORSDOF 7
ENDMDL
MODEL 4
REMARK VINA RESULT:      -7.7     28.587     32.208
REMARK  Name = 26744678
REMARK  7 active torsions:
REMARK  status: ('A' for Active; 'I' for Inactive)
REMARK    1  A    between atoms: O_3  and  C_12
REMARK    2  A    between atoms: O_4  and  C_13
REMARK    3  A    between atoms: N_9  and  C_16
REMARK    4  A    between atoms: C_11  and  C_15
REMARK    5  A    between atoms: C_14  and  C_16
REMARK    6  A    between atoms: C_15  and  C_17
REMARK    7  A    between atoms: C_23  and  C_25
REMARK                            x       y       z     vdW  Elec       q    Type
REMARK                         _______ _______ _______ _____ _____    ______ ____
ROOT
ATOM      2  O   UNL     1     -16.342   2.436  24.202  0.00  0.00    -0.366 OA
ATOM     11  C   UNL     1     -17.695   1.984  23.967  0.00  0.00    +0.159 C 
ATOM     12  C   UNL     1     -18.229   2.810  22.802  0.00  0.00    +0.175 C 
ATOM     13  C   UNL     1     -17.446   4.099  22.945  0.00  0.00    +0.176 C 
ATOM     14  C   UNL     1     -16.082   3.581  23.370  0.00  0.00    +0.167 C 
ENDROOT
BRANCH  12   3
ATOM      3  O   UNL     1     -17.873   2.147  21.588  0.00  0.00    -0.387 OA
ATOM     34  H   UNL     1     -17.576   1.251  21.823  0.00  0.00    +0.210 HD
ENDBRANCH  12   3
BRANCH  13   4
ATOM      4  O   UNL     1     -17.381   4.849  21.752  0.00  0.00    -0.387 OA
ATOM     35  H   UNL     1     -18.058   4.500  21.149  0.00  0.00    +0.210 HD
ENDBRANCH  13   4
BRANCH  11  15
ATOM     15  C   UNL     1     -18.484   2.185  25.253  0.00  0.00    +0.130 C 
BRANCH  15  17
ATOM      5  O   UNL     1     -18.179   0.021  26.181  0.00  0.00    -0.276 OA
ATOM      7  N   UNL     1     -17.340   1.809  27.405  0.00  0.00    -0.298 N 
ATOM      8  N   UNL     1     -15.790   2.874  29.606  0.00  0.00    -0.312 N 
ATOM     10  N   UNL     1     -15.564   4.304  31.472  0.00  0.00    -0.240 NA
ATOM     17  C   UNL     1     -17.990   1.232  26.314  0.00  0.00    +0.218 C 
ATOM     18  C   UNL     1     -16.838   0.953  28.478  0.00  0.00    +0.126 C 
ATOM     19  C   UNL     1     -17.108   3.247  27.557  0.00  0.00    +0.126 C 
ATOM     20  C   UNL     1     -15.565   1.515  29.107  0.00  0.00    +0.125 C 
ATOM     21  C   UNL     1     -16.874   3.659  29.010  0.00  0.00    +0.125 C 
ATOM     22  C   UNL     1     -15.014   3.390  30.641  0.00  0.00    +0.121 A 
ATOM     24  C   UNL     1     -13.713   2.924  30.752  0.00  0.00    +0.043 A 
ATOM     26  C   UNL     1     -12.927   3.429  31.781  0.00  0.00    +0.005 A 
ATOM     27  C   UNL     1     -14.769   4.772  32.461  0.00  0.00    +0.113 A 
ATOM     28  C   UNL     1     -13.458   4.371  32.655  0.00  0.00    +0.020 A 
ENDBRANCH  15  17
ENDBRANCH  11  15
BRANCH  14  16
ATOM     16  C   UNL     1     -15.265   4.601  24.144  0.00  0.00    +0.138 C 
BRANCH  16   9
ATOM      6  O   UNL     1     -15.627   7.149  22.872  0.00  0.00    -0.270 OA
ATOM      9  N   UNL     1     -14.330   5.271  23.290  0.00  0.00    -0.309 N 
ATOM     23  C   UNL     1     -14.589   6.512  22.712  0.00  0.00    +0.244 C 
ATOM     36  H   UNL     1     -13.429   4.824  23.158  0.00  0.00    +0.149 HD
BRANCH  23  25
ATOM      1  F   UNL     1     -12.399  10.267  20.534  0.00  0.00    -0.205 F 
ATOM     25  C   UNL     1     -13.528   7.060  21.830  0.00  0.00    +0.039 A 
ATOM     29  C   UNL     1     -13.460   8.433  21.591  0.00  0.00    +0.051 A 
ATOM     30  C   UNL     1     -12.600   6.203  21.238  0.00  0.00    +0.013 A 
ATOM     31  C   UNL     1     -12.463   8.948  20.762  0.00  0.00    +0.124 A 
ATOM     32  C   UNL     1     -11.604   6.719  20.410  0.00  0.00    +0.004 A 
ATOM     33  C   UNL     1     -11.536   8.091  20.172  0.00  0.00    +0.038 A 
ENDBRANCH  23  25
ENDBRANCH  16   9
ENDBRANCH  14  16
TORSDOF 7
ENDMDL
MODEL 5
REMARK VINA RESULT:      -7.7     27.136     31.582
REMARK  Name = 26744678
REMARK  7 active torsions:
REMARK  status: ('A' for Active; 'I' for Inactive)
REMARK    1  A    between atoms: O_3  and  C_12
REMARK    2  A    between atoms: O_4  and  C_13
REMARK    3  A    between atoms: N_9  and  C_16
REMARK    4  A    between atoms: C_11  and  C_15
REMARK    5  A    between atoms: C_14  and  C_16
REMARK    6  A    between atoms: C_15  and  C_17
REMARK    7  A    between atoms: C_23  and  C_25
REMARK                            x       y       z     vdW  Elec       q    Type
REMARK                         _______ _______ _______ _____ _____    ______ ____
ROOT
ATOM      2  O   UNL     1     -15.267   4.214  22.418  0.00  0.00    -0.366 OA
ATOM     11  C   UNL     1     -16.711   4.239  22.373  0.00  0.00    +0.159 C 
ATOM     12  C   UNL     1     -17.090   5.227  21.276  0.00  0.00    +0.175 C 
ATOM     13  C   UNL     1     -15.914   6.181  21.290  0.00  0.00    +0.176 C 
ATOM     14  C   UNL     1     -14.754   5.231  21.539  0.00  0.00    +0.167 C 
ENDROOT
BRANCH  12   3
ATOM      3  O   UNL     1     -17.136   4.517  20.037  0.00  0.00    -0.387 OA
ATOM     34  H   UNL     1     -16.903   5.146  19.333  0.00  0.00    +0.210 HD
ENDBRANCH  12   3
BRANCH  13   4
ATOM      4  O   UNL     1     -15.762   6.900  20.086  0.00  0.00    -0.387 OA
ATOM     35  H   UNL     1     -15.587   7.827  20.318  0.00  0.00    +0.210 HD
ENDBRANCH  13   4
BRANCH  11  15
ATOM     15  C   UNL     1     -17.213   4.655  23.749  0.00  0.00    +0.130 C 
BRANCH  15  17
ATOM      5  O   UNL     1     -18.800   2.892  23.853  0.00  0.00    -0.276 OA
ATOM      7  N   UNL     1     -17.409   3.153  25.696  0.00  0.00    -0.298 N 
ATOM      8  N   UNL     1     -16.360   2.240  28.235  0.00  0.00    -0.312 N 
ATOM     10  N   UNL     1     -15.818   2.619  30.502  0.00  0.00    -0.240 NA
ATOM     17  C   UNL     1     -17.885   3.485  24.427  0.00  0.00    +0.218 C 
ATOM     18  C   UNL     1     -18.010   2.035  26.420  0.00  0.00    +0.126 C 
ATOM     19  C   UNL     1     -16.314   3.853  26.372  0.00  0.00    +0.126 C 
ATOM     20  C   UNL     1     -16.993   1.310  27.297  0.00  0.00    +0.125 C 
ATOM     21  C   UNL     1     -16.337   3.664  27.888  0.00  0.00    +0.125 C 
ATOM     22  C   UNL     1     -15.827   1.785  29.438  0.00  0.00    +0.121 A 
ATOM     24  C   UNL     1     -15.336   0.489  29.464  0.00  0.00    +0.043 A 
ATOM     26  C   UNL     1     -14.801   0.020  30.659  0.00  0.00    +0.005 A 
ATOM     27  C   UNL     1     -15.290   2.128  31.646  0.00  0.00    +0.113 A 
ATOM     28  C   UNL     1     -14.774   0.850  31.775  0.00  0.00    +0.020 A 
ENDBRANCH  15  17
ENDBRANCH  11  15
BRANCH  14  16
ATOM     16  C   UNL     1     -13.552   5.902  22.180  0.00  0.00    +0.138 C 
BRANCH  16   9
ATOM      6  O   UNL     1     -13.197   8.725  21.788  0.00  0.00    -0.270 OA
ATOM      9  N   UNL     1     -12.725   6.532  21.193  0.00  0.00    -0.309 N 
ATOM     23  C   UNL     1     -12.611   7.915  21.074  0.00  0.00    +0.244 C 
ATOM     36  H   UNL     1     -12.170   5.921  20.604  0.00  0.00    +0.149 HD
BRANCH  23  25
ATOM      1  F   UNL     1     -10.357   7.269  16.814  0.00  0.00    -0.205 F 
ATOM     25  C   UNL     1     -11.733   8.410  19.983  0.00  0.00    +0.039 A 
ATOM     29  C   UNL     1     -11.451   7.591  18.889  0.00  0.00    +0.051 A 
ATOM     30  C   UNL     1     -11.190   9.693  20.052  0.00  0.00    +0.013 A 
ATOM     31  C   UNL     1     -10.627   8.056  17.865  0.00  0.00    +0.124 A 
ATOM     32  C   UNL     1     -10.366  10.157  19.027  0.00  0.00    +0.004 A 
ATOM     33  C   UNL     1     -10.085   9.338  17.934  0.00  0.00    +0.038 A 
ENDBRANCH  23  25
ENDBRANCH  16   9
ENDBRANCH  14  16
TORSDOF 7
ENDMDL
MODEL 6
REMARK VINA RESULT:      -7.6     27.622     30.886
REMARK  Name = 26744678
REMARK  7 active torsions:
REMARK  status: ('A' for Active; 'I' for Inactive)
REMARK    1  A    between atoms: O_3  and  C_12
REMARK    2  A    between atoms: O_4  and  C_13
REMARK    3  A    between atoms: N_9  and  C_16
REMARK    4  A    between atoms: C_11  and  C_15
REMARK    5  A    between atoms: C_14  and  C_16
REMARK    6  A    between atoms: C_15  and  C_17
REMARK    7  A    between atoms: C_23  and  C_25
REMARK                            x       y       z     vdW  Elec       q    Type
REMARK                         _______ _______ _______ _____ _____    ______ ____
ROOT
ATOM      2  O   UNL     1      -3.666 -11.469  18.150  0.00  0.00    -0.366 OA
ATOM     11  C   UNL     1      -5.015 -11.800  18.554  0.00  0.00    +0.159 C 
ATOM     12  C   UNL     1      -5.661 -12.501  17.365  0.00  0.00    +0.175 C 
ATOM     13  C   UNL     1      -4.919 -11.888  16.196  0.00  0.00    +0.176 C 
ATOM     14  C   UNL     1      -3.510 -11.778  16.753  0.00  0.00    +0.167 C 
ENDROOT
BRANCH  12   3
ATOM      3  O   UNL     1      -5.368 -13.896  17.460  0.00  0.00    -0.387 OA
ATOM     34  H   UNL     1      -5.601 -14.300  16.607  0.00  0.00    +0.210 HD
ENDBRANCH  12   3
BRANCH  13   4
ATOM      4  O   UNL     1      -4.968 -12.676  15.026  0.00  0.00    -0.387 OA
ATOM     35  H   UNL     1      -4.931 -13.608  15.300  0.00  0.00    +0.210 HD
ENDBRANCH  13   4
BRANCH  11  15
ATOM     15  C   UNL     1      -5.717 -10.504  18.937  0.00  0.00    +0.130 C 
BRANCH  15  17
ATOM      5  O   UNL     1      -7.521 -11.470  20.140  0.00  0.00    -0.276 OA
ATOM      7  N   UNL     1      -8.074 -10.182  18.288  0.00  0.00    -0.298 N 
ATOM      8  N   UNL     1     -10.023  -8.842  16.617  0.00  0.00    -0.312 N 
ATOM     10  N   UNL     1     -10.962  -8.387  14.499  0.00  0.00    -0.240 NA
ATOM     17  C   UNL     1      -7.182 -10.767  19.186  0.00  0.00    +0.218 C 
ATOM     18  C   UNL     1      -9.510 -10.393  18.458  0.00  0.00    +0.126 C 
ATOM     19  C   UNL     1      -7.670  -9.338  17.160  0.00  0.00    +0.126 C 
ATOM     20  C   UNL     1     -10.323  -9.182  18.010  0.00  0.00    +0.125 C 
ATOM     21  C   UNL     1      -8.733  -9.265  16.065  0.00  0.00    +0.125 C 
ATOM     22  C   UNL     1     -10.953  -8.165  15.832  0.00  0.00    +0.121 A 
ATOM     24  C   UNL     1     -11.820  -7.300  16.481  0.00  0.00    +0.043 A 
ATOM     26  C   UNL     1     -12.755  -6.617  15.711  0.00  0.00    +0.005 A 
ATOM     27  C   UNL     1     -11.886  -7.706  13.783  0.00  0.00    +0.113 A 
ATOM     28  C   UNL     1     -12.795  -6.819  14.336  0.00  0.00    +0.020 A 
ENDBRANCH  15  17
ENDBRANCH  11  15
BRANCH  14  16
ATOM     16  C   UNL     1      -2.679 -10.699  16.081  0.00  0.00    +0.138 C 
BRANCH  16   9
ATOM      6  O   UNL     1      -1.641 -11.434  13.506  0.00  0.00    -0.270 OA
ATOM      9  N   UNL     1      -3.225 -10.344  14.805  0.00  0.00    -0.309 N 
ATOM     23  C   UNL     1      -2.655 -10.746  13.600  0.00  0.00    +0.244 C 
ATOM     36  H   UNL     1      -4.094  -9.821  14.809  0.00  0.00    +0.149 HD
BRANCH  23  25
ATOM      1  F   UNL     1      -6.690  -9.675  11.107  0.00  0.00    -0.205 F 
ATOM     25  C   UNL     1      -3.328 -10.272  12.364  0.00  0.00    +0.039 A 
ATOM     29  C   UNL     1      -4.720 -10.195  12.315  0.00  0.00    +0.051 A 
ATOM     30  C   UNL     1      -2.569  -9.907  11.252  0.00  0.00    +0.013 A 
ATOM     31  C   UNL     1      -5.353  -9.750  11.153  0.00  0.00    +0.124 A 
ATOM     32  C   UNL     1      -3.203  -9.461  10.092  0.00  0.00    +0.004 A 
ATOM     33  C   UNL     1      -4.594  -9.383  10.042  0.00  0.00    +0.038 A 
ENDBRANCH  23  25
ENDBRANCH  16   9
ENDBRANCH  14  16
TORSDOF 7
ENDMDL
MODEL 7
REMARK VINA RESULT:      -7.6      1.616      2.070
REMARK  Name = 26744678
REMARK  7 active torsions:
REMARK  status: ('A' for Active; 'I' for Inactive)
REMARK    1  A    between atoms: O_3  and  C_12
REMARK    2  A    between atoms: O_4  and  C_13
REMARK    3  A    between atoms: N_9  and  C_16
REMARK    4  A    between atoms: C_11  and  C_15
REMARK    5  A    between atoms: C_14  and  C_16
REMARK    6  A    between atoms: C_15  and  C_17
REMARK    7  A    between atoms: C_23  and  C_25
REMARK                            x       y       z     vdW  Elec       q    Type
REMARK                         _______ _______ _______ _____ _____    ______ ____
ROOT
ATOM      2  O   UNL     1      12.563   8.861  21.270  0.00  0.00    -0.366 OA
ATOM     11  C   UNL     1      13.563   7.892  20.881  0.00  0.00    +0.159 C 
ATOM     12  C   UNL     1      12.832   6.565  20.712  0.00  0.00    +0.175 C 
ATOM     13  C   UNL     1      11.679   6.714  21.682  0.00  0.00    +0.176 C 
ATOM     14  C   UNL     1      11.318   8.179  21.503  0.00  0.00    +0.167 C 
ENDROOT
BRANCH  12   3
ATOM      3  O   UNL     1      12.346   6.494  19.371  0.00  0.00    -0.387 OA
ATOM     34  H   UNL     1      13.084   6.204  18.809  0.00  0.00    +0.210 HD
ENDBRANCH  12   3
BRANCH  13   4
ATOM      4  O   UNL     1      10.592   5.861  21.395  0.00  0.00    -0.387 OA
ATOM     35  H   UNL     1      10.785   4.997  21.794  0.00  0.00    +0.210 HD
ENDBRANCH  13   4
BRANCH  11  15
ATOM     15  C   UNL     1      14.625   7.854  21.971  0.00  0.00    +0.130 C 
BRANCH  15  17
ATOM      5  O   UNL     1      15.518  10.004  21.508  0.00  0.00    -0.276 OA
ATOM      7  N   UNL     1      17.009   8.222  21.455  0.00  0.00    -0.298 N 
ATOM      8  N   UNL     1      19.700   7.167  21.291  0.00  0.00    -0.312 N 
ATOM     10  N   UNL     1      21.288   5.701  20.341  0.00  0.00    -0.240 NA
ATOM     17  C   UNL     1      15.750   8.799  21.626  0.00  0.00    +0.218 C 
ATOM     18  C   UNL     1      18.149   9.070  21.115  0.00  0.00    +0.126 C 
ATOM     19  C   UNL     1      17.284   6.792  21.606  0.00  0.00    +0.126 C 
ATOM     20  C   UNL     1      19.450   8.546  21.717  0.00  0.00    +0.125 C 
ATOM     21  C   UNL     1      18.553   6.353  20.877  0.00  0.00    +0.125 C 
ATOM     22  C   UNL     1      20.995   6.657  21.250  0.00  0.00    +0.121 A 
ATOM     24  C   UNL     1      21.908   7.174  22.155  0.00  0.00    +0.043 A 
ATOM     26  C   UNL     1      23.206   6.676  22.126  0.00  0.00    +0.005 A 
ATOM     27  C   UNL     1      22.560   5.241  20.342  0.00  0.00    +0.113 A 
ATOM     28  C   UNL     1      23.546   5.691  21.205  0.00  0.00    +0.020 A 
ENDBRANCH  15  17
ENDBRANCH  11  15
BRANCH  14  16
ATOM     16  C   UNL     1      10.623   8.781  22.711  0.00  0.00    +0.138 C 
BRANCH  16   9
ATOM      6  O   UNL     1      11.159  10.702  24.777  0.00  0.00    -0.270 OA
ATOM      9  N   UNL     1      10.531  10.206  22.599  0.00  0.00    -0.309 N 
ATOM     23  C   UNL     1      10.811  11.068  23.657  0.00  0.00    +0.244 C 
ATOM     36  H   UNL     1      10.300  10.579  21.684  0.00  0.00    +0.149 HD
BRANCH  23  25
ATOM      1  F   UNL     1      10.814  14.842  20.591  0.00  0.00    -0.205 F 
ATOM     25  C   UNL     1      10.642  12.518  23.386  0.00  0.00    +0.039 A 
ATOM     29  C   UNL     1      10.811  13.009  22.090  0.00  0.00    +0.051 A 
ATOM     30  C   UNL     1      10.317  13.389  24.425  0.00  0.00    +0.013 A 
ATOM     31  C   UNL     1      10.652  14.372  21.835  0.00  0.00    +0.124 A 
ATOM     32  C   UNL     1      10.158  14.751  24.169  0.00  0.00    +0.004 A 
ATOM     33  C   UNL     1      10.326  15.242  22.874  0.00  0.00    +0.038 A 
ENDBRANCH  23  25
ENDBRANCH  16   9
ENDBRANCH  14  16
TORSDOF 7
ENDMDL
MODEL 8
REMARK VINA RESULT:      -7.6     16.013     20.425
REMARK  Name = 26744678
REMARK  7 active torsions:
REMARK  status: ('A' for Active; 'I' for Inactive)
REMARK    1  A    between atoms: O_3  and  C_12
REMARK    2  A    between atoms: O_4  and  C_13
REMARK    3  A    between atoms: N_9  and  C_16
REMARK    4  A    between atoms: C_11  and  C_15
REMARK    5  A    between atoms: C_14  and  C_16
REMARK    6  A    between atoms: C_15  and  C_17
REMARK    7  A    between atoms: C_23  and  C_25
REMARK                            x       y       z     vdW  Elec       q    Type
REMARK                         _______ _______ _______ _____ _____    ______ ____
ROOT
ATOM      2  O   UNL     1      11.077   6.923   7.332  0.00  0.00    -0.366 OA
ATOM     11  C   UNL     1      10.006   6.390   8.145  0.00  0.00    +0.159 C 
ATOM     12  C   UNL     1       9.675   5.016   7.574  0.00  0.00    +0.175 C 
ATOM     13  C   UNL     1      10.052   5.182   6.116  0.00  0.00    +0.176 C 
ATOM     14  C   UNL     1      11.302   6.038   6.220  0.00  0.00    +0.167 C 
ENDROOT
BRANCH  12   3
ATOM      3  O   UNL     1      10.529   4.058   8.200  0.00  0.00    -0.387 OA
ATOM     34  H   UNL     1      10.577   4.285   9.144  0.00  0.00    +0.210 HD
ENDBRANCH  12   3
BRANCH  13   4
ATOM      4  O   UNL     1      10.300   3.957   5.460  0.00  0.00    -0.387 OA
ATOM     35  H   UNL     1      10.636   3.332   6.124  0.00  0.00    +0.210 HD
ENDBRANCH  13   4
BRANCH  11  15
ATOM     15  C   UNL     1       8.838   7.364   8.073  0.00  0.00    +0.130 C 
BRANCH  15  17
ATOM      5  O   UNL     1       9.943   9.459   8.240  0.00  0.00    -0.276 OA
ATOM      7  N   UNL     1       8.967   8.954   6.192  0.00  0.00    -0.298 N 
ATOM      8  N   UNL     1       8.510   9.518   3.390  0.00  0.00    -0.312 N 
ATOM     10  N   UNL     1       7.055   9.814   1.553  0.00  0.00    -0.240 NA
ATOM     17  C   UNL     1       9.305   8.688   7.520  0.00  0.00    +0.218 C 
ATOM     18  C   UNL     1       9.379  10.217   5.584  0.00  0.00    +0.126 C 
ATOM     19  C   UNL     1       8.219   8.032   5.335  0.00  0.00    +0.126 C 
ATOM     20  C   UNL     1       9.673  10.065   4.094  0.00  0.00    +0.125 C 
ATOM     21  C   UNL     1       7.540   8.735   4.160  0.00  0.00    +0.125 C 
ATOM     22  C   UNL     1       8.318   9.766   2.033  0.00  0.00    +0.121 A 
ATOM     24  C   UNL     1       9.452   9.950   1.256  0.00  0.00    +0.043 A 
ATOM     26  C   UNL     1       9.276  10.199  -0.101  0.00  0.00    +0.005 A 
ATOM     27  C   UNL     1       6.925  10.058   0.229  0.00  0.00    +0.113 A 
ATOM     28  C   UNL     1       7.992  10.255  -0.631  0.00  0.00    +0.020 A 
ENDBRANCH  15  17
ENDBRANCH  11  15
BRANCH  14  16
ATOM     16  C   UNL     1      11.581   6.851   4.968  0.00  0.00    +0.138 C 
BRANCH  16   9
ATOM      6  O   UNL     1      10.142   6.499   2.508  0.00  0.00    -0.270 OA
ATOM      9  N   UNL     1      11.952   6.005   3.873  0.00  0.00    -0.309 N 
ATOM     23  C   UNL     1      11.192   5.894   2.712  0.00  0.00    +0.244 C 
ATOM     36  H   UNL     1      12.838   5.517   3.952  0.00  0.00    +0.149 HD
BRANCH  23  25
ATOM      1  F   UNL     1      10.807   3.746  -1.633  0.00  0.00    -0.205 F 
ATOM     25  C   UNL     1      11.700   4.954   1.681  0.00  0.00    +0.039 A 
ATOM     29  C   UNL     1      11.001   4.788   0.484  0.00  0.00    +0.051 A 
ATOM     30  C   UNL     1      12.873   4.235   1.909  0.00  0.00    +0.013 A 
ATOM     31  C   UNL     1      11.478   3.904  -0.484  0.00  0.00    +0.124 A 
ATOM     32  C   UNL     1      13.349   3.352   0.940  0.00  0.00    +0.004 A 
ATOM     33  C   UNL     1      12.652   3.187  -0.256  0.00  0.00    +0.038 A 
ENDBRANCH  23  25
ENDBRANCH  16   9
ENDBRANCH  14  16
TORSDOF 7
ENDMDL
MODEL 9
REMARK VINA RESULT:      -7.6     28.525     31.335
REMARK  Name = 26744678
REMARK  7 active torsions:
REMARK  status: ('A' for Active; 'I' for Inactive)
REMARK    1  A    between atoms: O_3  and  C_12
REMARK    2  A    between atoms: O_4  and  C_13
REMARK    3  A    between atoms: N_9  and  C_16
REMARK    4  A    between atoms: C_11  and  C_15
REMARK    5  A    between atoms: C_14  and  C_16
REMARK    6  A    between atoms: C_15  and  C_17
REMARK    7  A    between atoms: C_23  and  C_25
REMARK                            x       y       z     vdW  Elec       q    Type
REMARK                         _______ _______ _______ _____ _____    ______ ____
ROOT
ATOM      2  O   UNL     1      -6.101 -10.881  18.550  0.00  0.00    -0.366 OA
ATOM     11  C   UNL     1      -6.197 -12.284  18.885  0.00  0.00    +0.159 C 
ATOM     12  C   UNL     1      -5.067 -12.983  18.139  0.00  0.00    +0.175 C 
ATOM     13  C   UNL     1      -4.888 -12.090  16.929  0.00  0.00    +0.176 C 
ATOM     14  C   UNL     1      -5.097 -10.712  17.534  0.00  0.00    +0.167 C 
ENDROOT
BRANCH  12   3
ATOM      3  O   UNL     1      -3.900 -12.941  18.961  0.00  0.00    -0.387 OA
ATOM     34  H   UNL     1      -3.307 -12.266  18.590  0.00  0.00    +0.210 HD
ENDBRANCH  12   3
BRANCH  13   4
ATOM      4  O   UNL     1      -3.621 -12.217  16.321  0.00  0.00    -0.387 OA
ATOM     35  H   UNL     1      -3.429 -11.381  15.865  0.00  0.00    +0.210 HD
ENDBRANCH  13   4
BRANCH  11  15
ATOM     15  C   UNL     1      -7.578 -12.770  18.467  0.00  0.00    +0.130 C 
BRANCH  15  17
ATOM      5  O   UNL     1      -8.877 -11.909  20.259  0.00  0.00    -0.276 OA
ATOM      7  N   UNL     1      -9.297 -11.030  18.150  0.00  0.00    -0.298 N 
ATOM      8  N   UNL     1     -10.576  -9.098  16.412  0.00  0.00    -0.312 N 
ATOM     10  N   UNL     1     -11.863  -8.571  14.504  0.00  0.00    -0.240 NA
ATOM     17  C   UNL     1      -8.639 -11.868  19.050  0.00  0.00    +0.218 C 
ATOM     18  C   UNL     1     -10.341 -10.130  18.635  0.00  0.00    +0.126 C 
ATOM     19  C   UNL     1      -9.006 -10.975  16.715  0.00  0.00    +0.126 C 
ATOM     20  C   UNL     1     -10.388  -8.828  17.840  0.00  0.00    +0.125 C 
ATOM     21  C   UNL     1     -10.165 -10.407  15.897  0.00  0.00    +0.125 C 
ATOM     22  C   UNL     1     -11.159  -8.148  15.578  0.00  0.00    +0.121 A 
ATOM     24  C   UNL     1     -10.977  -6.815  15.912  0.00  0.00    +0.043 A 
ATOM     26  C   UNL     1     -11.554  -5.854  15.089  0.00  0.00    +0.005 A 
ATOM     27  C   UNL     1     -12.409  -7.608  13.728  0.00  0.00    +0.113 A 
ATOM     28  C   UNL     1     -12.285  -6.251  13.974  0.00  0.00    +0.020 A 
ENDBRANCH  15  17
ENDBRANCH  11  15
BRANCH  14  16
ATOM     16  C   UNL     1      -5.559  -9.675  16.525  0.00  0.00    +0.138 C 
BRANCH  16   9
ATOM      6  O   UNL     1      -6.862 -10.028  13.991  0.00  0.00    -0.270 OA
ATOM      9  N   UNL     1      -4.923  -9.868  15.256  0.00  0.00    -0.309 N 
ATOM     23  C   UNL     1      -5.636 -10.032  14.071  0.00  0.00    +0.244 C 
ATOM     36  H   UNL     1      -3.910  -9.828  15.241  0.00  0.00    +0.149 HD
BRANCH  23  25
ATOM      1  F   UNL     1      -1.407 -11.040  11.893  0.00  0.00    -0.205 F 
ATOM     25  C   UNL     1      -4.829 -10.248  12.843  0.00  0.00    +0.039 A 
ATOM     29  C   UNL     1      -3.470 -10.548  12.946  0.00  0.00    +0.051 A 
ATOM     30  C   UNL     1      -5.428 -10.151  11.588  0.00  0.00    +0.013 A 
ATOM     31  C   UNL     1      -2.712 -10.751  11.793  0.00  0.00    +0.124 A 
ATOM     32  C   UNL     1      -4.669 -10.355  10.435  0.00  0.00    +0.004 A 
ATOM     33  C   UNL     1      -3.311 -10.655  10.538  0.00  0.00    +0.038 A 
ENDBRANCH  23  25
ENDBRANCH  16   9
ENDBRANCH  14  16
TORSDOF 7
ENDMDL
MODEL 10
REMARK VINA RESULT:      -7.6     28.369     30.465
REMARK  Name = 26744678
REMARK  7 active torsions:
REMARK  status: ('A' for Active; 'I' for Inactive)
REMARK    1  A    between atoms: O_3  and  C_12
REMARK    2  A    between atoms: O_4  and  C_13
REMARK    3  A    between atoms: N_9  and  C_16
REMARK    4  A    between atoms: C_11  and  C_15
REMARK    5  A    between atoms: C_14  and  C_16
REMARK    6  A    between atoms: C_15  and  C_17
REMARK    7  A    between atoms: C_23  and  C_25
REMARK                            x       y       z     vdW  Elec       q    Type
REMARK                         _______ _______ _______ _____ _____    ______ ____
ROOT
ATOM      2  O   UNL     1      -7.978 -12.436  18.918  0.00  0.00    -0.366 OA
ATOM     11  C   UNL     1      -6.587 -12.043  18.896  0.00  0.00    +0.159 C 
ATOM     12  C   UNL     1      -6.570 -10.526  18.747  0.00  0.00    +0.175 C 
ATOM     13  C   UNL     1      -7.860 -10.269  17.995  0.00  0.00    +0.176 C 
ATOM     14  C   UNL     1      -8.792 -11.284  18.633  0.00  0.00    +0.167 C 
ENDROOT
BRANCH  12   3
ATOM      3  O   UNL     1      -6.637  -9.951  20.053  0.00  0.00    -0.387 OA
ATOM     34  H   UNL     1      -7.131 -10.570  20.617  0.00  0.00    +0.210 HD
ENDBRANCH  12   3
BRANCH  13   4
ATOM      4  O   UNL     1      -8.336  -8.948  18.136  0.00  0.00    -0.387 OA
ATOM     35  H   UNL     1      -8.008  -8.607  18.984  0.00  0.00    +0.210 HD
ENDBRANCH  13   4
BRANCH  11  15
ATOM     15  C   UNL     1      -5.917 -12.763  17.734  0.00  0.00    +0.130 C 
BRANCH  15  17
ATOM      5  O   UNL     1      -3.715 -11.945  18.073  0.00  0.00    -0.276 OA
ATOM      7  N   UNL     1      -4.717 -11.430  16.041  0.00  0.00    -0.298 N 
ATOM      8  N   UNL     1      -4.603 -10.364  13.352  0.00  0.00    -0.312 N 
ATOM     10  N   UNL     1      -5.448  -8.965  11.648  0.00  0.00    -0.240 NA
ATOM     17  C   UNL     1      -4.679 -12.014  17.308  0.00  0.00    +0.218 C 
ATOM     18  C   UNL     1      -3.558 -10.682  15.558  0.00  0.00    +0.126 C 
ATOM     19  C   UNL     1      -5.859 -11.521  15.129  0.00  0.00    +0.126 C 
ATOM     20  C   UNL     1      -3.390 -10.804  14.046  0.00  0.00    +0.125 C 
ATOM     21  C   UNL     1      -5.873 -10.408  14.083  0.00  0.00    +0.125 C 
ATOM     22  C   UNL     1      -4.543  -9.887  12.045  0.00  0.00    +0.121 A 
ATOM     24  C   UNL     1      -3.543 -10.395  11.230  0.00  0.00    +0.043 A 
ATOM     26  C   UNL     1      -3.469  -9.927   9.923  0.00  0.00    +0.005 A 
ATOM     27  C   UNL     1      -5.345  -8.533  10.370  0.00  0.00    +0.113 A 
ATOM     28  C   UNL     1      -4.384  -8.979   9.477  0.00  0.00    +0.020 A 
ENDBRANCH  15  17
ENDBRANCH  11  15
BRANCH  14  16
ATOM     16  C   UNL     1      -9.950 -11.686  17.737  0.00  0.00    +0.138 C 
BRANCH  16   9
ATOM      6  O   UNL     1     -12.043 -10.125  18.931  0.00  0.00    -0.270 OA
ATOM      9  N   UNL     1     -10.589 -10.536  17.170  0.00  0.00    -0.309 N 
ATOM     23  C   UNL     1     -11.600  -9.835  17.822  0.00  0.00    +0.244 C 
ATOM     36  H   UNL     1     -10.234 -10.209  16.278  0.00  0.00    +0.149 HD
BRANCH  23  25
ATOM      1  F   UNL     1     -11.119  -5.504  15.666  0.00  0.00    -0.205 F 
ATOM     25  C   UNL     1     -12.178  -8.680  17.089  0.00  0.00    +0.039 A 
ATOM     29  C   UNL     1     -11.361  -7.613  16.715  0.00  0.00    +0.051 A 
ATOM     30  C   UNL     1     -13.537  -8.662  16.775  0.00  0.00    +0.013 A 
ATOM     31  C   UNL     1     -11.904  -6.528  16.026  0.00  0.00    +0.124 A 
ATOM     32  C   UNL     1     -14.079  -7.577  16.086  0.00  0.00    +0.004 A 
ATOM     33  C   UNL     1     -13.262  -6.510  15.711  0.00  0.00    +0.038 A 
ENDBRANCH  23  25
ENDBRANCH  16   9
ENDBRANCH  14  16
TORSDOF 7
ENDMDL
