MODEL 1
REMARK VINA RESULT:      -7.0      0.000      0.000
REMARK  Name = 25313754
REMARK  7 active torsions:
REMARK  status: ('A' for Active; 'I' for Inactive)
REMARK    1  A    between atoms: C_8  and  C_12
REMARK    2  A    between atoms: C_9  and  C_13
REMARK    3  A    between atoms: C_12  and  C_22
REMARK    4  A    between atoms: C_13  and  C_21
REMARK    5  A    between atoms: C_15  and  C_18
REMARK    6  A    between atoms: C_18  and  C_24
REMARK    7  A    between atoms: C_30  and  C_31
REMARK                            x       y       z     vdW  Elec       q    Type
REMARK                         _______ _______ _______ _____ _____    ______ ____
ROOT
ATOM      4  N   UNL     1      12.877  10.298  14.793  0.00  0.00    -0.316 NA
ATOM      8  C   UNL     1      14.215  10.264  17.423  0.00  0.00    +0.004 C 
ATOM      9  C   UNL     1      13.421   9.055  16.872  0.00  0.00    +0.012 C 
ATOM     10  C   UNL     1      14.696  11.127  16.245  0.00  0.00    +0.019 C 
ATOM     11  C   UNL     1      12.327   9.496  15.887  0.00  0.00    +0.085 C 
ATOM     14  C   UNL     1      13.563  11.491  15.287  0.00  0.00    +0.081 C 
ATOM     32  H   UNL     1      12.122  10.578  14.167  0.00  0.00    +0.122 HD
ENDROOT
BRANCH   8  12
ATOM     12  C   UNL     1      13.438  11.111  18.438  0.00  0.00    +0.100 C 
BRANCH  12  22
ATOM      2  O   UNL     1      15.244  10.541  19.862  0.00  0.00    -0.276 OA
ATOM      3  O   UNL     1      10.195  13.354  24.067  0.00  0.00    -0.276 OA
ATOM      5  N   UNL     1      13.511  11.755  20.820  0.00  0.00    -0.298 N 
ATOM      6  N   UNL     1      11.896  12.084  23.124  0.00  0.00    -0.299 N 
ATOM     22  C   UNL     1      14.152  11.106  19.766  0.00  0.00    +0.216 C 
ATOM     26  C   UNL     1      14.137  11.792  22.145  0.00  0.00    +0.126 C 
ATOM     27  C   UNL     1      12.249  12.500  20.720  0.00  0.00    +0.126 C 
ATOM     28  C   UNL     1      13.158  11.340  23.224  0.00  0.00    +0.126 C 
ATOM     29  C   UNL     1      11.269  12.046  21.800  0.00  0.00    +0.126 C 
ATOM     30  C   UNL     1      11.256  12.734  24.178  0.00  0.00    +0.213 C 
ATOM     31  C   UNL     1      11.930  12.662  25.525  0.00  0.00    +0.109 C 
ENDBRANCH  12  22
ENDBRANCH   8  12
BRANCH   9  13
ATOM     13  C   UNL     1      12.830   8.175  17.974  0.00  0.00    +0.064 C 
BRANCH  13  21
ATOM      1  O   UNL     1      14.842   6.422  20.390  0.00  0.00    -0.359 OA
ATOM      7  N   UNL     1      13.659   7.024  19.980  0.00  0.00    -0.083 NA
ATOM     21  C   UNL     1      13.904   7.462  18.742  0.00  0.00    +0.084 A 
ATOM     24  C   UNL     1      15.761   6.514  19.394  0.00  0.00    +0.138 A 
ATOM     25  C   UNL     1      15.213   7.169  18.322  0.00  0.00    +0.071 A 
BRANCH  24  18
ATOM     18  C   UNL     1      17.078   5.925  19.661  0.00  0.00    +0.080 C 
BRANCH  18  15
ATOM     15  C   UNL     1      17.807   6.586  20.829  0.00  0.00    -0.004 C 
ATOM     16  C   UNL     1      19.287   6.179  20.844  0.00  0.00    +0.004 C 
ATOM     17  C   UNL     1      17.662   8.112  20.764  0.00  0.00    +0.004 C 
ATOM     19  C   UNL     1      20.049   6.869  21.973  0.00  0.00    +0.000 C 
ATOM     20  C   UNL     1      18.427   8.800  21.892  0.00  0.00    +0.000 C 
ATOM     23  C   UNL     1      19.896   8.386  21.910  0.00  0.00    +0.000 C 
ENDBRANCH  18  15
ENDBRANCH  24  18
ENDBRANCH  13  21
ENDBRANCH   9  13
TORSDOF 6
ENDMDL
MODEL 2
REMARK VINA RESULT:      -6.7      3.087      5.076
REMARK  Name = 25313754
REMARK  7 active torsions:
REMARK  status: ('A' for Active; 'I' for Inactive)
REMARK    1  A    between atoms: C_8  and  C_12
REMARK    2  A    between atoms: C_9  and  C_13
REMARK    3  A    between atoms: C_12  and  C_22
REMARK    4  A    between atoms: C_13  and  C_21
REMARK    5  A    between atoms: C_15  and  C_18
REMARK    6  A    between atoms: C_18  and  C_24
REMARK    7  A    between atoms: C_30  and  C_31
REMARK                            x       y       z     vdW  Elec       q    Type
REMARK                         _______ _______ _______ _____ _____    ______ ____
ROOT
ATOM      4  N   UNL     1      14.884   6.138  20.810  0.00  0.00    -0.316 NA
ATOM      8  C   UNL     1      15.987   8.786  20.117  0.00  0.00    +0.004 C 
ATOM      9  C   UNL     1      16.878   7.592  20.536  0.00  0.00    +0.012 C 
ATOM     10  C   UNL     1      14.665   8.249  19.545  0.00  0.00    +0.019 C 
ATOM     11  C   UNL     1      16.119   6.607  21.439  0.00  0.00    +0.085 C 
ATOM     14  C   UNL     1      13.990   7.246  20.478  0.00  0.00    +0.081 C 
ATOM     32  H   UNL     1      14.406   5.496  21.440  0.00  0.00    +0.122 HD
ENDROOT
BRANCH   8  12
ATOM     12  C   UNL     1      15.725   9.794  21.243  0.00  0.00    +0.100 C 
BRANCH  12  22
ATOM      2  O   UNL     1      15.410  11.612  19.756  0.00  0.00    -0.276 OA
ATOM      3  O   UNL     1      10.261  12.147  24.685  0.00  0.00    -0.276 OA
ATOM      5  N   UNL     1      13.749  11.271  21.344  0.00  0.00    -0.298 N 
ATOM      6  N   UNL     1      11.954  12.526  23.140  0.00  0.00    -0.299 N 
ATOM     22  C   UNL     1      14.954  10.974  20.708  0.00  0.00    +0.216 C 
ATOM     26  C   UNL     1      12.941  12.405  20.887  0.00  0.00    +0.126 C 
ATOM     27  C   UNL     1      13.144  10.488  22.429  0.00  0.00    +0.126 C 
ATOM     28  C   UNL     1      12.559  13.309  22.055  0.00  0.00    +0.126 C 
ATOM     29  C   UNL     1      12.762  11.393  23.598  0.00  0.00    +0.126 C 
ATOM     30  C   UNL     1      10.749  12.823  23.775  0.00  0.00    +0.213 C 
ATOM     31  C   UNL     1      10.017  14.049  23.294  0.00  0.00    +0.109 C 
ENDBRANCH  12  22
ENDBRANCH   8  12
BRANCH   9  13
ATOM     13  C   UNL     1      18.189   8.025  21.194  0.00  0.00    +0.064 C 
BRANCH  13  21
ATOM      1  O   UNL     1      20.257   5.142  20.587  0.00  0.00    -0.359 OA
ATOM      7  N   UNL     1      19.268   6.045  20.219  0.00  0.00    -0.083 NA
ATOM     21  C   UNL     1      19.175   6.894  21.245  0.00  0.00    +0.084 A 
ATOM     24  C   UNL     1      20.729   5.470  21.818  0.00  0.00    +0.138 A 
ATOM     25  C   UNL     1      20.072   6.580  22.281  0.00  0.00    +0.071 A 
BRANCH  24  18
ATOM     18  C   UNL     1      21.787   4.613  22.365  0.00  0.00    +0.080 C 
BRANCH  18  15
ATOM     15  C   UNL     1      22.608   3.909  21.286  0.00  0.00    -0.004 C 
ATOM     16  C   UNL     1      23.749   4.812  20.798  0.00  0.00    +0.004 C 
ATOM     17  C   UNL     1      23.155   2.573  21.808  0.00  0.00    +0.004 C 
ATOM     19  C   UNL     1      24.617   4.110  19.757  0.00  0.00    +0.000 C 
ATOM     20  C   UNL     1      24.024   1.875  20.766  0.00  0.00    +0.000 C 
ATOM     23  C   UNL     1      25.151   2.779  20.276  0.00  0.00    +0.000 C 
ENDBRANCH  18  15
ENDBRANCH  24  18
ENDBRANCH  13  21
ENDBRANCH   9  13
TORSDOF 6
ENDMDL
MODEL 3
REMARK VINA RESULT:      -6.7      5.652     11.096
REMARK  Name = 25313754
REMARK  7 active torsions:
REMARK  status: ('A' for Active; 'I' for Inactive)
REMARK    1  A    between atoms: C_8  and  C_12
REMARK    2  A    between atoms: C_9  and  C_13
REMARK    3  A    between atoms: C_12  and  C_22
REMARK    4  A    between atoms: C_13  and  C_21
REMARK    5  A    between atoms: C_15  and  C_18
REMARK    6  A    between atoms: C_18  and  C_24
REMARK    7  A    between atoms: C_30  and  C_31
REMARK                            x       y       z     vdW  Elec       q    Type
REMARK                         _______ _______ _______ _____ _____    ______ ____
ROOT
ATOM      4  N   UNL     1      21.239   9.115  21.625  0.00  0.00    -0.316 NA
ATOM      8  C   UNL     1      21.260   6.300  20.742  0.00  0.00    +0.004 C 
ATOM      9  C   UNL     1      19.952   7.097  20.965  0.00  0.00    +0.012 C 
ATOM     10  C   UNL     1      22.402   7.284  20.444  0.00  0.00    +0.019 C 
ATOM     11  C   UNL     1      20.142   8.221  21.997  0.00  0.00    +0.085 C 
ATOM     14  C   UNL     1      22.503   8.395  21.488  0.00  0.00    +0.081 C 
ATOM     32  H   UNL     1      21.340   9.840  22.335  0.00  0.00    +0.122 HD
ENDROOT
BRANCH   8  12
ATOM     12  C   UNL     1      21.629   5.370  21.904  0.00  0.00    +0.100 C 
BRANCH  12  22
ATOM      2  O   UNL     1      21.038   3.354  20.806  0.00  0.00    -0.276 OA
ATOM      3  O   UNL     1      27.545   2.291  23.568  0.00  0.00    -0.276 OA
ATOM      5  N   UNL     1      23.219   3.507  21.591  0.00  0.00    -0.298 N 
ATOM      6  N   UNL     1      25.345   2.114  22.842  0.00  0.00    -0.299 N 
ATOM     22  C   UNL     1      21.927   3.987  21.381  0.00  0.00    +0.216 C 
ATOM     26  C   UNL     1      23.588   2.170  21.117  0.00  0.00    +0.126 C 
ATOM     27  C   UNL     1      24.319   4.263  22.204  0.00  0.00    +0.126 C 
ATOM     28  C   UNL     1      24.245   1.359  22.229  0.00  0.00    +0.126 C 
ATOM     29  C   UNL     1      24.976   3.451  23.317  0.00  0.00    +0.126 C 
ATOM     30  C   UNL     1      26.637   1.634  23.051  0.00  0.00    +0.213 C 
ATOM     31  C   UNL     1      26.913   0.222  22.601  0.00  0.00    +0.109 C 
ENDBRANCH  12  22
ENDBRANCH   8  12
BRANCH   9  13
ATOM     13  C   UNL     1      18.768   6.209  21.349  0.00  0.00    +0.064 C 
BRANCH  13  21
ATOM      1  O   UNL     1      16.511   5.974  18.554  0.00  0.00    -0.359 OA
ATOM      7  N   UNL     1      17.678   5.630  19.224  0.00  0.00    -0.083 NA
ATOM     21  C   UNL     1      17.646   6.334  20.359  0.00  0.00    +0.084 A 
ATOM     24  C   UNL     1      15.814   6.871  19.298  0.00  0.00    +0.138 A 
ATOM     25  C   UNL     1      16.494   7.134  20.458  0.00  0.00    +0.071 A 
BRANCH  24  18
ATOM     18  C   UNL     1      14.545   7.346  18.734  0.00  0.00    +0.080 C 
BRANCH  18  15
ATOM     15  C   UNL     1      13.538   7.778  19.797  0.00  0.00    -0.004 C 
ATOM     16  C   UNL     1      12.851   9.089  19.391  0.00  0.00    +0.004 C 
ATOM     17  C   UNL     1      12.503   6.673  20.044  0.00  0.00    +0.004 C 
ATOM     19  C   UNL     1      11.801   9.515  20.414  0.00  0.00    +0.000 C 
ATOM     20  C   UNL     1      11.452   7.103  21.065  0.00  0.00    +0.000 C 
ATOM     23  C   UNL     1      10.778   8.411  20.663  0.00  0.00    +0.000 C 
ENDBRANCH  18  15
ENDBRANCH  24  18
ENDBRANCH  13  21
ENDBRANCH   9  13
TORSDOF 6
ENDMDL
MODEL 4
REMARK VINA RESULT:      -6.6     27.485     30.530
REMARK  Name = 25313754
REMARK  7 active torsions:
REMARK  status: ('A' for Active; 'I' for Inactive)
REMARK    1  A    between atoms: C_8  and  C_12
REMARK    2  A    between atoms: C_9  and  C_13
REMARK    3  A    between atoms: C_12  and  C_22
REMARK    4  A    between atoms: C_13  and  C_21
REMARK    5  A    between atoms: C_15  and  C_18
REMARK    6  A    between atoms: C_18  and  C_24
REMARK    7  A    between atoms: C_30  and  C_31
REMARK                            x       y       z     vdW  Elec       q    Type
REMARK                         _______ _______ _______ _____ _____    ______ ____
ROOT
ATOM      4  N   UNL     1     -18.367   5.637  22.139  0.00  0.00    -0.316 NA
ATOM      8  C   UNL     1     -15.479   5.190  21.734  0.00  0.00    +0.004 C 
ATOM      9  C   UNL     1     -16.243   4.657  22.969  0.00  0.00    +0.012 C 
ATOM     10  C   UNL     1     -16.471   5.383  20.576  0.00  0.00    +0.019 C 
ATOM     11  C   UNL     1     -17.474   5.519  23.291  0.00  0.00    +0.085 C 
ATOM     14  C   UNL     1     -17.687   6.215  20.981  0.00  0.00    +0.081 C 
ATOM     32  H   UNL     1     -19.165   6.221  22.387  0.00  0.00    +0.122 HD
ENDROOT
BRANCH   8  12
ATOM     12  C   UNL     1     -14.689   6.478  21.997  0.00  0.00    +0.100 C 
BRANCH  12  22
ATOM      2  O   UNL     1     -12.520   5.524  21.946  0.00  0.00    -0.276 OA
ATOM      3  O   UNL     1     -12.372  11.062  17.430  0.00  0.00    -0.276 OA
ATOM      5  N   UNL     1     -12.959   7.185  20.384  0.00  0.00    -0.298 N 
ATOM      6  N   UNL     1     -11.913   9.447  19.036  0.00  0.00    -0.299 N 
ATOM     22  C   UNL     1     -13.292   6.346  21.446  0.00  0.00    +0.216 C 
ATOM     26  C   UNL     1     -11.619   7.122  19.794  0.00  0.00    +0.126 C 
ATOM     27  C   UNL     1     -13.876   8.120  19.718  0.00  0.00    +0.126 C 
ATOM     28  C   UNL     1     -10.997   8.512  19.701  0.00  0.00    +0.126 C 
ATOM     29  C   UNL     1     -13.253   9.511  19.626  0.00  0.00    +0.126 C 
ATOM     30  C   UNL     1     -11.581  10.285  17.972  0.00  0.00    +0.213 C 
ATOM     31  C   UNL     1     -10.160  10.211  17.474  0.00  0.00    +0.109 C 
ENDBRANCH  12  22
ENDBRANCH   8  12
BRANCH   9  13
ATOM     13  C   UNL     1     -15.354   4.507  24.204  0.00  0.00    +0.064 C 
BRANCH  13  21
ATOM      1  O   UNL     1     -16.574   1.448  25.659  0.00  0.00    -0.359 OA
ATOM      7  N   UNL     1     -16.177   2.222  24.576  0.00  0.00    -0.083 NA
ATOM     21  C   UNL     1     -15.841   3.404  25.099  0.00  0.00    +0.084 A 
ATOM     24  C   UNL     1     -16.466   2.181  26.797  0.00  0.00    +0.138 A 
ATOM     25  C   UNL     1     -16.004   3.435  26.495  0.00  0.00    +0.071 A 
BRANCH  24  18
ATOM     18  C   UNL     1     -16.849   1.513  28.046  0.00  0.00    +0.080 C 
BRANCH  18  15
ATOM     15  C   UNL     1     -15.796   1.642  29.145  0.00  0.00    -0.004 C 
ATOM     16  C   UNL     1     -16.141   2.799  30.092  0.00  0.00    +0.004 C 
ATOM     17  C   UNL     1     -15.657   0.325  29.920  0.00  0.00    +0.004 C 
ATOM     19  C   UNL     1     -15.130   2.915  31.231  0.00  0.00    +0.000 C 
ATOM     20  C   UNL     1     -14.648   0.444  31.059  0.00  0.00    +0.000 C 
ATOM     23  C   UNL     1     -14.989   1.601  31.993  0.00  0.00    +0.000 C 
ENDBRANCH  18  15
ENDBRANCH  24  18
ENDBRANCH  13  21
ENDBRANCH   9  13
TORSDOF 6
ENDMDL
MODEL 5
REMARK VINA RESULT:      -6.5     24.844     27.422
REMARK  Name = 25313754
REMARK  7 active torsions:
REMARK  status: ('A' for Active; 'I' for Inactive)
REMARK    1  A    between atoms: C_8  and  C_12
REMARK    2  A    between atoms: C_9  and  C_13
REMARK    3  A    between atoms: C_12  and  C_22
REMARK    4  A    between atoms: C_13  and  C_21
REMARK    5  A    between atoms: C_15  and  C_18
REMARK    6  A    between atoms: C_18  and  C_24
REMARK    7  A    between atoms: C_30  and  C_31
REMARK                            x       y       z     vdW  Elec       q    Type
REMARK                         _______ _______ _______ _____ _____    ______ ____
ROOT
ATOM      4  N   UNL     1     -13.943   4.332  21.955  0.00  0.00    -0.316 NA
ATOM      8  C   UNL     1     -14.169   7.185  21.235  0.00  0.00    +0.004 C 
ATOM      9  C   UNL     1     -12.861   6.377  21.054  0.00  0.00    +0.012 C 
ATOM     10  C   UNL     1     -15.363   6.216  21.221  0.00  0.00    +0.019 C 
ATOM     11  C   UNL     1     -12.774   5.207  22.048  0.00  0.00    +0.085 C 
ATOM     14  C   UNL     1     -15.187   5.058  22.203  0.00  0.00    +0.081 C 
ATOM     32  H   UNL     1     -13.854   3.575  22.633  0.00  0.00    +0.122 HD
ENDROOT
BRANCH   8  12
ATOM     12  C   UNL     1     -14.192   8.061  22.493  0.00  0.00    +0.100 C 
BRANCH  12  22
ATOM      2  O   UNL     1     -14.122   9.826  20.914  0.00  0.00    -0.276 OA
ATOM      3  O   UNL     1     -12.860  12.799  27.290  0.00  0.00    -0.276 OA
ATOM      5  N   UNL     1     -14.043  10.435  23.154  0.00  0.00    -0.298 N 
ATOM      6  N   UNL     1     -12.874  12.185  25.050  0.00  0.00    -0.299 N 
ATOM     22  C   UNL     1     -14.117   9.517  22.108  0.00  0.00    +0.216 C 
ATOM     26  C   UNL     1     -13.963  11.870  22.863  0.00  0.00    +0.126 C 
ATOM     27  C   UNL     1     -14.110  10.104  24.583  0.00  0.00    +0.126 C 
ATOM     28  C   UNL     1     -12.807  12.516  23.621  0.00  0.00    +0.126 C 
ATOM     29  C   UNL     1     -12.953  10.751  25.340  0.00  0.00    +0.126 C 
ATOM     30  C   UNL     1     -12.801  13.104  26.096  0.00  0.00    +0.213 C 
ATOM     31  C   UNL     1     -12.644  14.553  25.711  0.00  0.00    +0.109 C 
ENDBRANCH  12  22
ENDBRANCH   8  12
BRANCH   9  13
ATOM     13  C   UNL     1     -11.605   7.245  21.135  0.00  0.00    +0.064 C 
BRANCH  13  21
ATOM      1  O   UNL     1     -10.961   7.865  17.648  0.00  0.00    -0.359 OA
ATOM      7  N   UNL     1     -11.377   7.054  18.696  0.00  0.00    -0.083 NA
ATOM     21  C   UNL     1     -11.241   7.807  19.791  0.00  0.00    +0.084 A 
ATOM     24  C   UNL     1     -10.588   9.076  18.138  0.00  0.00    +0.138 A 
ATOM     25  C   UNL     1     -10.747   9.090  19.499  0.00  0.00    +0.071 A 
BRANCH  24  18
ATOM     18  C   UNL     1     -10.116  10.062  17.159  0.00  0.00    +0.080 C 
BRANCH  18  15
ATOM     15  C   UNL     1     -10.013  11.475  17.730  0.00  0.00    -0.004 C 
ATOM     16  C   UNL     1      -9.168  12.370  16.813  0.00  0.00    +0.004 C 
ATOM     17  C   UNL     1     -11.408  12.075  17.945  0.00  0.00    +0.004 C 
ATOM     19  C   UNL     1      -9.094  13.802  17.336  0.00  0.00    +0.000 C 
ATOM     20  C   UNL     1     -11.331  13.508  18.465  0.00  0.00    +0.000 C 
ATOM     23  C   UNL     1     -10.483  14.393  17.556  0.00  0.00    +0.000 C 
ENDBRANCH  18  15
ENDBRANCH  24  18
ENDBRANCH  13  21
ENDBRANCH   9  13
TORSDOF 6
ENDMDL
MODEL 6
REMARK VINA RESULT:      -6.4     28.484     30.757
REMARK  Name = 25313754
REMARK  7 active torsions:
REMARK  status: ('A' for Active; 'I' for Inactive)
REMARK    1  A    between atoms: C_8  and  C_12
REMARK    2  A    between atoms: C_9  and  C_13
REMARK    3  A    between atoms: C_12  and  C_22
REMARK    4  A    between atoms: C_13  and  C_21
REMARK    5  A    between atoms: C_15  and  C_18
REMARK    6  A    between atoms: C_18  and  C_24
REMARK    7  A    between atoms: C_30  and  C_31
REMARK                            x       y       z     vdW  Elec       q    Type
REMARK                         _______ _______ _______ _____ _____    ______ ____
ROOT
ATOM      4  N   UNL     1     -11.413 -13.150  19.490  0.00  0.00    -0.316 NA
ATOM      8  C   UNL     1     -10.170 -11.093  17.778  0.00  0.00    +0.004 C 
ATOM      9  C   UNL     1      -9.397 -11.826  18.900  0.00  0.00    +0.012 C 
ATOM     10  C   UNL     1     -11.343 -11.974  17.318  0.00  0.00    +0.019 C 
ATOM     11  C   UNL     1     -10.338 -12.308  20.016  0.00  0.00    +0.085 C 
ATOM     14  C   UNL     1     -12.209 -12.449  18.484  0.00  0.00    +0.081 C 
ATOM     32  H   UNL     1     -12.019 -13.442  20.255  0.00  0.00    +0.122 HD
ENDROOT
BRANCH   8  12
ATOM     12  C   UNL     1     -10.660  -9.693  18.169  0.00  0.00    +0.100 C 
BRANCH  12  22
ATOM      2  O   UNL     1      -8.853  -8.373  17.390  0.00  0.00    -0.276 OA
ATOM      3  O   UNL     1     -14.683  -5.961  14.031  0.00  0.00    -0.276 OA
ATOM      5  N   UNL     1     -10.889  -8.084  16.311  0.00  0.00    -0.298 N 
ATOM      6  N   UNL     1     -12.664  -6.203  15.154  0.00  0.00    -0.299 N 
ATOM     22  C   UNL     1     -10.045  -8.660  17.260  0.00  0.00    +0.216 C 
ATOM     26  C   UNL     1     -10.370  -7.068  15.391  0.00  0.00    +0.126 C 
ATOM     27  C   UNL     1     -12.291  -8.457  16.081  0.00  0.00    +0.126 C 
ATOM     28  C   UNL     1     -11.262  -5.831  15.384  0.00  0.00    +0.126 C 
ATOM     29  C   UNL     1     -13.184  -7.218  16.075  0.00  0.00    +0.126 C 
ATOM     30  C   UNL     1     -13.507  -5.628  14.205  0.00  0.00    +0.213 C 
ATOM     31  C   UNL     1     -12.915  -4.538  13.348  0.00  0.00    +0.109 C 
ENDBRANCH  12  22
ENDBRANCH   8  12
BRANCH   9  13
ATOM     13  C   UNL     1      -8.254 -10.994  19.483  0.00  0.00    +0.064 C 
BRANCH  13  21
ATOM      1  O   UNL     1      -5.433 -12.800  18.164  0.00  0.00    -0.359 OA
ATOM      7  N   UNL     1      -6.753 -12.722  18.591  0.00  0.00    -0.083 NA
ATOM     21  C   UNL     1      -6.923 -11.449  18.960  0.00  0.00    +0.084 A 
ATOM     24  C   UNL     1      -4.849 -11.580  18.288  0.00  0.00    +0.138 A 
ATOM     25  C   UNL     1      -5.756 -10.684  18.791  0.00  0.00    +0.071 A 
BRANCH  24  18
ATOM     18  C   UNL     1      -3.443 -11.482  17.879  0.00  0.00    +0.080 C 
BRANCH  18  15
ATOM     15  C   UNL     1      -3.253 -10.757  16.548  0.00  0.00    -0.004 C 
ATOM     16  C   UNL     1      -1.771 -10.739  16.149  0.00  0.00    +0.004 C 
ATOM     17  C   UNL     1      -4.106 -11.407  15.451  0.00  0.00    +0.004 C 
ATOM     19  C   UNL     1      -1.561 -10.066  14.795  0.00  0.00    +0.000 C 
ATOM     20  C   UNL     1      -3.892 -10.734  14.098  0.00  0.00    +0.000 C 
ATOM     23  C   UNL     1      -2.416 -10.709  13.708  0.00  0.00    +0.000 C 
ENDBRANCH  18  15
ENDBRANCH  24  18
ENDBRANCH  13  21
ENDBRANCH   9  13
TORSDOF 6
ENDMDL
MODEL 7
REMARK VINA RESULT:      -6.3     25.561     28.267
REMARK  Name = 25313754
REMARK  7 active torsions:
REMARK  status: ('A' for Active; 'I' for Inactive)
REMARK    1  A    between atoms: C_8  and  C_12
REMARK    2  A    between atoms: C_9  and  C_13
REMARK    3  A    between atoms: C_12  and  C_22
REMARK    4  A    between atoms: C_13  and  C_21
REMARK    5  A    between atoms: C_15  and  C_18
REMARK    6  A    between atoms: C_18  and  C_24
REMARK    7  A    between atoms: C_30  and  C_31
REMARK                            x       y       z     vdW  Elec       q    Type
REMARK                         _______ _______ _______ _____ _____    ______ ____
ROOT
ATOM      4  N   UNL     1     -16.905   5.849  22.693  0.00  0.00    -0.316 NA
ATOM      8  C   UNL     1     -14.212   6.914  22.127  0.00  0.00    +0.004 C 
ATOM      9  C   UNL     1     -15.428   7.826  22.419  0.00  0.00    +0.012 C 
ATOM     10  C   UNL     1     -14.456   5.535  22.762  0.00  0.00    +0.019 C 
ATOM     11  C   UNL     1     -16.752   7.146  22.034  0.00  0.00    +0.085 C 
ATOM     14  C   UNL     1     -15.807   4.941  22.367  0.00  0.00    +0.081 C 
ATOM     32  H   UNL     1     -17.788   5.426  22.407  0.00  0.00    +0.122 HD
ENDROOT
BRANCH   8  12
ATOM     12  C   UNL     1     -13.877   6.778  20.637  0.00  0.00    +0.100 C 
BRANCH  12  22
ATOM      2  O   UNL     1     -11.580   6.855  21.214  0.00  0.00    -0.276 OA
ATOM      3  O   UNL     1     -12.363  11.138  15.545  0.00  0.00    -0.276 OA
ATOM      5  N   UNL     1     -12.187   7.900  19.230  0.00  0.00    -0.298 N 
ATOM      6  N   UNL     1     -11.768  10.150  17.561  0.00  0.00    -0.299 N 
ATOM     22  C   UNL     1     -12.444   7.176  20.394  0.00  0.00    +0.216 C 
ATOM     26  C   UNL     1     -10.820   8.329  18.921  0.00  0.00    +0.126 C 
ATOM     27  C   UNL     1     -13.179   8.232  18.198  0.00  0.00    +0.126 C 
ATOM     28  C   UNL     1     -10.776   9.818  18.592  0.00  0.00    +0.126 C 
ATOM     29  C   UNL     1     -13.135   9.722  17.870  0.00  0.00    +0.126 C 
ATOM     30  C   UNL     1     -11.511  10.872  16.397  0.00  0.00    +0.213 C 
ATOM     31  C   UNL     1     -10.093  11.340  16.192  0.00  0.00    +0.109 C 
ENDBRANCH  12  22
ENDBRANCH   8  12
BRANCH   9  13
ATOM     13  C   UNL     1     -15.318   9.201  21.759  0.00  0.00    +0.064 C 
BRANCH  13  21
ATOM      1  O   UNL     1     -12.283  11.100  22.134  0.00  0.00    -0.359 OA
ATOM      7  N   UNL     1     -13.272  10.503  21.363  0.00  0.00    -0.083 NA
ATOM     21  C   UNL     1     -14.107   9.945  22.244  0.00  0.00    +0.084 A 
ATOM     24  C   UNL     1     -12.548  10.886  23.449  0.00  0.00    +0.138 A 
ATOM     25  C   UNL     1     -13.700  10.155  23.573  0.00  0.00    +0.071 A 
BRANCH  24  18
ATOM     18  C   UNL     1     -11.595  11.453  24.411  0.00  0.00    +0.080 C 
BRANCH  18  15
ATOM     15  C   UNL     1     -11.880  11.041  25.853  0.00  0.00    -0.004 C 
ATOM     16  C   UNL     1     -10.664  10.329  26.463  0.00  0.00    +0.004 C 
ATOM     17  C   UNL     1     -12.278  12.260  26.696  0.00  0.00    +0.004 C 
ATOM     19  C   UNL     1     -10.905   9.954  27.923  0.00  0.00    +0.000 C 
ATOM     20  C   UNL     1     -12.515  11.883  28.156  0.00  0.00    +0.000 C 
ATOM     23  C   UNL     1     -11.309  11.167  28.756  0.00  0.00    +0.000 C 
ENDBRANCH  18  15
ENDBRANCH  24  18
ENDBRANCH  13  21
ENDBRANCH   9  13
TORSDOF 6
ENDMDL
MODEL 8
REMARK VINA RESULT:      -6.2     27.970     30.299
REMARK  Name = 25313754
REMARK  7 active torsions:
REMARK  status: ('A' for Active; 'I' for Inactive)
REMARK    1  A    between atoms: C_8  and  C_12
REMARK    2  A    between atoms: C_9  and  C_13
REMARK    3  A    between atoms: C_12  and  C_22
REMARK    4  A    between atoms: C_13  and  C_21
REMARK    5  A    between atoms: C_15  and  C_18
REMARK    6  A    between atoms: C_18  and  C_24
REMARK    7  A    between atoms: C_30  and  C_31
REMARK                            x       y       z     vdW  Elec       q    Type
REMARK                         _______ _______ _______ _____ _____    ______ ____
ROOT
ATOM      4  N   UNL     1      -8.555  -9.533   6.173  0.00  0.00    -0.316 NA
ATOM      8  C   UNL     1      -8.461  -7.011   7.702  0.00  0.00    +0.004 C 
ATOM      9  C   UNL     1      -7.566  -8.227   8.039  0.00  0.00    +0.012 C 
ATOM     10  C   UNL     1      -8.868  -7.083   6.221  0.00  0.00    +0.019 C 
ATOM     11  C   UNL     1      -8.214  -9.549   7.596  0.00  0.00    +0.085 C 
ATOM     14  C   UNL     1      -9.466  -8.438   5.845  0.00  0.00    +0.081 C 
ATOM     32  H   UNL     1      -8.990 -10.420   5.919  0.00  0.00    +0.122 HD
ENDROOT
BRANCH   8  12
ATOM     12  C   UNL     1      -9.695  -6.875   8.601  0.00  0.00    +0.100 C 
BRANCH  12  22
ATOM      2  O   UNL     1      -9.124  -4.575   8.634  0.00  0.00    -0.276 OA
ATOM      3  O   UNL     1     -15.562  -5.080  11.697  0.00  0.00    -0.276 OA
ATOM      5  N   UNL     1     -11.287  -5.116   9.286  0.00  0.00    -0.298 N 
ATOM      6  N   UNL     1     -13.380  -4.546  11.108  0.00  0.00    -0.299 N 
ATOM     22  C   UNL     1     -10.001  -5.418   8.839  0.00  0.00    +0.216 C 
ATOM     26  C   UNL     1     -11.663  -3.724   9.544  0.00  0.00    +0.126 C 
ATOM     27  C   UNL     1     -12.374  -6.087   9.467  0.00  0.00    +0.126 C 
ATOM     28  C   UNL     1     -12.293  -3.576  10.926  0.00  0.00    +0.126 C 
ATOM     29  C   UNL     1     -13.003  -5.939  10.851  0.00  0.00    +0.126 C 
ATOM     30  C   UNL     1     -14.666  -4.244  11.554  0.00  0.00    +0.213 C 
ATOM     31  C   UNL     1     -14.948  -2.797  11.868  0.00  0.00    +0.109 C 
ENDBRANCH  12  22
ENDBRANCH   8  12
BRANCH   9  13
ATOM     13  C   UNL     1      -7.172  -8.290   9.515  0.00  0.00    +0.064 C 
BRANCH  13  21
ATOM      1  O   UNL     1      -3.722  -9.236   9.109  0.00  0.00    -0.359 OA
ATOM      7  N   UNL     1      -4.965  -8.874   8.605  0.00  0.00    -0.083 NA
ATOM     21  C   UNL     1      -5.736  -8.696   9.682  0.00  0.00    +0.084 A 
ATOM     24  C   UNL     1      -3.779  -9.265  10.466  0.00  0.00    +0.138 A 
ATOM     25  C   UNL     1      -5.041  -8.929  10.881  0.00  0.00    +0.071 A 
BRANCH  24  18
ATOM     18  C   UNL     1      -2.542  -9.632  11.165  0.00  0.00    +0.080 C 
BRANCH  18  15
ATOM     15  C   UNL     1      -2.770 -10.611  12.315  0.00  0.00    -0.004 C 
ATOM     16  C   UNL     1      -2.582 -12.059  11.839  0.00  0.00    +0.004 C 
ATOM     17  C   UNL     1      -1.832 -10.297  13.488  0.00  0.00    +0.004 C 
ATOM     19  C   UNL     1      -2.753 -13.054  12.984  0.00  0.00    +0.000 C 
ATOM     20  C   UNL     1      -2.002 -11.296  14.630  0.00  0.00    +0.000 C 
ATOM     23  C   UNL     1      -1.825 -12.733  14.151  0.00  0.00    +0.000 C 
ENDBRANCH  18  15
ENDBRANCH  24  18
ENDBRANCH  13  21
ENDBRANCH   9  13
TORSDOF 6
ENDMDL
MODEL 9
REMARK VINA RESULT:      -6.2     26.560     29.157
REMARK  Name = 25313754
REMARK  7 active torsions:
REMARK  status: ('A' for Active; 'I' for Inactive)
REMARK    1  A    between atoms: C_8  and  C_12
REMARK    2  A    between atoms: C_9  and  C_13
REMARK    3  A    between atoms: C_12  and  C_22
REMARK    4  A    between atoms: C_13  and  C_21
REMARK    5  A    between atoms: C_15  and  C_18
REMARK    6  A    between atoms: C_18  and  C_24
REMARK    7  A    between atoms: C_30  and  C_31
REMARK                            x       y       z     vdW  Elec       q    Type
REMARK                         _______ _______ _______ _____ _____    ______ ____
ROOT
ATOM      4  N   UNL     1     -12.254   8.173  16.935  0.00  0.00    -0.316 NA
ATOM      8  C   UNL     1     -14.438   8.789  18.822  0.00  0.00    +0.004 C 
ATOM      9  C   UNL     1     -12.967   8.621  19.271  0.00  0.00    +0.012 C 
ATOM     10  C   UNL     1     -14.466   9.197  17.339  0.00  0.00    +0.019 C 
ATOM     11  C   UNL     1     -12.184   7.702  18.319  0.00  0.00    +0.085 C 
ATOM     14  C   UNL     1     -13.634   8.264  16.461  0.00  0.00    +0.081 C 
ATOM     32  H   UNL     1     -11.733   7.536  16.334  0.00  0.00    +0.122 HD
ENDROOT
BRANCH   8  12
ATOM     12  C   UNL     1     -15.311   7.552  19.064  0.00  0.00    +0.100 C 
BRANCH  12  22
ATOM      2  O   UNL     1     -16.909   8.865  20.221  0.00  0.00    -0.276 OA
ATOM      3  O   UNL     1     -15.354   3.367  24.516  0.00  0.00    -0.276 OA
ATOM      5  N   UNL     1     -16.362   6.819  21.174  0.00  0.00    -0.298 N 
ATOM      6  N   UNL     1     -15.851   5.442  23.596  0.00  0.00    -0.299 N 
ATOM     22  C   UNL     1     -16.267   7.812  20.200  0.00  0.00    +0.216 C 
ATOM     26  C   UNL     1     -17.267   6.996  22.313  0.00  0.00    +0.126 C 
ATOM     27  C   UNL     1     -15.670   5.524  21.139  0.00  0.00    +0.126 C 
ATOM     28  C   UNL     1     -16.543   6.736  23.631  0.00  0.00    +0.126 C 
ATOM     29  C   UNL     1     -14.945   5.265  22.457  0.00  0.00    +0.126 C 
ATOM     30  C   UNL     1     -15.946   4.448  24.569  0.00  0.00    +0.213 C 
ATOM     31  C   UNL     1     -16.842   4.741  25.746  0.00  0.00    +0.109 C 
ENDBRANCH  12  22
ENDBRANCH   8  12
BRANCH   9  13
ATOM     13  C   UNL     1     -12.834   8.136  20.715  0.00  0.00    +0.064 C 
BRANCH  13  21
ATOM      1  O   UNL     1     -12.285  11.252  22.433  0.00  0.00    -0.359 OA
ATOM      7  N   UNL     1     -12.138  10.409  21.339  0.00  0.00    -0.083 NA
ATOM     21  C   UNL     1     -12.782   9.288  21.677  0.00  0.00    +0.084 A 
ATOM     24  C   UNL     1     -13.008  10.619  23.393  0.00  0.00    +0.138 A 
ATOM     25  C   UNL     1     -13.349   9.364  22.961  0.00  0.00    +0.071 A 
BRANCH  24  18
ATOM     18  C   UNL     1     -13.258  11.372  24.628  0.00  0.00    +0.080 C 
BRANCH  18  15
ATOM     15  C   UNL     1     -12.770  10.649  25.882  0.00  0.00    -0.004 C 
ATOM     16  C   UNL     1     -11.236  10.604  25.919  0.00  0.00    +0.004 C 
ATOM     17  C   UNL     1     -13.326  11.321  27.145  0.00  0.00    +0.004 C 
ATOM     19  C   UNL     1     -10.722   9.933  27.190  0.00  0.00    +0.000 C 
ATOM     20  C   UNL     1     -12.808  10.650  28.414  0.00  0.00    +0.000 C 
ATOM     23  C   UNL     1     -11.284  10.598  28.443  0.00  0.00    +0.000 C 
ENDBRANCH  18  15
ENDBRANCH  24  18
ENDBRANCH  13  21
ENDBRANCH   9  13
TORSDOF 6
ENDMDL
MODEL 10
REMARK VINA RESULT:      -6.1     29.093     32.132
REMARK  Name = 25313754
REMARK  7 active torsions:
REMARK  status: ('A' for Active; 'I' for Inactive)
REMARK    1  A    between atoms: C_8  and  C_12
REMARK    2  A    between atoms: C_9  and  C_13
REMARK    3  A    between atoms: C_12  and  C_22
REMARK    4  A    between atoms: C_13  and  C_21
REMARK    5  A    between atoms: C_15  and  C_18
REMARK    6  A    between atoms: C_18  and  C_24
REMARK    7  A    between atoms: C_30  and  C_31
REMARK                            x       y       z     vdW  Elec       q    Type
REMARK                         _______ _______ _______ _____ _____    ______ ____
ROOT
ATOM      4  N   UNL     1     -12.178 -10.337  14.107  0.00  0.00    -0.316 NA
ATOM      8  C   UNL     1     -11.698  -9.370  16.853  0.00  0.00    +0.004 C 
ATOM      9  C   UNL     1     -12.359  -8.495  15.761  0.00  0.00    +0.012 C 
ATOM     10  C   UNL     1     -11.919 -10.852  16.509  0.00  0.00    +0.019 C 
ATOM     11  C   UNL     1     -11.919  -8.918  14.350  0.00  0.00    +0.085 C 
ATOM     14  C   UNL     1     -11.497 -11.189  15.079  0.00  0.00    +0.081 C 
ATOM     32  H   UNL     1     -11.866 -10.582  13.168  0.00  0.00    +0.122 HD
ENDROOT
BRANCH   8  12
ATOM     12  C   UNL     1     -10.209  -9.076  17.072  0.00  0.00    +0.100 C 
BRANCH  12  22
ATOM      2  O   UNL     1     -10.387  -9.917  19.280  0.00  0.00    -0.276 OA
ATOM      3  O   UNL     1      -3.746 -11.414  17.102  0.00  0.00    -0.276 OA
ATOM      5  N   UNL     1      -8.455 -10.466  18.114  0.00  0.00    -0.298 N 
ATOM      6  N   UNL     1      -5.649 -10.809  18.290  0.00  0.00    -0.299 N 
ATOM     22  C   UNL     1      -9.700  -9.855  18.258  0.00  0.00    +0.216 C 
ATOM     26  C   UNL     1      -7.887 -11.239  19.222  0.00  0.00    +0.126 C 
ATOM     27  C   UNL     1      -7.648 -10.475  16.887  0.00  0.00    +0.126 C 
ATOM     28  C   UNL     1      -6.456 -10.801  19.516  0.00  0.00    +0.126 C 
ATOM     29  C   UNL     1      -6.216 -10.035  17.182  0.00  0.00    +0.126 C 
ATOM     30  C   UNL     1      -4.404 -11.421  18.146  0.00  0.00    +0.213 C 
ATOM     31  C   UNL     1      -3.858 -12.132  19.357  0.00  0.00    +0.109 C 
ENDBRANCH  12  22
ENDBRANCH   8  12
BRANCH   9  13
ATOM     13  C   UNL     1     -12.126  -6.998  15.971  0.00  0.00    +0.064 C 
BRANCH  13  21
ATOM      1  O   UNL     1     -14.780  -5.495  14.059  0.00  0.00    -0.359 OA
ATOM      7  N   UNL     1     -14.297  -6.417  14.979  0.00  0.00    -0.083 NA
ATOM     21  C   UNL     1     -12.986  -6.177  15.054  0.00  0.00    +0.084 A 
ATOM     24  C   UNL     1     -13.752  -4.730  13.609  0.00  0.00    +0.138 A 
ATOM     25  C   UNL     1     -12.586  -5.124  14.212  0.00  0.00    +0.071 A 
BRANCH  24  18
ATOM     18  C   UNL     1     -14.087  -3.696  12.622  0.00  0.00    +0.080 C 
BRANCH  18  15
ATOM     15  C   UNL     1     -13.487  -3.964  11.243  0.00  0.00    -0.004 C 
ATOM     16  C   UNL     1     -14.275  -3.219  10.157  0.00  0.00    +0.004 C 
ATOM     17  C   UNL     1     -12.005  -3.569  11.211  0.00  0.00    +0.004 C 
ATOM     19  C   UNL     1     -13.662  -3.429   8.774  0.00  0.00    +0.000 C 
ATOM     20  C   UNL     1     -11.396  -3.778   9.827  0.00  0.00    +0.000 C 
ATOM     23  C   UNL     1     -12.187  -3.043   8.748  0.00  0.00    +0.000 C 
ENDBRANCH  18  15
ENDBRANCH  24  18
ENDBRANCH  13  21
ENDBRANCH   9  13
TORSDOF 6
ENDMDL
