MODEL 1
REMARK VINA RESULT:      -6.3      0.000      0.000
REMARK  Name = 56775906
REMARK  5 active torsions:
REMARK  status: ('A' for Active; 'I' for Inactive)
REMARK    1  A    between atoms: N_2  and  C_6
REMARK    2  A    between atoms: C_5  and  C_10
REMARK    3  A    between atoms: C_6  and  C_11
REMARK    4  A    between atoms: C_6  and  C_12
REMARK    5  A    between atoms: C_13  and  C_15
REMARK                            x       y       z     vdW  Elec       q    Type
REMARK                         _______ _______ _______ _____ _____    ______ ____
ROOT
ATOM      3  N   UNL     1      16.570   6.667  20.032  0.00  0.00    -0.341 N 
ATOM      4  N   UNL     1      16.040   8.799  20.362  0.00  0.00    -0.238 NA
ATOM     10  C   UNL     1      15.629   7.646  19.881  0.00  0.00    +0.127 A 
ATOM     13  C   UNL     1      17.651   7.230  20.648  0.00  0.00    +0.066 A 
ATOM     14  C   UNL     1      17.301   8.545  20.842  0.00  0.00    +0.139 A 
ATOM     21  H   UNL     1      16.478   5.706  19.730  0.00  0.00    +0.167 HD
ENDROOT
BRANCH  10   5
ATOM      1  O   UNL     1      13.141   7.442  17.065  0.00  0.00    -0.377 OA
ATOM      2  N   UNL     1      13.149   8.078  19.857  0.00  0.00    -0.286 NA
ATOM      5  C   UNL     1      14.285   7.361  19.223  0.00  0.00    +0.149 C 
ATOM      7  C   UNL     1      11.907   7.832  19.102  0.00  0.00    +0.113 C 
ATOM      8  C   UNL     1      14.373   7.723  17.728  0.00  0.00    +0.186 C 
ATOM      9  C   UNL     1      12.082   8.206  17.636  0.00  0.00    +0.175 C 
BRANCH   2   6
ATOM      6  C   UNL     1      12.950   7.675  21.253  0.00  0.00    +0.051 C 
ATOM     11  C   UNL     1      12.541   8.890  22.079  0.00  0.00    +0.024 C 
ATOM     12  C   UNL     1      11.898   6.574  21.342  0.00  0.00    +0.024 C 
ENDBRANCH   2   6
ENDBRANCH  10   5
BRANCH  13  15
ATOM     15  C   UNL     1      18.847   6.498  20.976  0.00  0.00    -0.000 A 
ATOM     16  C   UNL     1      19.553   6.802  22.141  0.00  0.00    +0.010 A 
ATOM     17  C   UNL     1      19.299   5.486  20.130  0.00  0.00    +0.010 A 
ATOM     18  C   UNL     1      20.711   6.093  22.458  0.00  0.00    +0.001 A 
ATOM     19  C   UNL     1      20.457   4.777  20.447  0.00  0.00    +0.001 A 
ATOM     20  C   UNL     1      21.164   5.080  21.611  0.00  0.00    +0.000 A 
ENDBRANCH  13  15
TORSDOF 3
ENDMDL
MODEL 2
REMARK VINA RESULT:      -6.2      3.057      7.520
REMARK  Name = 56775906
REMARK  5 active torsions:
REMARK  status: ('A' for Active; 'I' for Inactive)
REMARK    1  A    between atoms: N_2  and  C_6
REMARK    2  A    between atoms: C_5  and  C_10
REMARK    3  A    between atoms: C_6  and  C_11
REMARK    4  A    between atoms: C_6  and  C_12
REMARK    5  A    between atoms: C_13  and  C_15
REMARK                            x       y       z     vdW  Elec       q    Type
REMARK                         _______ _______ _______ _____ _____    ______ ____
ROOT
ATOM      3  N   UNL     1      12.684   9.541  22.239  0.00  0.00    -0.341 N 
ATOM      4  N   UNL     1      11.408   7.754  21.909  0.00  0.00    -0.238 NA
ATOM     10  C   UNL     1      12.602   8.274  21.733  0.00  0.00    +0.127 A 
ATOM     13  C   UNL     1      11.465   9.849  22.772  0.00  0.00    +0.066 A 
ATOM     14  C   UNL     1      10.694   8.731  22.556  0.00  0.00    +0.139 A 
ATOM     21  H   UNL     1      13.501  10.138  22.212  0.00  0.00    +0.167 HD
ENDROOT
BRANCH  10   5
ATOM      1  O   UNL     1      16.079   6.854  21.495  0.00  0.00    -0.377 OA
ATOM      2  N   UNL     1      14.260   8.320  19.840  0.00  0.00    -0.286 NA
ATOM      5  C   UNL     1      13.796   7.610  21.060  0.00  0.00    +0.149 C 
ATOM      7  C   UNL     1      15.476   7.678  19.309  0.00  0.00    +0.113 C 
ATOM      8  C   UNL     1      14.947   7.499  22.078  0.00  0.00    +0.186 C 
ATOM      9  C   UNL     1      16.557   7.598  20.378  0.00  0.00    +0.175 C 
BRANCH   2   6
ATOM      6  C   UNL     1      13.234   8.347  18.792  0.00  0.00    +0.051 C 
ATOM     11  C   UNL     1      12.850   9.793  18.495  0.00  0.00    +0.024 C 
ATOM     12  C   UNL     1      13.743   7.647  17.535  0.00  0.00    +0.024 C 
ENDBRANCH   2   6
ENDBRANCH  10   5
BRANCH  13  15
ATOM     15  C   UNL     1      11.170  11.109  23.402  0.00  0.00    -0.000 A 
ATOM     16  C   UNL     1      10.950  12.244  22.621  0.00  0.00    +0.010 A 
ATOM     17  C   UNL     1      11.106  11.195  24.792  0.00  0.00    +0.010 A 
ATOM     18  C   UNL     1      10.665  13.465  23.232  0.00  0.00    +0.001 A 
ATOM     19  C   UNL     1      10.821  12.416  25.403  0.00  0.00    +0.001 A 
ATOM     20  C   UNL     1      10.600  13.552  24.624  0.00  0.00    +0.000 A 
ENDBRANCH  13  15
TORSDOF 3
ENDMDL
MODEL 3
REMARK VINA RESULT:      -6.1      1.974      2.625
REMARK  Name = 56775906
REMARK  5 active torsions:
REMARK  status: ('A' for Active; 'I' for Inactive)
REMARK    1  A    between atoms: N_2  and  C_6
REMARK    2  A    between atoms: C_5  and  C_10
REMARK    3  A    between atoms: C_6  and  C_11
REMARK    4  A    between atoms: C_6  and  C_12
REMARK    5  A    between atoms: C_13  and  C_15
REMARK                            x       y       z     vdW  Elec       q    Type
REMARK                         _______ _______ _______ _____ _____    ______ ____
ROOT
ATOM      3  N   UNL     1      15.808   7.091  21.277  0.00  0.00    -0.341 N 
ATOM      4  N   UNL     1      14.717   6.838  19.359  0.00  0.00    -0.238 NA
ATOM     10  C   UNL     1      14.615   7.198  20.620  0.00  0.00    +0.127 A 
ATOM     13  C   UNL     1      16.731   6.636  20.379  0.00  0.00    +0.066 A 
ATOM     14  C   UNL     1      16.034   6.487  19.203  0.00  0.00    +0.139 A 
ATOM     21  H   UNL     1      15.968   7.305  22.253  0.00  0.00    +0.167 HD
ENDROOT
BRANCH  10   5
ATOM      1  O   UNL     1      11.078   7.002  21.890  0.00  0.00    -0.377 OA
ATOM      2  N   UNL     1      12.849   8.980  20.819  0.00  0.00    -0.286 NA
ATOM      5  C   UNL     1      13.358   7.682  21.331  0.00  0.00    +0.149 C 
ATOM      7  C   UNL     1      11.580   9.327  21.484  0.00  0.00    +0.113 C 
ATOM      8  C   UNL     1      12.267   6.600  21.210  0.00  0.00    +0.186 C 
ATOM      9  C   UNL     1      10.563   8.205  21.326  0.00  0.00    +0.175 C 
BRANCH   2   6
ATOM      6  C   UNL     1      13.810  10.070  21.022  0.00  0.00    +0.051 C 
ATOM     11  C   UNL     1      13.340  11.309  20.268  0.00  0.00    +0.024 C 
ATOM     12  C   UNL     1      13.972  10.363  22.511  0.00  0.00    +0.024 C 
ENDBRANCH   2   6
ENDBRANCH  10   5
BRANCH  13  15
ATOM     15  C   UNL     1      18.112   6.402  20.711  0.00  0.00    -0.000 A 
ATOM     16  C   UNL     1      18.717   7.132  21.734  0.00  0.00    +0.010 A 
ATOM     17  C   UNL     1      18.845   5.445  20.009  0.00  0.00    +0.010 A 
ATOM     18  C   UNL     1      20.055   6.904  22.056  0.00  0.00    +0.001 A 
ATOM     19  C   UNL     1      20.183   5.218  20.330  0.00  0.00    +0.001 A 
ATOM     20  C   UNL     1      20.789   5.947  21.353  0.00  0.00    +0.000 A 
ENDBRANCH  13  15
TORSDOF 3
ENDMDL
MODEL 4
REMARK VINA RESULT:      -5.8     14.451     17.606
REMARK  Name = 56775906
REMARK  5 active torsions:
REMARK  status: ('A' for Active; 'I' for Inactive)
REMARK    1  A    between atoms: N_2  and  C_6
REMARK    2  A    between atoms: C_5  and  C_10
REMARK    3  A    between atoms: C_6  and  C_11
REMARK    4  A    between atoms: C_6  and  C_12
REMARK    5  A    between atoms: C_13  and  C_15
REMARK                            x       y       z     vdW  Elec       q    Type
REMARK                         _______ _______ _______ _____ _____    ______ ____
ROOT
ATOM      3  N   UNL     1      11.127   5.190   4.479  0.00  0.00    -0.341 N 
ATOM      4  N   UNL     1      10.046   6.361   2.933  0.00  0.00    -0.238 NA
ATOM     10  C   UNL     1      11.073   5.575   3.169  0.00  0.00    +0.127 A 
ATOM     13  C   UNL     1      10.067   5.765   5.120  0.00  0.00    +0.066 A 
ATOM     14  C   UNL     1       9.415   6.483   4.145  0.00  0.00    +0.139 A 
ATOM     21  H   UNL     1      11.833   4.593   4.892  0.00  0.00    +0.167 HD
ENDROOT
BRANCH  10   5
ATOM      1  O   UNL     1      13.061   3.088   1.164  0.00  0.00    -0.377 OA
ATOM      2  N   UNL     1      13.484   5.612   2.446  0.00  0.00    -0.286 NA
ATOM      5  C   UNL     1      12.115   5.108   2.162  0.00  0.00    +0.149 C 
ATOM      7  C   UNL     1      14.447   5.035   1.492  0.00  0.00    +0.113 C 
ATOM      8  C   UNL     1      12.116   3.568   2.120  0.00  0.00    +0.186 C 
ATOM      9  C   UNL     1      14.377   3.514   1.505  0.00  0.00    +0.175 C 
BRANCH   2   6
ATOM      6  C   UNL     1      13.559   7.076   2.379  0.00  0.00    +0.051 C 
ATOM     11  C   UNL     1      14.191   7.611   3.660  0.00  0.00    +0.024 C 
ATOM     12  C   UNL     1      14.357   7.509   1.153  0.00  0.00    +0.024 C 
ENDBRANCH   2   6
ENDBRANCH  10   5
BRANCH  13  15
ATOM     15  C   UNL     1       9.794   5.584   6.521  0.00  0.00    -0.000 A 
ATOM     16  C   UNL     1       9.328   6.654   7.285  0.00  0.00    +0.010 A 
ATOM     17  C   UNL     1       9.995   4.338   7.115  0.00  0.00    +0.010 A 
ATOM     18  C   UNL     1       9.063   6.478   8.643  0.00  0.00    +0.001 A 
ATOM     19  C   UNL     1       9.731   4.162   8.473  0.00  0.00    +0.001 A 
ATOM     20  C   UNL     1       9.264   5.231   9.238  0.00  0.00    +0.000 A 
ENDBRANCH  13  15
TORSDOF 3
ENDMDL
MODEL 5
REMARK VINA RESULT:      -5.7      1.597      2.609
REMARK  Name = 56775906
REMARK  5 active torsions:
REMARK  status: ('A' for Active; 'I' for Inactive)
REMARK    1  A    between atoms: N_2  and  C_6
REMARK    2  A    between atoms: C_5  and  C_10
REMARK    3  A    between atoms: C_6  and  C_11
REMARK    4  A    between atoms: C_6  and  C_12
REMARK    5  A    between atoms: C_13  and  C_15
REMARK                            x       y       z     vdW  Elec       q    Type
REMARK                         _______ _______ _______ _____ _____    ______ ____
ROOT
ATOM      3  N   UNL     1      16.234   7.457  20.191  0.00  0.00    -0.341 N 
ATOM      4  N   UNL     1      15.803   9.356  21.260  0.00  0.00    -0.238 NA
ATOM     10  C   UNL     1      15.339   8.468  20.408  0.00  0.00    +0.127 A 
ATOM     13  C   UNL     1      17.338   7.716  20.952  0.00  0.00    +0.066 A 
ATOM     14  C   UNL     1      17.049   8.893  21.602  0.00  0.00    +0.139 A 
ATOM     21  H   UNL     1      16.097   6.670  19.570  0.00  0.00    +0.167 HD
ENDROOT
BRANCH  10   5
ATOM      1  O   UNL     1      12.097   7.061  19.118  0.00  0.00    -0.377 OA
ATOM      2  N   UNL     1      14.048   8.996  18.314  0.00  0.00    -0.286 NA
ATOM      5  C   UNL     1      13.987   8.493  19.711  0.00  0.00    +0.149 C 
ATOM      7  C   UNL     1      12.723   8.893  17.677  0.00  0.00    +0.113 C 
ATOM      8  C   UNL     1      13.383   7.076  19.737  0.00  0.00    +0.186 C 
ATOM      9  C   UNL     1      12.195   7.466  17.755  0.00  0.00    +0.175 C 
BRANCH   2   6
ATOM      6  C   UNL     1      14.505  10.388  18.247  0.00  0.00    +0.051 C 
ATOM     11  C   UNL     1      14.745  10.774  16.791  0.00  0.00    +0.024 C 
ATOM     12  C   UNL     1      13.481  11.314  18.897  0.00  0.00    +0.024 C 
ENDBRANCH   2   6
ENDBRANCH  10   5
BRANCH  13  15
ATOM     15  C   UNL     1      18.497   6.863  20.984  0.00  0.00    -0.000 A 
ATOM     16  C   UNL     1      18.615   5.813  20.073  0.00  0.00    +0.010 A 
ATOM     17  C   UNL     1      19.500   7.085  21.926  0.00  0.00    +0.010 A 
ATOM     18  C   UNL     1      19.738   4.987  20.104  0.00  0.00    +0.001 A 
ATOM     19  C   UNL     1      20.623   6.258  21.959  0.00  0.00    +0.001 A 
ATOM     20  C   UNL     1      20.743   5.209  21.047  0.00  0.00    +0.000 A 
ENDBRANCH  13  15
TORSDOF 3
ENDMDL
MODEL 6
REMARK VINA RESULT:      -5.7     31.791     33.244
REMARK  Name = 56775906
REMARK  5 active torsions:
REMARK  status: ('A' for Active; 'I' for Inactive)
REMARK    1  A    between atoms: N_2  and  C_6
REMARK    2  A    between atoms: C_5  and  C_10
REMARK    3  A    between atoms: C_6  and  C_11
REMARK    4  A    between atoms: C_6  and  C_12
REMARK    5  A    between atoms: C_13  and  C_15
REMARK                            x       y       z     vdW  Elec       q    Type
REMARK                         _______ _______ _______ _____ _____    ______ ____
ROOT
ATOM      3  N   UNL     1     -15.794   2.968  27.154  0.00  0.00    -0.341 N 
ATOM      4  N   UNL     1     -16.619   0.969  27.661  0.00  0.00    -0.238 NA
ATOM     10  C   UNL     1     -15.966   2.015  28.119  0.00  0.00    +0.127 A 
ATOM     13  C   UNL     1     -16.373   2.502  26.009  0.00  0.00    +0.066 A 
ATOM     14  C   UNL     1     -16.875   1.267  26.346  0.00  0.00    +0.139 A 
ATOM     21  H   UNL     1     -15.315   3.852  27.274  0.00  0.00    +0.167 HD
ENDROOT
BRANCH  10   5
ATOM      1  O   UNL     1     -14.635   3.940  31.066  0.00  0.00    -0.377 OA
ATOM      2  N   UNL     1     -14.248   1.379  29.843  0.00  0.00    -0.286 NA
ATOM      5  C   UNL     1     -15.437   2.213  29.532  0.00  0.00    +0.149 C 
ATOM      7  C   UNL     1     -13.736   1.703  31.187  0.00  0.00    +0.113 C 
ATOM      8  C   UNL     1     -15.108   3.704  29.739  0.00  0.00    +0.186 C 
ATOM      9  C   UNL     1     -13.446   3.193  31.311  0.00  0.00    +0.175 C 
BRANCH   2   6
ATOM      6  C   UNL     1     -14.545  -0.056  29.776  0.00  0.00    +0.051 C 
ATOM     11  C   UNL     1     -13.251  -0.832  29.556  0.00  0.00    +0.024 C 
ATOM     12  C   UNL     1     -15.247  -0.511  31.052  0.00  0.00    +0.024 C 
ENDBRANCH   2   6
ENDBRANCH  10   5
BRANCH  13  15
ATOM     15  C   UNL     1     -16.392   3.239  24.772  0.00  0.00    -0.000 A 
ATOM     16  C   UNL     1     -17.516   3.189  23.948  0.00  0.00    +0.010 A 
ATOM     17  C   UNL     1     -15.285   4.001  24.399  0.00  0.00    +0.010 A 
ATOM     18  C   UNL     1     -17.533   3.903  22.750  0.00  0.00    +0.001 A 
ATOM     19  C   UNL     1     -15.302   4.715  23.201  0.00  0.00    +0.001 A 
ATOM     20  C   UNL     1     -16.426   4.667  22.376  0.00  0.00    +0.000 A 
ENDBRANCH  13  15
TORSDOF 3
ENDMDL
MODEL 7
REMARK VINA RESULT:      -5.6     26.574     28.310
REMARK  Name = 56775906
REMARK  5 active torsions:
REMARK  status: ('A' for Active; 'I' for Inactive)
REMARK    1  A    between atoms: N_2  and  C_6
REMARK    2  A    between atoms: C_5  and  C_10
REMARK    3  A    between atoms: C_6  and  C_11
REMARK    4  A    between atoms: C_6  and  C_12
REMARK    5  A    between atoms: C_13  and  C_15
REMARK                            x       y       z     vdW  Elec       q    Type
REMARK                         _______ _______ _______ _____ _____    ______ ____
ROOT
ATOM      3  N   UNL     1      -4.269 -10.439  15.070  0.00  0.00    -0.341 N 
ATOM      4  N   UNL     1      -4.205 -12.574  15.680  0.00  0.00    -0.238 NA
ATOM     10  C   UNL     1      -4.524 -11.354  16.053  0.00  0.00    +0.127 A 
ATOM     13  C   UNL     1      -3.757 -11.118  14.001  0.00  0.00    +0.066 A 
ATOM     14  C   UNL     1      -3.726 -12.433  14.401  0.00  0.00    +0.139 A 
ATOM     21  H   UNL     1      -4.427  -9.442  15.135  0.00  0.00    +0.167 HD
ENDROOT
BRANCH  10   5
ATOM      1  O   UNL     1      -4.991 -11.432  19.786  0.00  0.00    -0.377 OA
ATOM      2  N   UNL     1      -6.590 -11.009  17.448  0.00  0.00    -0.286 NA
ATOM      5  C   UNL     1      -5.107 -10.935  17.395  0.00  0.00    +0.149 C 
ATOM      7  C   UNL     1      -7.067 -10.688  18.805  0.00  0.00    +0.113 C 
ATOM      8  C   UNL     1      -4.493 -11.812  18.503  0.00  0.00    +0.186 C 
ATOM      9  C   UNL     1      -6.407 -11.592  19.838  0.00  0.00    +0.175 C 
BRANCH   2   6
ATOM      6  C   UNL     1      -7.223 -10.097  16.489  0.00  0.00    +0.051 C 
ATOM     11  C   UNL     1      -8.058 -10.903  15.499  0.00  0.00    +0.024 C 
ATOM     12  C   UNL     1      -8.082  -9.071  17.221  0.00  0.00    +0.024 C 
ENDBRANCH   2   6
ENDBRANCH  10   5
BRANCH  13  15
ATOM     15  C   UNL     1      -3.368 -10.481  12.770  0.00  0.00    -0.000 A 
ATOM     16  C   UNL     1      -2.017 -10.307  12.471  0.00  0.00    +0.010 A 
ATOM     17  C   UNL     1      -4.343 -10.038  11.877  0.00  0.00    +0.010 A 
ATOM     18  C   UNL     1      -1.641  -9.690  11.278  0.00  0.00    +0.001 A 
ATOM     19  C   UNL     1      -3.968  -9.421  10.684  0.00  0.00    +0.001 A 
ATOM     20  C   UNL     1      -2.616  -9.246  10.384  0.00  0.00    +0.000 A 
ENDBRANCH  13  15
TORSDOF 3
ENDMDL
MODEL 8
REMARK VINA RESULT:      -5.5     26.320     29.178
REMARK  Name = 56775906
REMARK  5 active torsions:
REMARK  status: ('A' for Active; 'I' for Inactive)
REMARK    1  A    between atoms: N_2  and  C_6
REMARK    2  A    between atoms: C_5  and  C_10
REMARK    3  A    between atoms: C_6  and  C_11
REMARK    4  A    between atoms: C_6  and  C_12
REMARK    5  A    between atoms: C_13  and  C_15
REMARK                            x       y       z     vdW  Elec       q    Type
REMARK                         _______ _______ _______ _____ _____    ______ ____
ROOT
ATOM      3  N   UNL     1      -6.013 -10.436  16.996  0.00  0.00    -0.341 N 
ATOM      4  N   UNL     1      -7.309 -12.207  16.657  0.00  0.00    -0.238 NA
ATOM     10  C   UNL     1      -7.202 -11.050  17.272  0.00  0.00    +0.127 A 
ATOM     13  C   UNL     1      -5.317 -11.252  16.151  0.00  0.00    +0.066 A 
ATOM     14  C   UNL     1      -6.136 -12.339  15.956  0.00  0.00    +0.139 A 
ATOM     21  H   UNL     1      -5.708  -9.543  17.363  0.00  0.00    +0.167 HD
ENDROOT
BRANCH  10   5
ATOM      1  O   UNL     1      -9.449 -10.782  20.279  0.00  0.00    -0.377 OA
ATOM      2  N   UNL     1      -9.503 -10.058  17.509  0.00  0.00    -0.286 NA
ATOM      5  C   UNL     1      -8.232 -10.408  18.192  0.00  0.00    +0.149 C 
ATOM      7  C   UNL     1     -10.480  -9.540  18.484  0.00  0.00    +0.113 C 
ATOM      8  C   UNL     1      -8.509 -11.359  19.372  0.00  0.00    +0.186 C 
ATOM      9  C   UNL     1     -10.688 -10.533  19.620  0.00  0.00    +0.175 C 
BRANCH   2   6
ATOM      6  C   UNL     1      -9.307  -9.061  16.451  0.00  0.00    +0.051 C 
ATOM     11  C   UNL     1      -9.936  -9.564  15.156  0.00  0.00    +0.024 C 
ATOM     12  C   UNL     1      -9.907  -7.722  16.868  0.00  0.00    +0.024 C 
ENDBRANCH   2   6
ENDBRANCH  10   5
BRANCH  13  15
ATOM     15  C   UNL     1      -4.009 -10.934  15.639  0.00  0.00    -0.000 A 
ATOM     16  C   UNL     1      -2.930 -10.804  16.514  0.00  0.00    +0.010 A 
ATOM     17  C   UNL     1      -3.822 -10.754  14.269  0.00  0.00    +0.010 A 
ATOM     18  C   UNL     1      -1.664 -10.496  16.017  0.00  0.00    +0.001 A 
ATOM     19  C   UNL     1      -2.556 -10.445  13.772  0.00  0.00    +0.001 A 
ATOM     20  C   UNL     1      -1.476 -10.316  14.646  0.00  0.00    +0.000 A 
ENDBRANCH  13  15
TORSDOF 3
ENDMDL
MODEL 9
REMARK VINA RESULT:      -5.5     26.084     28.324
REMARK  Name = 56775906
REMARK  5 active torsions:
REMARK  status: ('A' for Active; 'I' for Inactive)
REMARK    1  A    between atoms: N_2  and  C_6
REMARK    2  A    between atoms: C_5  and  C_10
REMARK    3  A    between atoms: C_6  and  C_11
REMARK    4  A    between atoms: C_6  and  C_12
REMARK    5  A    between atoms: C_13  and  C_15
REMARK                            x       y       z     vdW  Elec       q    Type
REMARK                         _______ _______ _______ _____ _____    ______ ____
ROOT
ATOM      3  N   UNL     1      -3.688 -11.469  15.055  0.00  0.00    -0.341 N 
ATOM      4  N   UNL     1      -1.514 -11.017  15.014  0.00  0.00    -0.238 NA
ATOM     10  C   UNL     1      -2.549 -11.404  14.302  0.00  0.00    +0.127 A 
ATOM     13  C   UNL     1      -3.359 -11.100  16.328  0.00  0.00    +0.066 A 
ATOM     14  C   UNL     1      -2.013 -10.826  16.278  0.00  0.00    +0.139 A 
ATOM     21  H   UNL     1      -4.602 -11.749  14.723  0.00  0.00    +0.167 HD
ENDROOT
BRANCH  10   5
ATOM      1  O   UNL     1      -3.049 -10.808  10.620  0.00  0.00    -0.377 OA
ATOM      2  N   UNL     1      -3.382 -12.946  12.495  0.00  0.00    -0.286 NA
ATOM      5  C   UNL     1      -2.558 -11.754  12.820  0.00  0.00    +0.149 C 
ATOM      7  C   UNL     1      -3.422 -13.156  11.037  0.00  0.00    +0.113 C 
ATOM      8  C   UNL     1      -3.054 -10.533  12.021  0.00  0.00    +0.186 C 
ATOM      9  C   UNL     1      -3.913 -11.903  10.324  0.00  0.00    +0.175 C 
BRANCH   2   6
ATOM      6  C   UNL     1      -2.874 -14.162  13.141  0.00  0.00    +0.051 C 
ATOM     11  C   UNL     1      -4.017 -14.871  13.859  0.00  0.00    +0.024 C 
ATOM     12  C   UNL     1      -2.224 -15.078  12.109  0.00  0.00    +0.024 C 
ENDBRANCH   2   6
ENDBRANCH  10   5
BRANCH  13  15
ATOM     15  C   UNL     1      -4.309 -11.046  17.408  0.00  0.00    -0.000 A 
ATOM     16  C   UNL     1      -5.482 -10.304  17.269  0.00  0.00    +0.010 A 
ATOM     17  C   UNL     1      -4.055 -11.734  18.594  0.00  0.00    +0.010 A 
ATOM     18  C   UNL     1      -6.402 -10.252  18.316  0.00  0.00    +0.001 A 
ATOM     19  C   UNL     1      -4.975 -11.682  19.642  0.00  0.00    +0.001 A 
ATOM     20  C   UNL     1      -6.149 -10.941  19.503  0.00  0.00    +0.000 A 
ENDBRANCH  13  15
TORSDOF 3
ENDMDL
MODEL 10
REMARK VINA RESULT:      -5.5     26.628     28.423
REMARK  Name = 56775906
REMARK  5 active torsions:
REMARK  status: ('A' for Active; 'I' for Inactive)
REMARK    1  A    between atoms: N_2  and  C_6
REMARK    2  A    between atoms: C_5  and  C_10
REMARK    3  A    between atoms: C_6  and  C_11
REMARK    4  A    between atoms: C_6  and  C_12
REMARK    5  A    between atoms: C_13  and  C_15
REMARK                            x       y       z     vdW  Elec       q    Type
REMARK                         _______ _______ _______ _____ _____    ______ ____
ROOT
ATOM      3  N   UNL     1      -4.075 -10.482  13.011  0.00  0.00    -0.341 N 
ATOM      4  N   UNL     1      -1.913 -10.783  12.604  0.00  0.00    -0.238 NA
ATOM     10  C   UNL     1      -3.093 -10.571  12.065  0.00  0.00    +0.127 A 
ATOM     13  C   UNL     1      -3.485 -10.647  14.231  0.00  0.00    +0.066 A 
ATOM     14  C   UNL     1      -2.150 -10.832  13.955  0.00  0.00    +0.139 A 
ATOM     21  H   UNL     1      -5.059 -10.329  12.830  0.00  0.00    +0.167 HD
ENDROOT
BRANCH  10   5
ATOM      1  O   UNL     1      -4.002  -8.773   8.887  0.00  0.00    -0.377 OA
ATOM      2  N   UNL     1      -4.517 -11.304  10.123  0.00  0.00    -0.286 NA
ATOM      5  C   UNL     1      -3.406 -10.430  10.581  0.00  0.00    +0.149 C 
ATOM      7  C   UNL     1      -4.825 -11.034   8.707  0.00  0.00    +0.113 C 
ATOM      8  C   UNL     1      -3.731  -8.956  10.276  0.00  0.00    +0.186 C 
ATOM      9  C   UNL     1      -5.124  -9.557   8.490  0.00  0.00    +0.175 C 
BRANCH   2   6
ATOM      6  C   UNL     1      -4.203 -12.728  10.284  0.00  0.00    +0.051 C 
ATOM     11  C   UNL     1      -5.247 -13.379  11.184  0.00  0.00    +0.024 C 
ATOM     12  C   UNL     1      -4.149 -13.415   8.923  0.00  0.00    +0.024 C 
ENDBRANCH   2   6
ENDBRANCH  10   5
BRANCH  13  15
ATOM     15  C   UNL     1      -4.210 -10.613  15.474  0.00  0.00    -0.000 A 
ATOM     16  C   UNL     1      -3.659 -11.190  16.619  0.00  0.00    +0.010 A 
ATOM     17  C   UNL     1      -5.463 -10.005  15.534  0.00  0.00    +0.010 A 
ATOM     18  C   UNL     1      -4.362 -11.158  17.823  0.00  0.00    +0.001 A 
ATOM     19  C   UNL     1      -6.167  -9.973  16.737  0.00  0.00    +0.001 A 
ATOM     20  C   UNL     1      -5.617 -10.549  17.883  0.00  0.00    +0.000 A 
ENDBRANCH  13  15
TORSDOF 3
ENDMDL
