MODEL 1
REMARK VINA RESULT:      -7.3      0.000      0.000
REMARK  Name = 11885161
REMARK  2 active torsions:
REMARK  status: ('A' for Active; 'I' for Inactive)
REMARK    1  A    between atoms: C_16  and  C_19
REMARK    2  A    between atoms: C_17  and  C_20
REMARK                            x       y       z     vdW  Elec       q    Type
REMARK                         _______ _______ _______ _____ _____    ______ ____
ROOT
ATOM      3  O   UNL     1      10.726   9.844  22.402  0.00  0.00    -0.267 OA
ATOM      4  O   UNL     1      14.792   6.922  21.734  0.00  0.00    -0.270 OA
ATOM      5  N   UNL     1      14.392   7.906  19.674  0.00  0.00    -0.297 N 
ATOM      6  N   UNL     1      11.951   9.758  20.419  0.00  0.00    -0.311 N 
ATOM      7  C   UNL     1      12.029   7.669  18.937  0.00  0.00    +0.027 C 
ATOM      8  C   UNL     1      13.313   9.671  18.302  0.00  0.00    +0.054 C 
ATOM      9  C   UNL     1      12.287   8.654  17.803  0.00  0.00    +0.018 C 
ATOM     10  C   UNL     1      13.334   6.953  19.333  0.00  0.00    +0.113 C 
ATOM     11  C   UNL     1      11.404   8.427  20.115  0.00  0.00    +0.130 C 
ATOM     12  C   UNL     1      14.628   8.948  18.658  0.00  0.00    +0.117 C 
ATOM     13  C   UNL     1      12.797  10.414  19.520  0.00  0.00    +0.027 A 
ATOM     14  C   UNL     1      13.186  11.676  19.758  0.00  0.00    +0.022 A 
ATOM     15  C   UNL     1      11.498  10.375  21.602  0.00  0.00    +0.259 A 
ATOM     16  C   UNL     1      15.032   7.820  20.924  0.00  0.00    +0.247 C 
ATOM     17  C   UNL     1      11.990  11.772  21.864  0.00  0.00    +0.047 A 
ATOM     18  C   UNL     1      12.778  12.361  20.951  0.00  0.00    +0.015 A 
ENDROOT
BRANCH  17  20
ATOM      1 CL   UNL     1      10.543  14.674  26.893  0.00  0.00    -0.084 Cl
ATOM     20  C   UNL     1      11.633  12.486  23.102  0.00  0.00    -0.013 A 
ATOM     23  C   UNL     1      10.532  13.342  23.121  0.00  0.00    +0.010 A 
ATOM     24  C   UNL     1      12.397  12.307  24.255  0.00  0.00    +0.010 A 
ATOM     27  C   UNL     1      10.194  14.019  24.294  0.00  0.00    +0.020 A 
ATOM     28  C   UNL     1      12.060  12.983  25.428  0.00  0.00    +0.020 A 
ATOM     30  C   UNL     1      10.959  13.839  25.447  0.00  0.00    +0.041 A 
ENDBRANCH  17  20
BRANCH  16  19
ATOM      2  F   UNL     1      18.692  11.835  22.197  0.00  0.00    -0.205 F 
ATOM     19  C   UNL     1      15.987   8.867  21.256  0.00  0.00    +0.037 A 
ATOM     21  C   UNL     1      17.324   8.725  20.897  0.00  0.00    +0.016 A 
ATOM     22  C   UNL     1      15.558  10.006  21.933  0.00  0.00    +0.016 A 
ATOM     25  C   UNL     1      18.240   9.729  21.214  0.00  0.00    +0.039 A 
ATOM     26  C   UNL     1      16.473  11.011  22.250  0.00  0.00    +0.039 A 
ATOM     29  C   UNL     1      17.813  10.872  21.891  0.00  0.00    +0.123 A 
ENDBRANCH  16  19
TORSDOF 2
ENDMDL
MODEL 2
REMARK VINA RESULT:      -7.1      3.992      6.854
REMARK  Name = 11885161
REMARK  2 active torsions:
REMARK  status: ('A' for Active; 'I' for Inactive)
REMARK    1  A    between atoms: C_16  and  C_19
REMARK    2  A    between atoms: C_17  and  C_20
REMARK                            x       y       z     vdW  Elec       q    Type
REMARK                         _______ _______ _______ _____ _____    ______ ____
ROOT
ATOM      3  O   UNL     1      15.252   6.268  21.659  0.00  0.00    -0.267 OA
ATOM      4  O   UNL     1      11.877   7.292  18.042  0.00  0.00    -0.270 OA
ATOM      5  N   UNL     1      11.621   8.971  19.619  0.00  0.00    -0.297 N 
ATOM      6  N   UNL     1      13.916   8.180  21.632  0.00  0.00    -0.311 N 
ATOM      7  C   UNL     1      11.372   8.088  21.931  0.00  0.00    +0.027 C 
ATOM      8  C   UNL     1      12.486  10.253  21.561  0.00  0.00    +0.054 C 
ATOM      9  C   UNL     1      11.526   9.501  22.483  0.00  0.00    +0.018 C 
ATOM     10  C   UNL     1      10.806   8.132  20.499  0.00  0.00    +0.113 C 
ATOM     11  C   UNL     1      12.733   7.384  21.994  0.00  0.00    +0.130 C 
ATOM     12  C   UNL     1      11.890  10.323  20.140  0.00  0.00    +0.117 C 
ATOM     13  C   UNL     1      13.840   9.570  21.510  0.00  0.00    +0.027 A 
ATOM     14  C   UNL     1      14.953  10.291  21.301  0.00  0.00    +0.022 A 
ATOM     15  C   UNL     1      15.138   7.487  21.523  0.00  0.00    +0.259 A 
ATOM     16  C   UNL     1      12.139   8.433  18.426  0.00  0.00    +0.247 C 
ATOM     17  C   UNL     1      16.360   8.318  21.242  0.00  0.00    +0.047 A 
ATOM     18  C   UNL     1      16.230   9.651  21.161  0.00  0.00    +0.015 A 
ENDROOT
BRANCH  17  20
ATOM      1 CL   UNL     1      21.714   5.772  20.429  0.00  0.00    -0.084 Cl
ATOM     20  C   UNL     1      17.678   7.691  21.041  0.00  0.00    -0.013 A 
ATOM     23  C   UNL     1      17.793   6.545  20.255  0.00  0.00    +0.010 A 
ATOM     24  C   UNL     1      18.811   8.244  21.638  0.00  0.00    +0.010 A 
ATOM     27  C   UNL     1      19.042   5.951  20.066  0.00  0.00    +0.020 A 
ATOM     28  C   UNL     1      20.060   7.651  21.448  0.00  0.00    +0.020 A 
ATOM     30  C   UNL     1      20.174   6.504  20.663  0.00  0.00    +0.041 A 
ENDBRANCH  17  20
BRANCH  16  19
ATOM      2  F   UNL     1      15.600  11.659  15.467  0.00  0.00    -0.205 F 
ATOM     19  C   UNL     1      13.043   9.275  17.655  0.00  0.00    +0.037 A 
ATOM     21  C   UNL     1      14.266   9.658  18.197  0.00  0.00    +0.016 A 
ATOM     22  C   UNL     1      12.677   9.694  16.378  0.00  0.00    +0.016 A 
ATOM     25  C   UNL     1      15.132  10.464  17.457  0.00  0.00    +0.039 A 
ATOM     26  C   UNL     1      13.543  10.500  15.637  0.00  0.00    +0.039 A 
ATOM     29  C   UNL     1      14.770  10.885  16.177  0.00  0.00    +0.123 A 
ENDBRANCH  16  19
TORSDOF 2
ENDMDL
MODEL 3
REMARK VINA RESULT:      -7.1     27.533     30.120
REMARK  Name = 11885161
REMARK  2 active torsions:
REMARK  status: ('A' for Active; 'I' for Inactive)
REMARK    1  A    between atoms: C_16  and  C_19
REMARK    2  A    between atoms: C_17  and  C_20
REMARK                            x       y       z     vdW  Elec       q    Type
REMARK                         _______ _______ _______ _____ _____    ______ ____
ROOT
ATOM      3  O   UNL     1      -6.374  -9.227  12.619  0.00  0.00    -0.267 OA
ATOM      4  O   UNL     1      -7.935  -8.688  17.393  0.00  0.00    -0.270 OA
ATOM      5  N   UNL     1      -8.719 -10.762  16.716  0.00  0.00    -0.297 N 
ATOM      6  N   UNL     1      -7.481 -10.892  13.819  0.00  0.00    -0.311 N 
ATOM      7  C   UNL     1      -9.929 -10.670  14.545  0.00  0.00    +0.027 C 
ATOM      8  C   UNL     1      -8.648 -12.685  15.148  0.00  0.00    +0.054 C 
ATOM      9  C   UNL     1      -9.937 -12.194  14.490  0.00  0.00    +0.018 C 
ATOM     10  C   UNL     1      -9.863 -10.188  16.006  0.00  0.00    +0.113 C 
ATOM     11  C   UNL     1      -8.749 -10.154  13.712  0.00  0.00    +0.130 C 
ATOM     12  C   UNL     1      -8.613 -12.229  16.621  0.00  0.00    +0.117 C 
ATOM     13  C   UNL     1      -7.427 -12.151  14.423  0.00  0.00    +0.027 A 
ATOM     14  C   UNL     1      -6.289 -12.862  14.401  0.00  0.00    +0.022 A 
ATOM     15  C   UNL     1      -6.358 -10.317  13.192  0.00  0.00    +0.259 A 
ATOM     16  C   UNL     1      -7.791  -9.911  17.346  0.00  0.00    +0.247 C 
ATOM     17  C   UNL     1      -5.085 -11.118  13.225  0.00  0.00    +0.047 A 
ATOM     18  C   UNL     1      -5.100 -12.332  13.796  0.00  0.00    +0.015 A 
ENDROOT
BRANCH  17  20
ATOM      1 CL   UNL     1      -0.003  -8.947  10.929  0.00  0.00    -0.084 Cl
ATOM     20  C   UNL     1      -3.834 -10.584  12.660  0.00  0.00    -0.013 A 
ATOM     23  C   UNL     1      -2.692 -10.493  13.456  0.00  0.00    +0.010 A 
ATOM     24  C   UNL     1      -3.791 -10.169  11.329  0.00  0.00    +0.010 A 
ATOM     27  C   UNL     1      -1.507  -9.986  12.921  0.00  0.00    +0.020 A 
ATOM     28  C   UNL     1      -2.607  -9.663  10.793  0.00  0.00    +0.020 A 
ATOM     30  C   UNL     1      -1.465  -9.571  11.589  0.00  0.00    +0.041 A 
ENDBRANCH  17  20
BRANCH  16  19
ATOM      2  F   UNL     1      -3.261 -12.287  19.576  0.00  0.00    -0.205 F 
ATOM     19  C   UNL     1      -6.609 -10.531  17.928  0.00  0.00    +0.037 A 
ATOM     21  C   UNL     1      -6.647 -10.999  19.239  0.00  0.00    +0.016 A 
ATOM     22  C   UNL     1      -5.447 -10.652  17.172  0.00  0.00    +0.016 A 
ATOM     25  C   UNL     1      -5.515 -11.594  19.797  0.00  0.00    +0.039 A 
ATOM     26  C   UNL     1      -4.314 -11.247  17.729  0.00  0.00    +0.039 A 
ATOM     29  C   UNL     1      -4.349 -11.718  19.041  0.00  0.00    +0.123 A 
ENDBRANCH  16  19
TORSDOF 2
ENDMDL
MODEL 4
REMARK VINA RESULT:      -7.1     24.643     27.005
REMARK  Name = 11885161
REMARK  2 active torsions:
REMARK  status: ('A' for Active; 'I' for Inactive)
REMARK    1  A    between atoms: C_16  and  C_19
REMARK    2  A    between atoms: C_17  and  C_20
REMARK                            x       y       z     vdW  Elec       q    Type
REMARK                         _______ _______ _______ _____ _____    ______ ____
ROOT
ATOM      3  O   UNL     1     -12.564  10.172  20.530  0.00  0.00    -0.267 OA
ATOM      4  O   UNL     1     -14.266  12.193  16.225  0.00  0.00    -0.270 OA
ATOM      5  N   UNL     1     -11.997  11.859  15.896  0.00  0.00    -0.297 N 
ATOM      6  N   UNL     1     -11.250  10.469  18.626  0.00  0.00    -0.311 N 
ATOM      7  C   UNL     1     -10.611  12.788  17.741  0.00  0.00    +0.027 C 
ATOM      8  C   UNL     1      -9.862  10.770  16.545  0.00  0.00    +0.054 C 
ATOM      9  C   UNL     1      -9.386  12.080  17.173  0.00  0.00    +0.018 C 
ATOM     10  C   UNL     1     -11.630  13.076  16.622  0.00  0.00    +0.113 C 
ATOM     11  C   UNL     1     -11.207  11.921  18.857  0.00  0.00    +0.130 C 
ATOM     12  C   UNL     1     -10.852  11.073  15.401  0.00  0.00    +0.117 C 
ATOM     13  C   UNL     1     -10.537   9.884  17.576  0.00  0.00    +0.027 A 
ATOM     14  C   UNL     1     -10.487   8.548  17.456  0.00  0.00    +0.022 A 
ATOM     15  C   UNL     1     -11.952   9.697  19.572  0.00  0.00    +0.259 A 
ATOM     16  C   UNL     1     -13.351  11.491  15.791  0.00  0.00    +0.247 C 
ATOM     17  C   UNL     1     -11.918   8.205  19.383  0.00  0.00    +0.047 A 
ATOM     18  C   UNL     1     -11.194   7.699  18.372  0.00  0.00    +0.015 A 
ENDROOT
BRANCH  17  20
ATOM      1 CL   UNL     1     -14.984   4.552  22.997  0.00  0.00    -0.084 Cl
ATOM     20  C   UNL     1     -12.672   7.306  20.273  0.00  0.00    -0.013 A 
ATOM     23  C   UNL     1     -11.993   6.432  21.121  0.00  0.00    +0.010 A 
ATOM     24  C   UNL     1     -14.067   7.328  20.267  0.00  0.00    +0.010 A 
ATOM     27  C   UNL     1     -12.707   5.580  21.964  0.00  0.00    +0.020 A 
ATOM     28  C   UNL     1     -14.782   6.477  21.110  0.00  0.00    +0.020 A 
ATOM     30  C   UNL     1     -14.102   5.603  21.958  0.00  0.00    +0.041 A 
ENDBRANCH  17  20
BRANCH  16  19
ATOM      2  F   UNL     1     -14.479   6.578  13.397  0.00  0.00    -0.205 F 
ATOM     19  C   UNL     1     -13.645  10.210  15.165  0.00  0.00    +0.037 A 
ATOM     21  C   UNL     1     -13.720  10.116  13.779  0.00  0.00    +0.016 A 
ATOM     22  C   UNL     1     -13.852   9.084  15.959  0.00  0.00    +0.016 A 
ATOM     25  C   UNL     1     -14.000   8.887  13.180  0.00  0.00    +0.039 A 
ATOM     26  C   UNL     1     -14.133   7.855  15.361  0.00  0.00    +0.039 A 
ATOM     29  C   UNL     1     -14.207   7.758  13.971  0.00  0.00    +0.123 A 
ENDBRANCH  16  19
TORSDOF 2
ENDMDL
MODEL 5
REMARK VINA RESULT:      -7.1     24.859     27.389
REMARK  Name = 11885161
REMARK  2 active torsions:
REMARK  status: ('A' for Active; 'I' for Inactive)
REMARK    1  A    between atoms: C_16  and  C_19
REMARK    2  A    between atoms: C_17  and  C_20
REMARK                            x       y       z     vdW  Elec       q    Type
REMARK                         _______ _______ _______ _____ _____    ______ ____
ROOT
ATOM      3  O   UNL     1     -14.056   9.108  17.965  0.00  0.00    -0.267 OA
ATOM      4  O   UNL     1     -16.580  10.155  22.214  0.00  0.00    -0.270 OA
ATOM      5  N   UNL     1     -15.830   7.977  22.462  0.00  0.00    -0.297 N 
ATOM      6  N   UNL     1     -14.187   7.660  19.789  0.00  0.00    -0.311 N 
ATOM      7  C   UNL     1     -16.380   6.542  20.506  0.00  0.00    +0.027 C 
ATOM      8  C   UNL     1     -14.316   6.129  21.785  0.00  0.00    +0.054 C 
ATOM      9  C   UNL     1     -15.476   5.446  21.060  0.00  0.00    +0.018 C 
ATOM     10  C   UNL     1     -16.915   7.424  21.649  0.00  0.00    +0.113 C 
ATOM     11  C   UNL     1     -15.590   7.353  19.470  0.00  0.00    +0.130 C 
ATOM     12  C   UNL     1     -14.863   6.978  22.951  0.00  0.00    +0.117 C 
ATOM     13  C   UNL     1     -13.528   7.015  20.839  0.00  0.00    +0.027 A 
ATOM     14  C   UNL     1     -12.216   7.216  21.036  0.00  0.00    +0.022 A 
ATOM     15  C   UNL     1     -13.520   8.547  18.922  0.00  0.00    +0.259 A 
ATOM     16  C   UNL     1     -15.737   9.368  22.648  0.00  0.00    +0.247 C 
ATOM     17  C   UNL     1     -12.061   8.788  19.198  0.00  0.00    +0.047 A 
ATOM     18  C   UNL     1     -11.475   8.121  20.204  0.00  0.00    +0.015 A 
ENDROOT
BRANCH  17  20
ATOM      1 CL   UNL     1      -8.898  12.688  15.943  0.00  0.00    -0.084 Cl
ATOM     20  C   UNL     1     -11.282   9.748  18.397  0.00  0.00    -0.013 A 
ATOM     23  C   UNL     1     -11.146  11.068  18.828  0.00  0.00    +0.010 A 
ATOM     24  C   UNL     1     -10.680   9.338  17.207  0.00  0.00    +0.010 A 
ATOM     27  C   UNL     1     -10.408  11.978  18.069  0.00  0.00    +0.020 A 
ATOM     28  C   UNL     1      -9.943  10.246  16.448  0.00  0.00    +0.020 A 
ATOM     30  C   UNL     1      -9.807  11.567  16.879  0.00  0.00    +0.041 A 
ENDBRANCH  17  20
BRANCH  16  19
ATOM      2  F   UNL     1     -11.265  11.281  25.382  0.00  0.00    -0.205 F 
ATOM     19  C   UNL     1     -14.570   9.868  23.361  0.00  0.00    +0.037 A 
ATOM     21  C   UNL     1     -13.440  10.262  22.650  0.00  0.00    +0.016 A 
ATOM     22  C   UNL     1     -14.589   9.947  24.751  0.00  0.00    +0.016 A 
ATOM     25  C   UNL     1     -12.322  10.742  23.333  0.00  0.00    +0.039 A 
ATOM     26  C   UNL     1     -13.472  10.426  25.435  0.00  0.00    +0.039 A 
ATOM     29  C   UNL     1     -12.338  10.823  24.726  0.00  0.00    +0.123 A 
ENDBRANCH  16  19
TORSDOF 2
ENDMDL
MODEL 6
REMARK VINA RESULT:      -7.0      3.859      6.311
REMARK  Name = 11885161
REMARK  2 active torsions:
REMARK  status: ('A' for Active; 'I' for Inactive)
REMARK    1  A    between atoms: C_16  and  C_19
REMARK    2  A    between atoms: C_17  and  C_20
REMARK                            x       y       z     vdW  Elec       q    Type
REMARK                         _______ _______ _______ _____ _____    ______ ____
ROOT
ATOM      3  O   UNL     1      14.201   9.580  16.637  0.00  0.00    -0.267 OA
ATOM      4  O   UNL     1      10.623   8.462  20.023  0.00  0.00    -0.270 OA
ATOM      5  N   UNL     1      12.635   8.005  21.077  0.00  0.00    -0.297 N 
ATOM      6  N   UNL     1      14.647   8.931  18.832  0.00  0.00    -0.311 N 
ATOM      7  C   UNL     1      14.137   6.575  19.703  0.00  0.00    +0.027 C 
ATOM      8  C   UNL     1      15.101   8.261  21.218  0.00  0.00    +0.054 C 
ATOM      9  C   UNL     1      15.277   6.841  20.680  0.00  0.00    +0.018 C 
ATOM     10  C   UNL     1      12.779   6.705  20.418  0.00  0.00    +0.113 C 
ATOM     11  C   UNL     1      14.265   7.545  18.522  0.00  0.00    +0.130 C 
ATOM     12  C   UNL     1      13.755   8.368  21.964  0.00  0.00    +0.117 C 
ATOM     13  C   UNL     1      15.139   9.279  20.093  0.00  0.00    +0.027 A 
ATOM     14  C   UNL     1      15.598  10.520  20.320  0.00  0.00    +0.022 A 
ATOM     15  C   UNL     1      14.594   9.856  17.771  0.00  0.00    +0.259 A 
ATOM     16  C   UNL     1      11.530   8.822  20.774  0.00  0.00    +0.247 C 
ATOM     17  C   UNL     1      15.071  11.251  18.070  0.00  0.00    +0.047 A 
ATOM     18  C   UNL     1      15.558  11.520  19.291  0.00  0.00    +0.015 A 
ENDROOT
BRANCH  17  20
ATOM      1 CL   UNL     1      14.771  15.578  13.947  0.00  0.00    -0.084 Cl
ATOM     20  C   UNL     1      14.998  12.316  17.055  0.00  0.00    -0.013 A 
ATOM     23  C   UNL     1      15.940  12.367  16.027  0.00  0.00    +0.010 A 
ATOM     24  C   UNL     1      13.985  13.274  17.120  0.00  0.00    +0.010 A 
ATOM     27  C   UNL     1      15.870  13.377  15.066  0.00  0.00    +0.020 A 
ATOM     28  C   UNL     1      13.914  14.282  16.159  0.00  0.00    +0.020 A 
ATOM     30  C   UNL     1      14.857  14.334  15.132  0.00  0.00    +0.041 A 
ENDBRANCH  17  20
BRANCH  16  19
ATOM      2  F   UNL     1      11.433  13.919  23.043  0.00  0.00    -0.205 F 
ATOM     19  C   UNL     1      11.505  10.152  21.366  0.00  0.00    +0.037 A 
ATOM     21  C   UNL     1      12.044  11.231  20.670  0.00  0.00    +0.016 A 
ATOM     22  C   UNL     1      10.943  10.339  22.626  0.00  0.00    +0.016 A 
ATOM     25  C   UNL     1      12.019  12.505  21.236  0.00  0.00    +0.039 A 
ATOM     26  C   UNL     1      10.918  11.613  23.193  0.00  0.00    +0.039 A 
ATOM     29  C   UNL     1      11.456  12.696  22.498  0.00  0.00    +0.123 A 
ENDBRANCH  16  19
TORSDOF 2
ENDMDL
MODEL 7
REMARK VINA RESULT:      -6.8     18.838     21.869
REMARK  Name = 11885161
REMARK  2 active torsions:
REMARK  status: ('A' for Active; 'I' for Inactive)
REMARK    1  A    between atoms: C_16  and  C_19
REMARK    2  A    between atoms: C_17  and  C_20
REMARK                            x       y       z     vdW  Elec       q    Type
REMARK                         _______ _______ _______ _____ _____    ______ ____
ROOT
ATOM      3  O   UNL     1      12.255   7.631   2.903  0.00  0.00    -0.267 OA
ATOM      4  O   UNL     1      13.811   6.796  -1.830  0.00  0.00    -0.270 OA
ATOM      5  N   UNL     1      13.917   4.737  -0.773  0.00  0.00    -0.297 N 
ATOM      6  N   UNL     1      12.759   5.517   2.055  0.00  0.00    -0.311 N 
ATOM      7  C   UNL     1      15.137   4.830   1.392  0.00  0.00    +0.027 C 
ATOM      8  C   UNL     1      13.277   3.243   1.104  0.00  0.00    +0.054 C 
ATOM      9  C   UNL     1      14.668   3.415   1.714  0.00  0.00    +0.018 C 
ATOM     10  C   UNL     1      15.198   5.040  -0.132  0.00  0.00    +0.113 C 
ATOM     11  C   UNL     1      14.197   5.828   2.078  0.00  0.00    +0.130 C 
ATOM     12  C   UNL     1      13.357   3.418  -0.427  0.00  0.00    +0.117 C 
ATOM     13  C   UNL     1      12.300   4.252   1.679  0.00  0.00    +0.027 A 
ATOM     14  C   UNL     1      10.997   3.949   1.782  0.00  0.00    +0.022 A 
ATOM     15  C   UNL     1      11.887   6.516   2.529  0.00  0.00    +0.259 A 
ATOM     16  C   UNL     1      13.291   5.708  -1.576  0.00  0.00    +0.247 C 
ATOM     17  C   UNL     1      10.426   6.162   2.588  0.00  0.00    +0.047 A 
ATOM     18  C   UNL     1      10.048   4.923   2.240  0.00  0.00    +0.015 A 
ENDROOT
BRANCH  17  20
ATOM      1 CL   UNL     1       6.331  10.184   4.280  0.00  0.00    -0.084 Cl
ATOM     20  C   UNL     1       9.418   7.152   3.004  0.00  0.00    -0.013 A 
ATOM     23  C   UNL     1       8.929   8.079   2.084  0.00  0.00    +0.010 A 
ATOM     24  C   UNL     1       8.951   7.162   4.319  0.00  0.00    +0.010 A 
ATOM     27  C   UNL     1       7.975   9.018   2.478  0.00  0.00    +0.020 A 
ATOM     28  C   UNL     1       7.996   8.099   4.714  0.00  0.00    +0.020 A 
ATOM     30  C   UNL     1       7.508   9.028   3.793  0.00  0.00    +0.041 A 
ENDBRANCH  17  20
BRANCH  16  19
ATOM      2  F   UNL     1       8.201   4.511  -3.523  0.00  0.00    -0.205 F 
ATOM     19  C   UNL     1      11.963   5.396  -2.084  0.00  0.00    +0.037 A 
ATOM     21  C   UNL     1      11.825   4.725  -3.296  0.00  0.00    +0.016 A 
ATOM     22  C   UNL     1      10.837   5.771  -1.356  0.00  0.00    +0.016 A 
ATOM     25  C   UNL     1      10.553   4.424  -3.783  0.00  0.00    +0.039 A 
ATOM     26  C   UNL     1       9.564   5.471  -1.843  0.00  0.00    +0.039 A 
ATOM     29  C   UNL     1       9.423   4.798  -3.056  0.00  0.00    +0.123 A 
ENDBRANCH  16  19
TORSDOF 2
ENDMDL
MODEL 8
REMARK VINA RESULT:      -6.8     16.854     19.846
REMARK  Name = 11885161
REMARK  2 active torsions:
REMARK  status: ('A' for Active; 'I' for Inactive)
REMARK    1  A    between atoms: C_16  and  C_19
REMARK    2  A    between atoms: C_17  and  C_20
REMARK                            x       y       z     vdW  Elec       q    Type
REMARK                         _______ _______ _______ _____ _____    ______ ____
ROOT
ATOM      3  O   UNL     1       8.128   7.376   3.826  0.00  0.00    -0.267 OA
ATOM      4  O   UNL     1       9.241   4.998  -0.489  0.00  0.00    -0.270 OA
ATOM      5  N   UNL     1      10.450   6.975  -0.543  0.00  0.00    -0.297 N 
ATOM      6  N   UNL     1       9.700   8.148   2.286  0.00  0.00    -0.311 N 
ATOM      7  C   UNL     1       9.051   8.971  -0.052  0.00  0.00    +0.027 C 
ATOM      8  C   UNL     1      11.419   8.940   0.624  0.00  0.00    +0.054 C 
ATOM      9  C   UNL     1      10.311   9.824   0.052  0.00  0.00    +0.018 C 
ATOM     10  C   UNL     1       9.296   7.764  -0.976  0.00  0.00    +0.113 C 
ATOM     11  C   UNL     1       8.629   8.543   1.359  0.00  0.00    +0.130 C 
ATOM     12  C   UNL     1      11.681   7.757  -0.330  0.00  0.00    +0.117 C 
ATOM     13  C   UNL     1      11.041   8.412   1.995  0.00  0.00    +0.027 A 
ATOM     14  C   UNL     1      11.993   8.156   2.906  0.00  0.00    +0.022 A 
ATOM     15  C   UNL     1       9.301   7.592   3.518  0.00  0.00    +0.259 A 
ATOM     16  C   UNL     1      10.299   5.599  -0.291  0.00  0.00    +0.247 C 
ATOM     17  C   UNL     1      10.394   7.272   4.499  0.00  0.00    +0.047 A 
ATOM     18  C   UNL     1      11.661   7.573   4.175  0.00  0.00    +0.015 A 
ENDROOT
BRANCH  17  20
ATOM      1 CL   UNL     1       9.185   4.648   9.740  0.00  0.00    -0.084 Cl
ATOM     20  C   UNL     1      10.096   6.626   5.789  0.00  0.00    -0.013 A 
ATOM     23  C   UNL     1       9.799   7.405   6.907  0.00  0.00    +0.010 A 
ATOM     24  C   UNL     1      10.111   5.235   5.893  0.00  0.00    +0.010 A 
ATOM     27  C   UNL     1       9.517   6.794   8.130  0.00  0.00    +0.020 A 
ATOM     28  C   UNL     1       9.829   4.623   7.114  0.00  0.00    +0.020 A 
ATOM     30  C   UNL     1       9.533   5.403   8.233  0.00  0.00    +0.041 A 
ENDBRANCH  17  20
BRANCH  16  19
ATOM      2  F   UNL     1      14.706   2.892   1.805  0.00  0.00    -0.205 F 
ATOM     19  C   UNL     1      11.449   4.892   0.255  0.00  0.00    +0.037 A 
ATOM     21  C   UNL     1      12.411   4.366  -0.602  0.00  0.00    +0.016 A 
ATOM     22  C   UNL     1      11.580   4.746   1.634  0.00  0.00    +0.016 A 
ATOM     25  C   UNL     1      13.513   3.690  -0.079  0.00  0.00    +0.039 A 
ATOM     26  C   UNL     1      12.682   4.070   2.158  0.00  0.00    +0.039 A 
ATOM     29  C   UNL     1      13.648   3.542   1.302  0.00  0.00    +0.123 A 
ENDBRANCH  16  19
TORSDOF 2
ENDMDL
MODEL 9
REMARK VINA RESULT:      -6.7     28.869     31.037
REMARK  Name = 11885161
REMARK  2 active torsions:
REMARK  status: ('A' for Active; 'I' for Inactive)
REMARK    1  A    between atoms: C_16  and  C_19
REMARK    2  A    between atoms: C_17  and  C_20
REMARK                            x       y       z     vdW  Elec       q    Type
REMARK                         _______ _______ _______ _____ _____    ______ ____
ROOT
ATOM      3  O   UNL     1      -6.263 -12.854  14.946  0.00  0.00    -0.267 OA
ATOM      4  O   UNL     1     -11.069 -12.069  16.291  0.00  0.00    -0.270 OA
ATOM      5  N   UNL     1      -9.815 -11.624  18.189  0.00  0.00    -0.297 N 
ATOM      6  N   UNL     1      -6.911 -12.030  17.030  0.00  0.00    -0.311 N 
ATOM      7  C   UNL     1      -8.208 -13.444  18.728  0.00  0.00    +0.027 C 
ATOM      8  C   UNL     1      -7.635 -11.108  19.259  0.00  0.00    +0.054 C 
ATOM      9  C   UNL     1      -7.547 -12.547  19.769  0.00  0.00    +0.018 C 
ATOM     10  C   UNL     1      -9.681 -13.041  18.532  0.00  0.00    +0.113 C 
ATOM     11  C   UNL     1      -7.405 -13.357  17.424  0.00  0.00    +0.130 C 
ATOM     12  C   UNL     1      -9.115 -10.704  19.104  0.00  0.00    +0.117 C 
ATOM     13  C   UNL     1      -6.926 -10.958  17.926  0.00  0.00    +0.027 A 
ATOM     14  C   UNL     1      -6.358  -9.789  17.591  0.00  0.00    +0.022 A 
ATOM     15  C   UNL     1      -6.328 -11.924  15.751  0.00  0.00    +0.259 A 
ATOM     16  C   UNL     1     -10.501 -11.252  17.018  0.00  0.00    +0.247 C 
ATOM     17  C   UNL     1      -5.742 -10.587  15.386  0.00  0.00    +0.047 A 
ATOM     18  C   UNL     1      -5.762  -9.603  16.298  0.00  0.00    +0.015 A 
ENDROOT
BRANCH  17  20
ATOM      1 CL   UNL     1      -3.411  -9.601   9.964  0.00  0.00    -0.084 Cl
ATOM     20  C   UNL     1      -5.168 -10.345  14.052  0.00  0.00    -0.013 A 
ATOM     23  C   UNL     1      -3.837 -10.672  13.795  0.00  0.00    +0.010 A 
ATOM     24  C   UNL     1      -5.956  -9.789  13.044  0.00  0.00    +0.010 A 
ATOM     27  C   UNL     1      -3.293 -10.441  12.530  0.00  0.00    +0.020 A 
ATOM     28  C   UNL     1      -5.414  -9.559  11.780  0.00  0.00    +0.020 A 
ATOM     30  C   UNL     1      -4.082  -9.885  11.523  0.00  0.00    +0.041 A 
ENDBRANCH  17  20
BRANCH  16  19
ATOM      2  F   UNL     1     -10.477  -5.840  15.660  0.00  0.00    -0.205 F 
ATOM     19  C   UNL     1     -10.496  -9.840  16.664  0.00  0.00    +0.037 A 
ATOM     21  C   UNL     1     -11.467  -8.990  17.186  0.00  0.00    +0.016 A 
ATOM     22  C   UNL     1      -9.519  -9.346  15.804  0.00  0.00    +0.016 A 
ATOM     25  C   UNL     1     -11.460  -7.637  16.848  0.00  0.00    +0.039 A 
ATOM     26  C   UNL     1      -9.511  -7.993  15.465  0.00  0.00    +0.039 A 
ATOM     29  C   UNL     1     -10.482  -7.138  15.987  0.00  0.00    +0.123 A 
ENDBRANCH  16  19
TORSDOF 2
ENDMDL
MODEL 10
REMARK VINA RESULT:      -6.7     27.994     30.046
REMARK  Name = 11885161
REMARK  2 active torsions:
REMARK  status: ('A' for Active; 'I' for Inactive)
REMARK    1  A    between atoms: C_16  and  C_19
REMARK    2  A    between atoms: C_17  and  C_20
REMARK                            x       y       z     vdW  Elec       q    Type
REMARK                         _______ _______ _______ _____ _____    ______ ____
ROOT
ATOM      3  O   UNL     1      -6.633  -9.998  14.145  0.00  0.00    -0.267 OA
ATOM      4  O   UNL     1      -4.700 -14.293  12.318  0.00  0.00    -0.270 OA
ATOM      5  N   UNL     1      -2.880 -13.051  13.034  0.00  0.00    -0.297 N 
ATOM      6  N   UNL     1      -4.370 -10.550  14.247  0.00  0.00    -0.311 N 
ATOM      7  C   UNL     1      -2.898 -10.724  12.156  0.00  0.00    +0.027 C 
ATOM      8  C   UNL     1      -1.936 -11.187  14.376  0.00  0.00    +0.054 C 
ATOM      9  C   UNL     1      -1.756 -10.362  13.101  0.00  0.00    +0.018 C 
ATOM     10  C   UNL     1      -2.862 -12.227  11.824  0.00  0.00    +0.113 C 
ATOM     11  C   UNL     1      -4.224 -10.306  12.804  0.00  0.00    +0.130 C 
ATOM     12  C   UNL     1      -1.860 -12.689  14.035  0.00  0.00    +0.117 C 
ATOM     13  C   UNL     1      -3.267 -10.885  15.038  0.00  0.00    +0.027 A 
ATOM     14  C   UNL     1      -3.397 -10.983  16.370  0.00  0.00    +0.022 A 
ATOM     15  C   UNL     1      -5.645 -10.327  14.802  0.00  0.00    +0.259 A 
ATOM     16  C   UNL     1      -3.873 -14.035  13.194  0.00  0.00    +0.247 C 
ATOM     17  C   UNL     1      -5.769 -10.492  16.293  0.00  0.00    +0.047 A 
ATOM     18  C   UNL     1      -4.670 -10.787  17.003  0.00  0.00    +0.015 A 
ENDROOT
BRANCH  17  20
ATOM      1 CL   UNL     1     -11.053  -9.911  19.042  0.00  0.00    -0.084 Cl
ATOM     20  C   UNL     1      -7.069 -10.349  16.970  0.00  0.00    -0.013 A 
ATOM     23  C   UNL     1      -7.597 -11.414  17.699  0.00  0.00    +0.010 A 
ATOM     24  C   UNL     1      -7.773  -9.148  16.882  0.00  0.00    +0.010 A 
ATOM     27  C   UNL     1      -8.830 -11.279  18.339  0.00  0.00    +0.020 A 
ATOM     28  C   UNL     1      -9.005  -9.012  17.523  0.00  0.00    +0.020 A 
ATOM     30  C   UNL     1      -9.533 -10.078  18.251  0.00  0.00    +0.041 A 
ENDBRANCH  17  20
BRANCH  16  19
ATOM      2  F   UNL     1      -4.032 -16.727  18.079  0.00  0.00    -0.205 F 
ATOM     19  C   UNL     1      -3.915 -14.737  14.468  0.00  0.00    +0.037 A 
ATOM     21  C   UNL     1      -4.742 -14.274  15.488  0.00  0.00    +0.016 A 
ATOM     22  C   UNL     1      -3.125 -15.867  14.662  0.00  0.00    +0.016 A 
ATOM     25  C   UNL     1      -4.783 -14.948  16.709  0.00  0.00    +0.039 A 
ATOM     26  C   UNL     1      -3.166 -16.541  15.883  0.00  0.00    +0.039 A 
ATOM     29  C   UNL     1      -3.995 -16.081  16.906  0.00  0.00    +0.123 A 
ENDBRANCH  16  19
TORSDOF 2
ENDMDL
