MODEL 1
REMARK VINA RESULT:      -5.9      0.000      0.000
REMARK  Name = 45361375
REMARK  18 active torsions:
REMARK  status: ('A' for Active; 'I' for Inactive)
REMARK    1  A    between atoms: O_1  and  C_12
REMARK    2  A    between atoms: O_4  and  C_28
REMARK    3  A    between atoms: O_4  and  C_35
REMARK    4  A    between atoms: O_5  and  C_29
REMARK    5  A    between atoms: O_5  and  C_36
REMARK    6  A    between atoms: O_6  and  C_34
REMARK    7  A    between atoms: O_6  and  C_37
REMARK    8  A    between atoms: N_7  and  C_16
REMARK    9  A    between atoms: N_8  and  C_26
REMARK   10  A    between atoms: N_8  and  C_27
REMARK   11  A    between atoms: C_9  and  C_19
REMARK   12  A    between atoms: C_11  and  C_21
REMARK   13  A    between atoms: C_14  and  C_20
REMARK   14  A    between atoms: C_20  and  C_22
REMARK   15  A    between atoms: C_20  and  C_23
REMARK   16  A    between atoms: C_24  and  C_25
REMARK   17  A    between atoms: C_26  and  C_28
REMARK   18  A    between atoms: C_27  and  C_29
REMARK                            x       y       z     vdW  Elec       q    Type
REMARK                         _______ _______ _______ _____ _____    ______ ____
ROOT
ATOM      9  C   UNL     1       9.512   6.017   6.005  0.00  0.00    -0.027 C 
ATOM     10  C   UNL     1      10.471   7.178   5.579  0.00  0.00    +0.028 C 
ATOM     11  C   UNL     1       9.933   8.562   6.090  0.00  0.00    +0.012 C 
ATOM     12  C   UNL     1      10.801   7.108   4.061  0.00  0.00    +0.122 C 
ATOM     13  C   UNL     1      10.126   4.660   5.586  0.00  0.00    +0.007 C 
ATOM     14  C   UNL     1      11.317   5.716   3.628  0.00  0.00    +0.029 C 
ATOM     15  C   UNL     1       9.374   6.016   7.544  0.00  0.00    +0.009 C 
ATOM     16  C   UNL     1       9.727   8.526   7.630  0.00  0.00    +0.076 C 
ATOM     17  C   UNL     1      10.414   4.573   4.094  0.00  0.00    +0.007 C 
ATOM     18  C   UNL     1       8.881   7.343   8.102  0.00  0.00    +0.023 C 
ATOM     19  C   UNL     1       8.105   6.144   5.367  0.00  0.00    +0.011 C 
ATOM     21  C   UNL     1      10.844   9.748   5.730  0.00  0.00    +0.010 C 
ENDROOT
BRANCH  16   7
ATOM      3  O   UNL     1      11.004  10.558   9.205  0.00  0.00    -0.270 OA
ATOM      7  N   UNL     1       9.123   9.747   8.120  0.00  0.00    -0.308 N 
ATOM     24  C   UNL     1       9.827  10.670   8.875  0.00  0.00    +0.244 C 
ATOM     38  H   UNL     1       8.122   9.849   7.985  0.00  0.00    +0.149 HD
BRANCH  24  25
ATOM     25  C   UNL     1       9.056  11.857   9.324  0.00  0.00    +0.037 A 
ATOM     30  C   UNL     1       8.726  12.860   8.412  0.00  0.00    +0.016 A 
ATOM     31  C   UNL     1       8.664  11.971  10.658  0.00  0.00    +0.016 A 
ATOM     32  C   UNL     1       8.003  13.977   8.834  0.00  0.00    +0.046 A 
ATOM     33  C   UNL     1       7.942  13.088  11.080  0.00  0.00    +0.046 A 
ATOM     34  C   UNL     1       7.612  14.091  10.168  0.00  0.00    +0.120 A 
BRANCH  34   6
ATOM      6  O   UNL     1       6.907  15.180  10.580  0.00  0.00    -0.495 OA
ATOM     37  C   UNL     1       5.511  15.200  10.283  0.00  0.00    +0.277 C 
ENDBRANCH  34   6
ENDBRANCH  24  25
ENDBRANCH  16   7
BRANCH  12   1
ATOM      1  O   UNL     1      11.838   8.041   3.755  0.00  0.00    -0.391 OA
ATOM     39  H   UNL     1      12.625   7.539   3.485  0.00  0.00    +0.210 HD
ENDBRANCH  12   1
BRANCH  14  20
ATOM     20  C   UNL     1      11.512   5.628   2.109  0.00  0.00    +0.078 C 
ATOM     22  C   UNL     1      10.193   5.222   1.449  0.00  0.00    +0.017 C 
BRANCH  20  23
ATOM      2  O   UNL     1      12.338   3.428   1.649  0.00  0.00    -0.275 OA
ATOM      8  N   UNL     1      13.928   5.108   1.678  0.00  0.00    -0.297 N 
ATOM     23  C   UNL     1      12.621   4.624   1.786  0.00  0.00    +0.219 C 
BRANCH   8  26
ATOM     26  C   UNL     1      14.343   6.505   1.791  0.00  0.00    +0.136 C 
BRANCH  26  28
ATOM     28  C   UNL     1      15.207   6.734   3.017  0.00  0.00    +0.178 C 
BRANCH  28   4
ATOM      4  O   UNL     1      14.465   7.456   3.990  0.00  0.00    -0.381 OA
ATOM     35  C   UNL     1      15.066   7.367   5.275  0.00  0.00    +0.194 C 
ENDBRANCH  28   4
ENDBRANCH  26  28
ENDBRANCH   8  26
BRANCH   8  27
ATOM     27  C   UNL     1      15.012   4.173   1.393  0.00  0.00    +0.136 C 
BRANCH  27  29
ATOM     29  C   UNL     1      15.701   4.501   0.080  0.00  0.00    +0.178 C 
BRANCH  29   5
ATOM      5  O   UNL     1      14.982   3.903  -0.992  0.00  0.00    -0.381 OA
ATOM     36  C   UNL     1      14.524   4.878  -1.919  0.00  0.00    +0.194 C 
ENDBRANCH  29   5
ENDBRANCH  27  29
ENDBRANCH   8  27
ENDBRANCH  20  23
ENDBRANCH  14  20
TORSDOF 12
ENDMDL
MODEL 2
REMARK VINA RESULT:      -5.7     25.835     31.007
REMARK  Name = 45361375
REMARK  18 active torsions:
REMARK  status: ('A' for Active; 'I' for Inactive)
REMARK    1  A    between atoms: O_1  and  C_12
REMARK    2  A    between atoms: O_4  and  C_28
REMARK    3  A    between atoms: O_4  and  C_35
REMARK    4  A    between atoms: O_5  and  C_29
REMARK    5  A    between atoms: O_5  and  C_36
REMARK    6  A    between atoms: O_6  and  C_34
REMARK    7  A    between atoms: O_6  and  C_37
REMARK    8  A    between atoms: N_7  and  C_16
REMARK    9  A    between atoms: N_8  and  C_26
REMARK   10  A    between atoms: N_8  and  C_27
REMARK   11  A    between atoms: C_9  and  C_19
REMARK   12  A    between atoms: C_11  and  C_21
REMARK   13  A    between atoms: C_14  and  C_20
REMARK   14  A    between atoms: C_20  and  C_22
REMARK   15  A    between atoms: C_20  and  C_23
REMARK   16  A    between atoms: C_24  and  C_25
REMARK   17  A    between atoms: C_26  and  C_28
REMARK   18  A    between atoms: C_27  and  C_29
REMARK                            x       y       z     vdW  Elec       q    Type
REMARK                         _______ _______ _______ _____ _____    ______ ____
ROOT
ATOM      9  C   UNL     1     -16.841   6.106  20.913  0.00  0.00    -0.027 C 
ATOM     10  C   UNL     1     -15.338   5.839  21.258  0.00  0.00    +0.028 C 
ATOM     11  C   UNL     1     -15.179   5.403  22.758  0.00  0.00    +0.012 C 
ATOM     12  C   UNL     1     -14.438   7.025  20.807  0.00  0.00    +0.122 C 
ATOM     13  C   UNL     1     -16.977   6.422  19.405  0.00  0.00    +0.007 C 
ATOM     14  C   UNL     1     -14.654   7.404  19.323  0.00  0.00    +0.029 C 
ATOM     15  C   UNL     1     -17.659   4.826  21.200  0.00  0.00    +0.009 C 
ATOM     16  C   UNL     1     -16.063   4.159  23.055  0.00  0.00    +0.076 C 
ATOM     17  C   UNL     1     -16.127   7.607  18.967  0.00  0.00    +0.007 C 
ATOM     18  C   UNL     1     -17.522   4.337  22.635  0.00  0.00    +0.023 C 
ATOM     19  C   UNL     1     -17.437   7.284  21.724  0.00  0.00    +0.011 C 
ATOM     21  C   UNL     1     -13.725   5.096  23.159  0.00  0.00    +0.010 C 
ENDROOT
BRANCH  16   7
ATOM      3  O   UNL     1     -16.799   1.629  24.194  0.00  0.00    -0.270 OA
ATOM      7  N   UNL     1     -16.029   3.800  24.457  0.00  0.00    -0.308 N 
ATOM     24  C   UNL     1     -16.406   2.546  24.909  0.00  0.00    +0.244 C 
ATOM     38  H   UNL     1     -15.827   4.544  25.116  0.00  0.00    +0.149 HD
BRANCH  24  25
ATOM     25  C   UNL     1     -16.340   2.344  26.379  0.00  0.00    +0.037 A 
ATOM     30  C   UNL     1     -16.678   1.108  26.929  0.00  0.00    +0.016 A 
ATOM     31  C   UNL     1     -15.942   3.391  27.210  0.00  0.00    +0.016 A 
ATOM     32  C   UNL     1     -16.619   0.918  28.310  0.00  0.00    +0.046 A 
ATOM     33  C   UNL     1     -15.882   3.202  28.591  0.00  0.00    +0.046 A 
ATOM     34  C   UNL     1     -16.221   1.965  29.141  0.00  0.00    +0.120 A 
BRANCH  34   6
ATOM      6  O   UNL     1     -16.162   1.781  30.488  0.00  0.00    -0.495 OA
ATOM     37  C   UNL     1     -15.712   2.884  31.274  0.00  0.00    +0.277 C 
ENDBRANCH  34   6
ENDBRANCH  24  25
ENDBRANCH  16   7
BRANCH  12   1
ATOM      1  O   UNL     1     -13.065   6.657  20.939  0.00  0.00    -0.391 OA
ATOM     39  H   UNL     1     -12.594   7.395  21.362  0.00  0.00    +0.210 HD
ENDBRANCH  12   1
BRANCH  14  20
ATOM     20  C   UNL     1     -13.856   8.655  18.933  0.00  0.00    +0.078 C 
ATOM     22  C   UNL     1     -14.823   9.799  18.620  0.00  0.00    +0.017 C 
BRANCH  20  23
ATOM      2  O   UNL     1     -13.478   8.036  16.652  0.00  0.00    -0.275 OA
ATOM      8  N   UNL     1     -11.576   8.409  17.916  0.00  0.00    -0.297 N 
ATOM     23  C   UNL     1     -12.961   8.346  17.732  0.00  0.00    +0.219 C 
BRANCH   8  26
ATOM     26  C   UNL     1     -10.887   8.799  19.145  0.00  0.00    +0.136 C 
BRANCH  26  28
ATOM     28  C   UNL     1     -10.540  10.277  19.145  0.00  0.00    +0.178 C 
BRANCH  28   4
ATOM      4  O   UNL     1     -11.400  10.964  20.043  0.00  0.00    -0.381 OA
ATOM     35  C   UNL     1     -12.011  12.087  19.423  0.00  0.00    +0.194 C 
ENDBRANCH  28   4
ENDBRANCH  26  28
ENDBRANCH   8  26
BRANCH   8  27
ATOM     27  C   UNL     1     -10.695   8.098  16.796  0.00  0.00    +0.136 C 
BRANCH  27  29
ATOM     29  C   UNL     1     -10.538   9.286  15.863  0.00  0.00    +0.178 C 
BRANCH  29   5
ATOM      5  O   UNL     1     -10.882   8.895  14.540  0.00  0.00    -0.381 OA
ATOM     36  C   UNL     1     -10.409   7.588  14.243  0.00  0.00    +0.194 C 
ENDBRANCH  29   5
ENDBRANCH  27  29
ENDBRANCH   8  27
ENDBRANCH  20  23
ENDBRANCH  14  20
TORSDOF 12
ENDMDL
MODEL 3
REMARK VINA RESULT:      -5.6     24.284     27.462
REMARK  Name = 45361375
REMARK  18 active torsions:
REMARK  status: ('A' for Active; 'I' for Inactive)
REMARK    1  A    between atoms: O_1  and  C_12
REMARK    2  A    between atoms: O_4  and  C_28
REMARK    3  A    between atoms: O_4  and  C_35
REMARK    4  A    between atoms: O_5  and  C_29
REMARK    5  A    between atoms: O_5  and  C_36
REMARK    6  A    between atoms: O_6  and  C_34
REMARK    7  A    between atoms: O_6  and  C_37
REMARK    8  A    between atoms: N_7  and  C_16
REMARK    9  A    between atoms: N_8  and  C_26
REMARK   10  A    between atoms: N_8  and  C_27
REMARK   11  A    between atoms: C_9  and  C_19
REMARK   12  A    between atoms: C_11  and  C_21
REMARK   13  A    between atoms: C_14  and  C_20
REMARK   14  A    between atoms: C_20  and  C_22
REMARK   15  A    between atoms: C_20  and  C_23
REMARK   16  A    between atoms: C_24  and  C_25
REMARK   17  A    between atoms: C_26  and  C_28
REMARK   18  A    between atoms: C_27  and  C_29
REMARK                            x       y       z     vdW  Elec       q    Type
REMARK                         _______ _______ _______ _____ _____    ______ ____
ROOT
ATOM      9  C   UNL     1      -3.642 -11.082  10.863  0.00  0.00    -0.027 C 
ATOM     10  C   UNL     1      -5.076 -10.840  11.441  0.00  0.00    +0.028 C 
ATOM     11  C   UNL     1      -5.930  -9.957  10.463  0.00  0.00    +0.012 C 
ATOM     12  C   UNL     1      -5.013 -10.341  12.913  0.00  0.00    +0.122 C 
ATOM     13  C   UNL     1      -2.866 -12.046  11.792  0.00  0.00    +0.007 C 
ATOM     14  C   UNL     1      -4.150 -11.254  13.814  0.00  0.00    +0.029 C 
ATOM     15  C   UNL     1      -3.763 -11.759   9.479  0.00  0.00    +0.009 C 
ATOM     16  C   UNL     1      -5.984 -10.609   9.054  0.00  0.00    +0.076 C 
ATOM     17  C   UNL     1      -2.769 -11.541  13.225  0.00  0.00    +0.007 C 
ATOM     18  C   UNL     1      -4.605 -10.960   8.494  0.00  0.00    +0.023 C 
ATOM     19  C   UNL     1      -2.830  -9.770  10.719  0.00  0.00    +0.011 C 
ATOM     21  C   UNL     1      -7.365  -9.703  10.957  0.00  0.00    +0.010 C 
ENDROOT
BRANCH  16   7
ATOM      3  O   UNL     1      -7.830 -11.460   7.027  0.00  0.00    -0.270 OA
ATOM      7  N   UNL     1      -6.666  -9.764   8.097  0.00  0.00    -0.308 N 
ATOM     24  C   UNL     1      -7.543 -10.273   7.154  0.00  0.00    +0.244 C 
ATOM     38  H   UNL     1      -6.388  -8.789   8.067  0.00  0.00    +0.149 HD
BRANCH  24  25
ATOM     25  C   UNL     1      -8.141  -9.278   6.227  0.00  0.00    +0.037 A 
ATOM     30  C   UNL     1      -7.894  -9.364   4.856  0.00  0.00    +0.016 A 
ATOM     31  C   UNL     1      -8.949  -8.257   6.726  0.00  0.00    +0.016 A 
ATOM     32  C   UNL     1      -8.454  -8.429   3.986  0.00  0.00    +0.046 A 
ATOM     33  C   UNL     1      -9.509  -7.321   5.855  0.00  0.00    +0.046 A 
ATOM     34  C   UNL     1      -9.261  -7.408   4.485  0.00  0.00    +0.120 A 
BRANCH  34   6
ATOM      6  O   UNL     1      -9.808  -6.495   3.636  0.00  0.00    -0.495 OA
ATOM     37  C   UNL     1      -9.439  -6.586   2.261  0.00  0.00    +0.277 C 
ENDBRANCH  34   6
ENDBRANCH  24  25
ENDBRANCH  16   7
BRANCH  12   1
ATOM      1  O   UNL     1      -6.327 -10.339  13.472  0.00  0.00    -0.391 OA
ATOM     39  H   UNL     1      -6.722  -9.465  13.312  0.00  0.00    +0.210 HD
ENDBRANCH  12   1
BRANCH  14  20
ATOM     20  C   UNL     1      -3.994 -10.675  15.227  0.00  0.00    +0.078 C 
ATOM     22  C   UNL     1      -2.510 -10.625  15.595  0.00  0.00    +0.017 C 
BRANCH  20  23
ATOM      2  O   UNL     1      -4.471 -12.711  16.391  0.00  0.00    -0.275 OA
ATOM      8  N   UNL     1      -5.844 -10.921  16.903  0.00  0.00    -0.297 N 
ATOM     23  C   UNL     1      -4.780 -11.526  16.226  0.00  0.00    +0.219 C 
BRANCH   8  26
ATOM     26  C   UNL     1      -6.253  -9.522  16.791  0.00  0.00    +0.136 C 
BRANCH  26  28
ATOM     28  C   UNL     1      -7.762  -9.387  16.707  0.00  0.00    +0.178 C 
BRANCH  28   4
ATOM      4  O   UNL     1      -8.177  -9.555  15.359  0.00  0.00    -0.381 OA
ATOM     35  C   UNL     1      -9.594  -9.570  15.248  0.00  0.00    +0.194 C 
ENDBRANCH  28   4
ENDBRANCH  26  28
ENDBRANCH   8  26
BRANCH   8  27
ATOM     27  C   UNL     1      -6.628 -11.711  17.846  0.00  0.00    +0.136 C 
BRANCH  27  29
ATOM     29  C   UNL     1      -6.168 -11.492  19.276  0.00  0.00    +0.178 C 
BRANCH  29   5
ATOM      5  O   UNL     1      -7.292 -11.185  20.091  0.00  0.00    -0.381 OA
ATOM     36  C   UNL     1      -8.495 -11.694  19.532  0.00  0.00    +0.194 C 
ENDBRANCH  29   5
ENDBRANCH  27  29
ENDBRANCH   8  27
ENDBRANCH  20  23
ENDBRANCH  14  20
TORSDOF 12
ENDMDL
MODEL 4
REMARK VINA RESULT:      -5.5     25.378     27.791
REMARK  Name = 45361375
REMARK  18 active torsions:
REMARK  status: ('A' for Active; 'I' for Inactive)
REMARK    1  A    between atoms: O_1  and  C_12
REMARK    2  A    between atoms: O_4  and  C_28
REMARK    3  A    between atoms: O_4  and  C_35
REMARK    4  A    between atoms: O_5  and  C_29
REMARK    5  A    between atoms: O_5  and  C_36
REMARK    6  A    between atoms: O_6  and  C_34
REMARK    7  A    between atoms: O_6  and  C_37
REMARK    8  A    between atoms: N_7  and  C_16
REMARK    9  A    between atoms: N_8  and  C_26
REMARK   10  A    between atoms: N_8  and  C_27
REMARK   11  A    between atoms: C_9  and  C_19
REMARK   12  A    between atoms: C_11  and  C_21
REMARK   13  A    between atoms: C_14  and  C_20
REMARK   14  A    between atoms: C_20  and  C_22
REMARK   15  A    between atoms: C_20  and  C_23
REMARK   16  A    between atoms: C_24  and  C_25
REMARK   17  A    between atoms: C_26  and  C_28
REMARK   18  A    between atoms: C_27  and  C_29
REMARK                            x       y       z     vdW  Elec       q    Type
REMARK                         _______ _______ _______ _____ _____    ______ ____
ROOT
ATOM      9  C   UNL     1      -4.864 -11.225  17.184  0.00  0.00    -0.027 C 
ATOM     10  C   UNL     1      -5.639 -10.587  15.984  0.00  0.00    +0.028 C 
ATOM     11  C   UNL     1      -7.189 -10.650  16.224  0.00  0.00    +0.012 C 
ATOM     12  C   UNL     1      -5.148 -11.164  14.626  0.00  0.00    +0.122 C 
ATOM     13  C   UNL     1      -3.342 -11.046  16.971  0.00  0.00    +0.007 C 
ATOM     14  C   UNL     1      -3.612 -11.075  14.462  0.00  0.00    +0.029 C 
ATOM     15  C   UNL     1      -5.247 -10.482  18.485  0.00  0.00    +0.009 C 
ATOM     16  C   UNL     1      -7.556  -9.965  17.571  0.00  0.00    +0.076 C 
ATOM     17  C   UNL     1      -2.851 -11.644  15.660  0.00  0.00    +0.007 C 
ATOM     18  C   UNL     1      -6.744 -10.486  18.757  0.00  0.00    +0.023 C 
ATOM     19  C   UNL     1      -5.168 -12.736  17.352  0.00  0.00    +0.011 C 
ATOM     21  C   UNL     1      -8.014 -10.012  15.093  0.00  0.00    +0.010 C 
ENDROOT
BRANCH  16   7
ATOM      3  O   UNL     1      -9.543  -7.896  17.490  0.00  0.00    -0.270 OA
ATOM      7  N   UNL     1      -8.963 -10.107  17.879  0.00  0.00    -0.308 N 
ATOM     24  C   UNL     1      -9.846  -9.042  17.810  0.00  0.00    +0.244 C 
ATOM     38  H   UNL     1      -9.261 -10.997  18.263  0.00  0.00    +0.149 HD
BRANCH  24  25
ATOM     25  C   UNL     1     -11.251  -9.345  18.184  0.00  0.00    +0.037 A 
ATOM     30  C   UNL     1     -12.291  -9.023  17.311  0.00  0.00    +0.016 A 
ATOM     31  C   UNL     1     -11.532  -9.951  19.409  0.00  0.00    +0.016 A 
ATOM     32  C   UNL     1     -13.611  -9.306  17.663  0.00  0.00    +0.046 A 
ATOM     33  C   UNL     1     -12.852 -10.234  19.761  0.00  0.00    +0.046 A 
ATOM     34  C   UNL     1     -13.892  -9.911  18.887  0.00  0.00    +0.120 A 
BRANCH  34   6
ATOM      6  O   UNL     1     -15.179 -10.188  19.232  0.00  0.00    -0.495 OA
ATOM     37  C   UNL     1     -16.086  -9.087  19.289  0.00  0.00    +0.277 C 
ENDBRANCH  34   6
ENDBRANCH  24  25
ENDBRANCH  16   7
BRANCH  12   1
ATOM      1  O   UNL     1      -5.717 -10.410  13.554  0.00  0.00    -0.391 OA
ATOM     39  H   UNL     1      -5.705 -10.964  12.756  0.00  0.00    +0.210 HD
ENDBRANCH  12   1
BRANCH  14  20
ATOM     20  C   UNL     1      -3.136 -11.766  13.178  0.00  0.00    +0.078 C 
ATOM     22  C   UNL     1      -1.920 -12.640  13.491  0.00  0.00    +0.017 C 
BRANCH  20  23
ATOM      2  O   UNL     1      -1.903  -9.894  12.338  0.00  0.00    -0.275 OA
ATOM      8  N   UNL     1      -3.550 -10.717  10.937  0.00  0.00    -0.297 N 
ATOM     23  C   UNL     1      -2.800 -10.715  12.118  0.00  0.00    +0.219 C 
BRANCH   8  26
ATOM     26  C   UNL     1      -4.600 -11.670  10.584  0.00  0.00    +0.136 C 
BRANCH  26  28
ATOM     28  C   UNL     1      -4.183 -12.556   9.424  0.00  0.00    +0.178 C 
BRANCH  28   4
ATOM      4  O   UNL     1      -5.123 -12.421   8.366  0.00  0.00    -0.381 OA
ATOM     35  C   UNL     1      -4.502 -11.956   7.175  0.00  0.00    +0.194 C 
ENDBRANCH  28   4
ENDBRANCH  26  28
ENDBRANCH   8  26
BRANCH   8  27
ATOM     27  C   UNL     1      -3.270  -9.714   9.915  0.00  0.00    +0.136 C 
BRANCH  27  29
ATOM     29  C   UNL     1      -4.372  -8.672   9.839  0.00  0.00    +0.178 C 
BRANCH  29   5
ATOM      5  O   UNL     1      -5.142  -8.886   8.663  0.00  0.00    -0.381 OA
ATOM     36  C   UNL     1      -6.532  -8.935   8.953  0.00  0.00    +0.194 C 
ENDBRANCH  29   5
ENDBRANCH  27  29
ENDBRANCH   8  27
ENDBRANCH  20  23
ENDBRANCH  14  20
TORSDOF 12
ENDMDL
MODEL 5
REMARK VINA RESULT:      -5.3     23.837     29.293
REMARK  Name = 45361375
REMARK  18 active torsions:
REMARK  status: ('A' for Active; 'I' for Inactive)
REMARK    1  A    between atoms: O_1  and  C_12
REMARK    2  A    between atoms: O_4  and  C_28
REMARK    3  A    between atoms: O_4  and  C_35
REMARK    4  A    between atoms: O_5  and  C_29
REMARK    5  A    between atoms: O_5  and  C_36
REMARK    6  A    between atoms: O_6  and  C_34
REMARK    7  A    between atoms: O_6  and  C_37
REMARK    8  A    between atoms: N_7  and  C_16
REMARK    9  A    between atoms: N_8  and  C_26
REMARK   10  A    between atoms: N_8  and  C_27
REMARK   11  A    between atoms: C_9  and  C_19
REMARK   12  A    between atoms: C_11  and  C_21
REMARK   13  A    between atoms: C_14  and  C_20
REMARK   14  A    between atoms: C_20  and  C_22
REMARK   15  A    between atoms: C_20  and  C_23
REMARK   16  A    between atoms: C_24  and  C_25
REMARK   17  A    between atoms: C_26  and  C_28
REMARK   18  A    between atoms: C_27  and  C_29
REMARK                            x       y       z     vdW  Elec       q    Type
REMARK                         _______ _______ _______ _____ _____    ______ ____
ROOT
ATOM      9  C   UNL     1     -11.695   7.948  19.124  0.00  0.00    -0.027 C 
ATOM     10  C   UNL     1     -13.120   7.825  18.488  0.00  0.00    +0.028 C 
ATOM     11  C   UNL     1     -13.268   8.793  17.260  0.00  0.00    +0.012 C 
ATOM     12  C   UNL     1     -14.232   7.940  19.569  0.00  0.00    +0.122 C 
ATOM     13  C   UNL     1     -11.543   6.904  20.255  0.00  0.00    +0.007 C 
ATOM     14  C   UNL     1     -14.017   6.964  20.749  0.00  0.00    +0.029 C 
ATOM     15  C   UNL     1     -10.633   7.632  18.046  0.00  0.00    +0.009 C 
ATOM     16  C   UNL     1     -12.150   8.517  16.217  0.00  0.00    +0.076 C 
ATOM     17  C   UNL     1     -12.607   7.039  21.336  0.00  0.00    +0.007 C 
ATOM     18  C   UNL     1     -10.744   8.523  16.817  0.00  0.00    +0.023 C 
ATOM     19  C   UNL     1     -11.425   9.358  19.708  0.00  0.00    +0.011 C 
ATOM     21  C   UNL     1     -14.639   8.703  16.567  0.00  0.00    +0.010 C 
ENDROOT
BRANCH  16   7
ATOM      3  O   UNL     1     -11.676   7.961  13.441  0.00  0.00    -0.270 OA
ATOM      7  N   UNL     1     -12.187   9.468  15.126  0.00  0.00    -0.308 N 
ATOM     24  C   UNL     1     -11.943   9.100  13.813  0.00  0.00    +0.244 C 
ATOM     38  H   UNL     1     -12.286  10.447  15.375  0.00  0.00    +0.149 HD
BRANCH  24  25
ATOM     25  C   UNL     1     -11.992  10.198  12.815  0.00  0.00    +0.037 A 
ATOM     30  C   UNL     1     -12.050  11.525  13.241  0.00  0.00    +0.016 A 
ATOM     31  C   UNL     1     -11.982   9.903  11.452  0.00  0.00    +0.016 A 
ATOM     32  C   UNL     1     -12.098  12.558  12.303  0.00  0.00    +0.046 A 
ATOM     33  C   UNL     1     -12.029  10.935  10.514  0.00  0.00    +0.046 A 
ATOM     34  C   UNL     1     -12.088  12.262  10.940  0.00  0.00    +0.120 A 
BRANCH  34   6
ATOM      6  O   UNL     1     -12.134  13.269  10.024  0.00  0.00    -0.495 OA
ATOM     37  C   UNL     1     -11.004  13.416   9.165  0.00  0.00    +0.277 C 
ENDBRANCH  34   6
ENDBRANCH  24  25
ENDBRANCH  16   7
BRANCH  12   1
ATOM      1  O   UNL     1     -15.495   7.610  18.991  0.00  0.00    -0.391 OA
ATOM     39  H   UNL     1     -16.018   8.426  18.921  0.00  0.00    +0.210 HD
ENDBRANCH  12   1
BRANCH  14  20
ATOM     20  C   UNL     1     -15.047   7.184  21.864  0.00  0.00    +0.078 C 
ATOM     22  C   UNL     1     -14.570   8.308  22.786  0.00  0.00    +0.017 C 
BRANCH  20  23
ATOM      2  O   UNL     1     -14.370   5.491  23.415  0.00  0.00    -0.275 OA
ATOM      8  N   UNL     1     -16.440   5.175  22.430  0.00  0.00    -0.297 N 
ATOM     23  C   UNL     1     -15.253   5.883  22.644  0.00  0.00    +0.219 C 
BRANCH   8  26
ATOM     26  C   UNL     1     -17.545   5.585  21.565  0.00  0.00    +0.136 C 
BRANCH  26  28
ATOM     28  C   UNL     1     -17.782   4.583  20.450  0.00  0.00    +0.178 C 
BRANCH  28   4
ATOM      4  O   UNL     1     -16.826   4.788  19.419  0.00  0.00    -0.381 OA
ATOM     35  C   UNL     1     -17.443   4.839  18.140  0.00  0.00    +0.194 C 
ENDBRANCH  28   4
ENDBRANCH  26  28
ENDBRANCH   8  26
BRANCH   8  27
ATOM     27  C   UNL     1     -16.657   3.919  23.141  0.00  0.00    +0.136 C 
BRANCH  27  29
ATOM     29  C   UNL     1     -17.686   4.075  24.246  0.00  0.00    +0.178 C 
BRANCH  29   5
ATOM      5  O   UNL     1     -17.021   4.320  25.479  0.00  0.00    -0.381 OA
ATOM     36  C   UNL     1     -15.999   3.363  25.719  0.00  0.00    +0.194 C 
ENDBRANCH  29   5
ENDBRANCH  27  29
ENDBRANCH   8  27
ENDBRANCH  20  23
ENDBRANCH  14  20
TORSDOF 12
ENDMDL
MODEL 6
REMARK VINA RESULT:      -5.2      4.195     10.103
REMARK  Name = 45361375
REMARK  18 active torsions:
REMARK  status: ('A' for Active; 'I' for Inactive)
REMARK    1  A    between atoms: O_1  and  C_12
REMARK    2  A    between atoms: O_4  and  C_28
REMARK    3  A    between atoms: O_4  and  C_35
REMARK    4  A    between atoms: O_5  and  C_29
REMARK    5  A    between atoms: O_5  and  C_36
REMARK    6  A    between atoms: O_6  and  C_34
REMARK    7  A    between atoms: O_6  and  C_37
REMARK    8  A    between atoms: N_7  and  C_16
REMARK    9  A    between atoms: N_8  and  C_26
REMARK   10  A    between atoms: N_8  and  C_27
REMARK   11  A    between atoms: C_9  and  C_19
REMARK   12  A    between atoms: C_11  and  C_21
REMARK   13  A    between atoms: C_14  and  C_20
REMARK   14  A    between atoms: C_20  and  C_22
REMARK   15  A    between atoms: C_20  and  C_23
REMARK   16  A    between atoms: C_24  and  C_25
REMARK   17  A    between atoms: C_26  and  C_28
REMARK   18  A    between atoms: C_27  and  C_29
REMARK                            x       y       z     vdW  Elec       q    Type
REMARK                         _______ _______ _______ _____ _____    ______ ____
ROOT
ATOM      9  C   UNL     1      14.058   6.829   1.955  0.00  0.00    -0.027 C 
ATOM     10  C   UNL     1      14.183   7.293   3.444  0.00  0.00    +0.028 C 
ATOM     11  C   UNL     1      15.677   7.232   3.924  0.00  0.00    +0.012 C 
ATOM     12  C   UNL     1      13.157   6.556   4.352  0.00  0.00    +0.122 C 
ATOM     13  C   UNL     1      12.597   7.009   1.479  0.00  0.00    +0.007 C 
ATOM     14  C   UNL     1      11.711   6.652   3.814  0.00  0.00    +0.029 C 
ATOM     15  C   UNL     1      14.954   7.726   1.070  0.00  0.00    +0.009 C 
ATOM     16  C   UNL     1      16.581   8.077   2.984  0.00  0.00    +0.076 C 
ATOM     17  C   UNL     1      11.594   6.256   2.343  0.00  0.00    +0.007 C 
ATOM     18  C   UNL     1      16.412   7.728   1.505  0.00  0.00    +0.023 C 
ATOM     19  C   UNL     1      14.467   5.347   1.758  0.00  0.00    +0.011 C 
ATOM     21  C   UNL     1      15.877   7.704   5.375  0.00  0.00    +0.010 C 
ENDROOT
BRANCH  16   7
ATOM      3  O   UNL     1      18.283  10.140   4.026  0.00  0.00    -0.270 OA
ATOM      7  N   UNL     1      17.981   7.950   3.329  0.00  0.00    -0.308 N 
ATOM     24  C   UNL     1      18.720   9.010   3.828  0.00  0.00    +0.244 C 
ATOM     38  H   UNL     1      18.436   7.077   3.082  0.00  0.00    +0.149 HD
BRANCH  24  25
ATOM     25  C   UNL     1      20.150   8.724   4.107  0.00  0.00    +0.037 A 
ATOM     30  C   UNL     1      21.137   9.601   3.657  0.00  0.00    +0.016 A 
ATOM     31  C   UNL     1      20.507   7.578   4.818  0.00  0.00    +0.016 A 
ATOM     32  C   UNL     1      22.481   9.332   3.918  0.00  0.00    +0.046 A 
ATOM     33  C   UNL     1      21.851   7.309   5.078  0.00  0.00    +0.046 A 
ATOM     34  C   UNL     1      22.838   8.186   4.628  0.00  0.00    +0.120 A 
BRANCH  34   6
ATOM      6  O   UNL     1      24.149   7.923   4.883  0.00  0.00    -0.495 OA
ATOM     37  C   UNL     1      25.029   9.043   4.978  0.00  0.00    +0.277 C 
ENDBRANCH  34   6
ENDBRANCH  24  25
ENDBRANCH  16   7
BRANCH  12   1
ATOM      1  O   UNL     1      13.152   7.155   5.648  0.00  0.00    -0.391 OA
ATOM     39  H   UNL     1      12.382   7.746   5.705  0.00  0.00    +0.210 HD
ENDBRANCH  12   1
BRANCH  14  20
ATOM     20  C   UNL     1      10.736   5.811   4.650  0.00  0.00    +0.078 C 
ATOM     22  C   UNL     1      10.077   4.758   3.756  0.00  0.00    +0.017 C 
BRANCH  20  23
ATOM      2  O   UNL     1       8.926   7.375   4.574  0.00  0.00    -0.275 OA
ATOM      8  N   UNL     1       9.651   6.786   6.691  0.00  0.00    -0.297 N 
ATOM     23  C   UNL     1       9.688   6.720   5.294  0.00  0.00    +0.219 C 
BRANCH   8  26
ATOM     26  C   UNL     1      10.490   6.021   7.612  0.00  0.00    +0.136 C 
BRANCH  26  28
ATOM     28  C   UNL     1       9.812   4.734   8.045  0.00  0.00    +0.178 C 
BRANCH  28   4
ATOM      4  O   UNL     1      10.097   4.488   9.416  0.00  0.00    -0.381 OA
ATOM     35  C   UNL     1       8.936   4.635  10.223  0.00  0.00    +0.194 C 
ENDBRANCH  28   4
ENDBRANCH  26  28
ENDBRANCH   8  26
BRANCH   8  27
ATOM     27  C   UNL     1       8.678   7.660   7.336  0.00  0.00    +0.136 C 
BRANCH  27  29
ATOM     29  C   UNL     1       9.351   8.836   8.020  0.00  0.00    +0.178 C 
BRANCH  29   5
ATOM      5  O   UNL     1       9.982   9.653   7.042  0.00  0.00    -0.381 OA
ATOM     36  C   UNL     1       9.212  10.812   6.756  0.00  0.00    +0.194 C 
ENDBRANCH  29   5
ENDBRANCH  27  29
ENDBRANCH   8  27
ENDBRANCH  20  23
ENDBRANCH  14  20
TORSDOF 12
ENDMDL
MODEL 7
REMARK VINA RESULT:      -5.2     24.827     30.236
REMARK  Name = 45361375
REMARK  18 active torsions:
REMARK  status: ('A' for Active; 'I' for Inactive)
REMARK    1  A    between atoms: O_1  and  C_12
REMARK    2  A    between atoms: O_4  and  C_28
REMARK    3  A    between atoms: O_4  and  C_35
REMARK    4  A    between atoms: O_5  and  C_29
REMARK    5  A    between atoms: O_5  and  C_36
REMARK    6  A    between atoms: O_6  and  C_34
REMARK    7  A    between atoms: O_6  and  C_37
REMARK    8  A    between atoms: N_7  and  C_16
REMARK    9  A    between atoms: N_8  and  C_26
REMARK   10  A    between atoms: N_8  and  C_27
REMARK   11  A    between atoms: C_9  and  C_19
REMARK   12  A    between atoms: C_11  and  C_21
REMARK   13  A    between atoms: C_14  and  C_20
REMARK   14  A    between atoms: C_20  and  C_22
REMARK   15  A    between atoms: C_20  and  C_23
REMARK   16  A    between atoms: C_24  and  C_25
REMARK   17  A    between atoms: C_26  and  C_28
REMARK   18  A    between atoms: C_27  and  C_29
REMARK                            x       y       z     vdW  Elec       q    Type
REMARK                         _______ _______ _______ _____ _____    ______ ____
ROOT
ATOM      9  C   UNL     1     -15.074   7.697  21.130  0.00  0.00    -0.027 C 
ATOM     10  C   UNL     1     -13.963   6.600  21.226  0.00  0.00    +0.028 C 
ATOM     11  C   UNL     1     -14.109   5.772  22.552  0.00  0.00    +0.012 C 
ATOM     12  C   UNL     1     -12.553   7.202  20.964  0.00  0.00    +0.122 C 
ATOM     13  C   UNL     1     -14.973   8.417  19.765  0.00  0.00    +0.007 C 
ATOM     14  C   UNL     1     -12.486   8.008  19.647  0.00  0.00    +0.029 C 
ATOM     15  C   UNL     1     -16.461   7.018  21.202  0.00  0.00    +0.009 C 
ATOM     16  C   UNL     1     -15.532   5.155  22.650  0.00  0.00    +0.076 C 
ATOM     17  C   UNL     1     -13.605   9.042  19.522  0.00  0.00    +0.007 C 
ATOM     18  C   UNL     1     -16.651   6.177  22.456  0.00  0.00    +0.023 C 
ATOM     19  C   UNL     1     -14.965   8.753  22.259  0.00  0.00    +0.011 C 
ATOM     21  C   UNL     1     -13.062   4.653  22.699  0.00  0.00    +0.010 C 
ENDROOT
BRANCH  16   7
ATOM      3  O   UNL     1     -16.480   2.472  23.027  0.00  0.00    -0.270 OA
ATOM      7  N   UNL     1     -15.739   4.481  23.915  0.00  0.00    -0.308 N 
ATOM     24  C   UNL     1     -16.202   3.178  23.992  0.00  0.00    +0.244 C 
ATOM     38  H   UNL     1     -15.641   5.043  24.754  0.00  0.00    +0.149 HD
BRANCH  24  25
ATOM     25  C   UNL     1     -16.388   2.641  25.364  0.00  0.00    +0.037 A 
ATOM     30  C   UNL     1     -16.091   3.435  26.471  0.00  0.00    +0.016 A 
ATOM     31  C   UNL     1     -16.858   1.340  25.545  0.00  0.00    +0.016 A 
ATOM     32  C   UNL     1     -16.263   2.930  27.760  0.00  0.00    +0.046 A 
ATOM     33  C   UNL     1     -17.031   0.834  26.834  0.00  0.00    +0.046 A 
ATOM     34  C   UNL     1     -16.733   1.629  27.941  0.00  0.00    +0.120 A 
BRANCH  34   6
ATOM      6  O   UNL     1     -16.903   1.135  29.199  0.00  0.00    -0.495 OA
ATOM     37  C   UNL     1     -15.724   0.764  29.914  0.00  0.00    +0.277 C 
ENDBRANCH  34   6
ENDBRANCH  24  25
ENDBRANCH  16   7
BRANCH  12   1
ATOM      1  O   UNL     1     -11.598   6.146  20.846  0.00  0.00    -0.391 OA
ATOM     39  H   UNL     1     -10.779   6.429  21.287  0.00  0.00    +0.210 HD
ENDBRANCH  12   1
BRANCH  14  20
ATOM     20  C   UNL     1     -11.128   8.701  19.472  0.00  0.00    +0.078 C 
ATOM     22  C   UNL     1     -11.189  10.103  20.083  0.00  0.00    +0.017 C 
BRANCH  20  23
ATOM      2  O   UNL     1     -10.525   7.717  17.375  0.00  0.00    -0.275 OA
ATOM      8  N   UNL     1     -10.698  10.024  17.384  0.00  0.00    -0.297 N 
ATOM     23  C   UNL     1     -10.765   8.764  17.987  0.00  0.00    +0.219 C 
BRANCH   8  26
ATOM     26  C   UNL     1     -10.998  11.303  18.025  0.00  0.00    +0.136 C 
BRANCH  26  28
ATOM     28  C   UNL     1     -10.046  12.394  17.566  0.00  0.00    +0.178 C 
BRANCH  28   4
ATOM      4  O   UNL     1     -10.464  13.641  18.103  0.00  0.00    -0.381 OA
ATOM     35  C   UNL     1     -11.770  13.558  18.659  0.00  0.00    +0.194 C 
ENDBRANCH  28   4
ENDBRANCH  26  28
ENDBRANCH   8  26
BRANCH   8  27
ATOM     27  C   UNL     1     -10.332  10.120  15.975  0.00  0.00    +0.136 C 
BRANCH  27  29
ATOM     29  C   UNL     1     -11.548   9.995  15.073  0.00  0.00    +0.178 C 
BRANCH  29   5
ATOM      5  O   UNL     1     -11.511   8.742  14.403  0.00  0.00    -0.381 OA
ATOM     36  C   UNL     1     -12.811   8.182  14.275  0.00  0.00    +0.194 C 
ENDBRANCH  29   5
ENDBRANCH  27  29
ENDBRANCH   8  27
ENDBRANCH  20  23
ENDBRANCH  14  20
TORSDOF 12
ENDMDL
MODEL 8
REMARK VINA RESULT:      -5.2      1.200      2.085
REMARK  Name = 45361375
REMARK  18 active torsions:
REMARK  status: ('A' for Active; 'I' for Inactive)
REMARK    1  A    between atoms: O_1  and  C_12
REMARK    2  A    between atoms: O_4  and  C_28
REMARK    3  A    between atoms: O_4  and  C_35
REMARK    4  A    between atoms: O_5  and  C_29
REMARK    5  A    between atoms: O_5  and  C_36
REMARK    6  A    between atoms: O_6  and  C_34
REMARK    7  A    between atoms: O_6  and  C_37
REMARK    8  A    between atoms: N_7  and  C_16
REMARK    9  A    between atoms: N_8  and  C_26
REMARK   10  A    between atoms: N_8  and  C_27
REMARK   11  A    between atoms: C_9  and  C_19
REMARK   12  A    between atoms: C_11  and  C_21
REMARK   13  A    between atoms: C_14  and  C_20
REMARK   14  A    between atoms: C_20  and  C_22
REMARK   15  A    between atoms: C_20  and  C_23
REMARK   16  A    between atoms: C_24  and  C_25
REMARK   17  A    between atoms: C_26  and  C_28
REMARK   18  A    between atoms: C_27  and  C_29
REMARK                            x       y       z     vdW  Elec       q    Type
REMARK                         _______ _______ _______ _____ _____    ______ ____
ROOT
ATOM      9  C   UNL     1       9.528   5.876   5.916  0.00  0.00    -0.027 C 
ATOM     10  C   UNL     1      10.479   7.039   5.479  0.00  0.00    +0.028 C 
ATOM     11  C   UNL     1       9.957   8.419   6.017  0.00  0.00    +0.012 C 
ATOM     12  C   UNL     1      10.773   6.984   3.953  0.00  0.00    +0.122 C 
ATOM     13  C   UNL     1      10.129   4.522   5.469  0.00  0.00    +0.007 C 
ATOM     14  C   UNL     1      11.276   5.595   3.494  0.00  0.00    +0.029 C 
ATOM     15  C   UNL     1       9.427   5.859   7.459  0.00  0.00    +0.009 C 
ATOM     16  C   UNL     1       9.787   8.367   7.561  0.00  0.00    +0.076 C 
ATOM     17  C   UNL     1      10.381   4.450   3.969  0.00  0.00    +0.007 C 
ATOM     18  C   UNL     1       8.950   7.182   8.041  0.00  0.00    +0.023 C 
ATOM     19  C   UNL     1       8.107   6.013   5.314  0.00  0.00    +0.011 C 
ATOM     21  C   UNL     1      10.862   9.607   5.648  0.00  0.00    +0.010 C 
ENDROOT
BRANCH  16   7
ATOM      3  O   UNL     1      11.127  10.421   9.054  0.00  0.00    -0.270 OA
ATOM      7  N   UNL     1       9.198   9.585   8.077  0.00  0.00    -0.308 N 
ATOM     24  C   UNL     1       9.932  10.519   8.789  0.00  0.00    +0.244 C 
ATOM     38  H   UNL     1       8.190   9.676   7.997  0.00  0.00    +0.149 HD
BRANCH  24  25
ATOM     25  C   UNL     1       9.174  11.701   9.274  0.00  0.00    +0.037 A 
ATOM     30  C   UNL     1       8.910  12.763   8.409  0.00  0.00    +0.016 A 
ATOM     31  C   UNL     1       8.728  11.750  10.595  0.00  0.00    +0.016 A 
ATOM     32  C   UNL     1       8.200  13.874   8.865  0.00  0.00    +0.046 A 
ATOM     33  C   UNL     1       8.018  12.861  11.050  0.00  0.00    +0.046 A 
ATOM     34  C   UNL     1       7.754  13.923  10.185  0.00  0.00    +0.120 A 
BRANCH  34   6
ATOM      6  O   UNL     1       7.061  15.007  10.631  0.00  0.00    -0.495 OA
ATOM     37  C   UNL     1       5.653  15.016  10.399  0.00  0.00    +0.277 C 
ENDBRANCH  34   6
ENDBRANCH  24  25
ENDBRANCH  16   7
BRANCH  12   1
ATOM      1  O   UNL     1      11.804   7.918   3.632  0.00  0.00    -0.391 OA
ATOM     39  H   UNL     1      11.485   8.809   3.855  0.00  0.00    +0.210 HD
ENDBRANCH  12   1
BRANCH  14  20
ATOM     20  C   UNL     1      11.435   5.522   1.970  0.00  0.00    +0.078 C 
ATOM     22  C   UNL     1      10.081   5.205   1.332  0.00  0.00    +0.017 C 
BRANCH  20  23
ATOM      2  O   UNL     1      12.399   3.336   2.111  0.00  0.00    -0.275 OA
ATOM      8  N   UNL     1      13.497   4.826   0.724  0.00  0.00    -0.297 N 
ATOM     23  C   UNL     1      12.476   4.462   1.607  0.00  0.00    +0.219 C 
BRANCH   8  26
ATOM     26  C   UNL     1      13.641   6.120   0.059  0.00  0.00    +0.136 C 
BRANCH  26  28
ATOM     28  C   UNL     1      12.887   6.157  -1.258  0.00  0.00    +0.178 C 
BRANCH  28   4
ATOM      4  O   UNL     1      13.812   6.295  -2.328  0.00  0.00    -0.381 OA
ATOM     35  C   UNL     1      13.307   7.148  -3.347  0.00  0.00    +0.194 C 
ENDBRANCH  28   4
ENDBRANCH  26  28
ENDBRANCH   8  26
BRANCH   8  27
ATOM     27  C   UNL     1      14.519   3.845   0.374  0.00  0.00    +0.136 C 
BRANCH  27  29
ATOM     29  C   UNL     1      15.830   4.513   0.002  0.00  0.00    +0.178 C 
BRANCH  29   5
ATOM      5  O   UNL     1      16.195   4.133  -1.319  0.00  0.00    -0.381 OA
ATOM     36  C   UNL     1      17.429   4.719  -1.708  0.00  0.00    +0.194 C 
ENDBRANCH  29   5
ENDBRANCH  27  29
ENDBRANCH   8  27
ENDBRANCH  20  23
ENDBRANCH  14  20
TORSDOF 12
ENDMDL
MODEL 9
REMARK VINA RESULT:      -5.2     31.520     38.031
REMARK  Name = 45361375
REMARK  18 active torsions:
REMARK  status: ('A' for Active; 'I' for Inactive)
REMARK    1  A    between atoms: O_1  and  C_12
REMARK    2  A    between atoms: O_4  and  C_28
REMARK    3  A    between atoms: O_4  and  C_35
REMARK    4  A    between atoms: O_5  and  C_29
REMARK    5  A    between atoms: O_5  and  C_36
REMARK    6  A    between atoms: O_6  and  C_34
REMARK    7  A    between atoms: O_6  and  C_37
REMARK    8  A    between atoms: N_7  and  C_16
REMARK    9  A    between atoms: N_8  and  C_26
REMARK   10  A    between atoms: N_8  and  C_27
REMARK   11  A    between atoms: C_9  and  C_19
REMARK   12  A    between atoms: C_11  and  C_21
REMARK   13  A    between atoms: C_14  and  C_20
REMARK   14  A    between atoms: C_20  and  C_22
REMARK   15  A    between atoms: C_20  and  C_23
REMARK   16  A    between atoms: C_24  and  C_25
REMARK   17  A    between atoms: C_26  and  C_28
REMARK   18  A    between atoms: C_27  and  C_29
REMARK                            x       y       z     vdW  Elec       q    Type
REMARK                         _______ _______ _______ _____ _____    ______ ____
ROOT
ATOM      9  C   UNL     1      -1.676   6.899  39.847  0.00  0.00    -0.027 C 
ATOM     10  C   UNL     1      -2.953   7.685  39.398  0.00  0.00    +0.028 C 
ATOM     11  C   UNL     1      -2.564   8.926  38.518  0.00  0.00    +0.012 C 
ATOM     12  C   UNL     1      -3.883   7.987  40.608  0.00  0.00    +0.122 C 
ATOM     13  C   UNL     1      -2.098   5.623  40.613  0.00  0.00    +0.007 C 
ATOM     14  C   UNL     1      -4.217   6.722  41.432  0.00  0.00    +0.029 C 
ATOM     15  C   UNL     1      -0.890   6.455  38.592  0.00  0.00    +0.009 C 
ATOM     16  C   UNL     1      -1.710   8.477  37.299  0.00  0.00    +0.076 C 
ATOM     17  C   UNL     1      -2.976   5.919  41.822  0.00  0.00    +0.007 C 
ATOM     18  C   UNL     1      -0.508   7.615  37.684  0.00  0.00    +0.023 C 
ATOM     19  C   UNL     1      -0.748   7.743  40.757  0.00  0.00    +0.011 C 
ATOM     21  C   UNL     1      -3.776   9.730  38.017  0.00  0.00    +0.010 C 
ENDROOT
BRANCH  16   7
ATOM      3  O   UNL     1      -0.148  10.679  38.274  0.00  0.00    -0.270 OA
ATOM      7  N   UNL     1      -1.237   9.609  36.530  0.00  0.00    -0.308 N 
ATOM     24  C   UNL     1      -0.486  10.626  37.095  0.00  0.00    +0.244 C 
ATOM     38  H   UNL     1      -1.577   9.689  35.577  0.00  0.00    +0.149 HD
BRANCH  24  25
ATOM     25  C   UNL     1      -0.101  11.729  36.178  0.00  0.00    +0.037 A 
ATOM     30  C   UNL     1       0.018  11.489  34.809  0.00  0.00    +0.016 A 
ATOM     31  C   UNL     1       0.141  13.005  36.686  0.00  0.00    +0.016 A 
ATOM     32  C   UNL     1       0.381  12.525  33.948  0.00  0.00    +0.046 A 
ATOM     33  C   UNL     1       0.504  14.041  35.825  0.00  0.00    +0.046 A 
ATOM     34  C   UNL     1       0.624  13.801  34.456  0.00  0.00    +0.120 A 
BRANCH  34   6
ATOM      6  O   UNL     1       0.978  14.812  33.616  0.00  0.00    -0.495 OA
ATOM     37  C   UNL     1       1.455  14.444  32.322  0.00  0.00    +0.277 C 
ENDBRANCH  34   6
ENDBRANCH  24  25
ENDBRANCH  16   7
BRANCH  12   1
ATOM      1  O   UNL     1      -5.126   8.507  40.136  0.00  0.00    -0.391 OA
ATOM     39  H   UNL     1      -4.951   9.361  39.704  0.00  0.00    +0.210 HD
ENDBRANCH  12   1
BRANCH  14  20
ATOM     20  C   UNL     1      -5.025   7.060  42.692  0.00  0.00    +0.078 C 
ATOM     22  C   UNL     1      -4.233   6.641  43.932  0.00  0.00    +0.017 C 
BRANCH  20  23
ATOM      2  O   UNL     1      -6.427   5.122  42.612  0.00  0.00    -0.275 OA
ATOM      8  N   UNL     1      -7.530   7.155  42.609  0.00  0.00    -0.297 N 
ATOM     23  C   UNL     1      -6.382   6.357  42.642  0.00  0.00    +0.219 C 
BRANCH   8  26
ATOM     26  C   UNL     1      -7.567   8.615  42.675  0.00  0.00    +0.136 C 
BRANCH  26  28
ATOM     28  C   UNL     1      -8.378   9.204  41.535  0.00  0.00    +0.178 C 
BRANCH  28   4
ATOM      4  O   UNL     1      -7.820   8.791  40.295  0.00  0.00    -0.381 OA
ATOM     35  C   UNL     1      -8.734   8.979  39.223  0.00  0.00    +0.194 C 
ENDBRANCH  28   4
ENDBRANCH  26  28
ENDBRANCH   8  26
BRANCH   8  27
ATOM     27  C   UNL     1      -8.840   6.515  42.539  0.00  0.00    +0.136 C 
BRANCH  27  29
ATOM     29  C   UNL     1      -9.458   6.356  43.916  0.00  0.00    +0.178 C 
BRANCH  29   5
ATOM      5  O   UNL     1     -10.483   7.326  44.088  0.00  0.00    -0.381 OA
ATOM     36  C   UNL     1     -11.207   7.538  42.885  0.00  0.00    +0.194 C 
ENDBRANCH  29   5
ENDBRANCH  27  29
ENDBRANCH   8  27
ENDBRANCH  20  23
ENDBRANCH  14  20
TORSDOF 12
ENDMDL
MODEL 10
REMARK VINA RESULT:      -5.1     26.399     28.854
REMARK  Name = 45361375
REMARK  18 active torsions:
REMARK  status: ('A' for Active; 'I' for Inactive)
REMARK    1  A    between atoms: O_1  and  C_12
REMARK    2  A    between atoms: O_4  and  C_28
REMARK    3  A    between atoms: O_4  and  C_35
REMARK    4  A    between atoms: O_5  and  C_29
REMARK    5  A    between atoms: O_5  and  C_36
REMARK    6  A    between atoms: O_6  and  C_34
REMARK    7  A    between atoms: O_6  and  C_37
REMARK    8  A    between atoms: N_7  and  C_16
REMARK    9  A    between atoms: N_8  and  C_26
REMARK   10  A    between atoms: N_8  and  C_27
REMARK   11  A    between atoms: C_9  and  C_19
REMARK   12  A    between atoms: C_11  and  C_21
REMARK   13  A    between atoms: C_14  and  C_20
REMARK   14  A    between atoms: C_20  and  C_22
REMARK   15  A    between atoms: C_20  and  C_23
REMARK   16  A    between atoms: C_24  and  C_25
REMARK   17  A    between atoms: C_26  and  C_28
REMARK   18  A    between atoms: C_27  and  C_29
REMARK                            x       y       z     vdW  Elec       q    Type
REMARK                         _______ _______ _______ _____ _____    ______ ____
ROOT
ATOM      9  C   UNL     1      -5.041 -11.401  17.388  0.00  0.00    -0.027 C 
ATOM     10  C   UNL     1      -6.060 -10.735  16.405  0.00  0.00    +0.028 C 
ATOM     11  C   UNL     1      -7.513 -10.767  17.000  0.00  0.00    +0.012 C 
ATOM     12  C   UNL     1      -5.913 -11.309  14.967  0.00  0.00    +0.122 C 
ATOM     13  C   UNL     1      -3.608 -11.253  16.826  0.00  0.00    +0.007 C 
ATOM     14  C   UNL     1      -4.457 -11.252  14.450  0.00  0.00    +0.029 C 
ATOM     15  C   UNL     1      -5.093 -10.663  18.745  0.00  0.00    +0.009 C 
ATOM     16  C   UNL     1      -7.538 -10.088  18.398  0.00  0.00    +0.076 C 
ATOM     17  C   UNL     1      -3.450 -11.849  15.434  0.00  0.00    +0.007 C 
ATOM     18  C   UNL     1      -6.485 -10.637  19.360  0.00  0.00    +0.023 C 
ATOM     19  C   UNL     1      -5.333 -12.907  17.615  0.00  0.00    +0.011 C 
ATOM     21  C   UNL     1      -8.564 -10.100  16.096  0.00  0.00    +0.010 C 
ENDROOT
BRANCH  16   7
ATOM      3  O   UNL     1      -8.772 -12.496  19.359  0.00  0.00    -0.270 OA
ATOM      7  N   UNL     1      -8.838 -10.202  19.026  0.00  0.00    -0.308 N 
ATOM     24  C   UNL     1      -9.347 -11.415  19.458  0.00  0.00    +0.244 C 
ATOM     38  H   UNL     1      -9.417  -9.369  19.035  0.00  0.00    +0.149 HD
BRANCH  24  25
ATOM     25  C   UNL     1     -10.706 -11.368  20.057  0.00  0.00    +0.037 A 
ATOM     30  C   UNL     1     -11.265 -12.520  20.610  0.00  0.00    +0.016 A 
ATOM     31  C   UNL     1     -11.423 -10.171  20.065  0.00  0.00    +0.016 A 
ATOM     32  C   UNL     1     -12.541 -12.476  21.171  0.00  0.00    +0.046 A 
ATOM     33  C   UNL     1     -12.700 -10.127  20.626  0.00  0.00    +0.046 A 
ATOM     34  C   UNL     1     -13.259 -11.280  21.178  0.00  0.00    +0.120 A 
BRANCH  34   6
ATOM      6  O   UNL     1     -14.505 -11.236  21.726  0.00  0.00    -0.495 OA
ATOM     37  C   UNL     1     -14.760 -12.107  22.827  0.00  0.00    +0.277 C 
ENDBRANCH  34   6
ENDBRANCH  24  25
ENDBRANCH  16   7
BRANCH  12   1
ATOM      1  O   UNL     1      -6.699 -10.533  14.062  0.00  0.00    -0.391 OA
ATOM     39  H   UNL     1      -7.044 -11.128  13.375  0.00  0.00    +0.210 HD
ENDBRANCH  12   1
BRANCH  14  20
ATOM     20  C   UNL     1      -4.310 -11.940  13.086  0.00  0.00    +0.078 C 
ATOM     22  C   UNL     1      -3.081 -12.852  13.106  0.00  0.00    +0.017 C 
BRANCH  20  23
ATOM      2  O   UNL     1      -3.360  -9.980  12.092  0.00  0.00    -0.275 OA
ATOM      8  N   UNL     1      -5.067 -10.984  10.894  0.00  0.00    -0.297 N 
ATOM     23  C   UNL     1      -4.195 -10.886  11.983  0.00  0.00    +0.219 C 
BRANCH   8  26
ATOM     26  C   UNL     1      -6.055 -12.038  10.673  0.00  0.00    +0.136 C 
BRANCH  26  28
ATOM     28  C   UNL     1      -7.434 -11.463  10.403  0.00  0.00    +0.178 C 
BRANCH  28   4
ATOM      4  O   UNL     1      -7.891 -10.772  11.558  0.00  0.00    -0.381 OA
ATOM     35  C   UNL     1      -8.662  -9.630  11.210  0.00  0.00    +0.194 C 
ENDBRANCH  28   4
ENDBRANCH  26  28
ENDBRANCH   8  26
BRANCH   8  27
ATOM     27  C   UNL     1      -4.998  -9.981   9.836  0.00  0.00    +0.136 C 
BRANCH  27  29
ATOM     29  C   UNL     1      -4.455 -10.569   8.546  0.00  0.00    +0.178 C 
BRANCH  29   5
ATOM      5  O   UNL     1      -5.168 -10.024   7.442  0.00  0.00    -0.381 OA
ATOM     36  C   UNL     1      -6.041 -10.983   6.862  0.00  0.00    +0.194 C 
ENDBRANCH  29   5
ENDBRANCH  27  29
ENDBRANCH   8  27
ENDBRANCH  20  23
ENDBRANCH  14  20
TORSDOF 12
ENDMDL
