MODEL 1
REMARK VINA RESULT:      -8.1      0.000      0.000
REMARK  Name = 45784388
REMARK  14 active torsions:
REMARK  status: ('A' for Active; 'I' for Inactive)
REMARK    1  A    between atoms: O_1  and  C_11
REMARK    2  A    between atoms: O_4  and  C_31
REMARK    3  A    between atoms: O_4  and  C_37
REMARK    4  A    between atoms: O_5  and  C_32
REMARK    5  A    between atoms: O_5  and  C_38
REMARK    6  A    between atoms: N_6  and  C_15
REMARK    7  A    between atoms: N_7  and  C_25
REMARK    8  A    between atoms: C_8  and  C_18
REMARK    9  A    between atoms: C_10  and  C_20
REMARK   10  A    between atoms: C_14  and  C_19
REMARK   11  A    between atoms: C_19  and  C_21
REMARK   12  A    between atoms: C_19  and  C_22
REMARK   13  A    between atoms: C_23  and  C_24
REMARK   14  A    between atoms: C_25  and  C_28
REMARK                            x       y       z     vdW  Elec       q    Type
REMARK                         _______ _______ _______ _____ _____    ______ ____
ROOT
ATOM      8  C   UNL     1     -16.808   6.368  22.738  0.00  0.00    -0.027 C 
ATOM      9  C   UNL     1     -15.323   5.928  22.970  0.00  0.00    +0.028 C 
ATOM     10  C   UNL     1     -14.491   6.046  21.643  0.00  0.00    +0.012 C 
ATOM     11  C   UNL     1     -15.250   4.548  23.685  0.00  0.00    +0.122 C 
ATOM     12  C   UNL     1     -17.568   6.349  24.085  0.00  0.00    +0.007 C 
ATOM     13  C   UNL     1     -16.825   7.821  22.208  0.00  0.00    +0.009 C 
ATOM     14  C   UNL     1     -16.097   4.501  24.977  0.00  0.00    +0.029 C 
ATOM     15  C   UNL     1     -14.578   7.492  21.079  0.00  0.00    +0.076 C 
ATOM     16  C   UNL     1     -17.531   4.988  24.768  0.00  0.00    +0.007 C 
ATOM     17  C   UNL     1     -16.011   8.003  20.935  0.00  0.00    +0.023 C 
ATOM     18  C   UNL     1     -17.548   5.450  21.733  0.00  0.00    +0.011 C 
ATOM     20  C   UNL     1     -13.013   5.655  21.806  0.00  0.00    +0.010 C 
ENDROOT
BRANCH  15   6
ATOM      3  O   UNL     1     -12.254   9.069  20.482  0.00  0.00    -0.270 OA
ATOM      6  N   UNL     1     -13.919   7.608  19.796  0.00  0.00    -0.308 N 
ATOM     23  C   UNL     1     -12.798   8.399  19.608  0.00  0.00    +0.244 C 
ATOM     39  H   UNL     1     -14.379   7.173  19.003  0.00  0.00    +0.149 HD
BRANCH  23  24
ATOM     24  C   UNL     1     -12.255   8.431  18.226  0.00  0.00    +0.037 A 
ATOM     26  C   UNL     1     -10.876   8.469  18.019  0.00  0.00    +0.016 A 
ATOM     27  C   UNL     1     -13.124   8.424  17.134  0.00  0.00    +0.016 A 
ATOM     29  C   UNL     1     -10.366   8.501  16.720  0.00  0.00    +0.046 A 
ATOM     30  C   UNL     1     -12.615   8.455  15.836  0.00  0.00    +0.046 A 
ATOM     31  C   UNL     1     -11.235   8.494  15.629  0.00  0.00    +0.120 A 
BRANCH  31   4
ATOM      4  O   UNL     1     -10.738   8.526  14.363  0.00  0.00    -0.495 OA
ATOM     37  C   UNL     1     -10.304   7.287  13.804  0.00  0.00    +0.277 C 
ENDBRANCH  31   4
ENDBRANCH  23  24
ENDBRANCH  15   6
BRANCH  11   1
ATOM      1  O   UNL     1     -13.901   4.282  24.071  0.00  0.00    -0.391 OA
ATOM     40  H   UNL     1     -13.917   3.676  24.832  0.00  0.00    +0.210 HD
ENDBRANCH  11   1
BRANCH  14  19
ATOM     19  C   UNL     1     -16.118   3.098  25.595  0.00  0.00    +0.077 C 
ATOM     21  C   UNL     1     -17.003   2.174  24.767  0.00  0.00    +0.017 C 
BRANCH  19  22
ATOM      2  O   UNL     1     -17.764   3.002  27.368  0.00  0.00    -0.276 OA
ATOM      7  N   UNL     1     -15.559   3.456  27.926  0.00  0.00    -0.311 N 
ATOM     22  C   UNL     1     -16.592   3.173  27.043  0.00  0.00    +0.216 C 
ATOM     41  H   UNL     1     -14.606   3.532  27.584  0.00  0.00    +0.149 HD
BRANCH   7  25
ATOM     25  C   UNL     1     -15.761   3.579  29.351  0.00  0.00    +0.143 C 
BRANCH  25  28
ATOM     28  C   UNL     1     -15.423   2.311  30.079  0.00  0.00    +0.011 A 
ATOM     32  C   UNL     1     -15.145   2.327  31.446  0.00  0.00    +0.125 A 
ATOM     33  C   UNL     1     -15.390   1.107  29.374  0.00  0.00    +0.009 A 
ATOM     34  C   UNL     1     -14.834   1.139  32.108  0.00  0.00    +0.046 A 
ATOM     35  C   UNL     1     -15.079  -0.080  30.036  0.00  0.00    +0.001 A 
ATOM     36  C   UNL     1     -14.801  -0.064  31.403  0.00  0.00    +0.004 A 
BRANCH  32   5
ATOM      5  O   UNL     1     -15.174   3.493  32.150  0.00  0.00    -0.495 OA
ATOM     38  C   UNL     1     -14.444   3.528  33.374  0.00  0.00    +0.277 C 
ENDBRANCH  32   5
ENDBRANCH  25  28
ENDBRANCH   7  25
ENDBRANCH  19  22
ENDBRANCH  14  19
TORSDOF 9
ENDMDL
MODEL 2
REMARK VINA RESULT:      -7.9      1.675      2.360
REMARK  Name = 45784388
REMARK  14 active torsions:
REMARK  status: ('A' for Active; 'I' for Inactive)
REMARK    1  A    between atoms: O_1  and  C_11
REMARK    2  A    between atoms: O_4  and  C_31
REMARK    3  A    between atoms: O_4  and  C_37
REMARK    4  A    between atoms: O_5  and  C_32
REMARK    5  A    between atoms: O_5  and  C_38
REMARK    6  A    between atoms: N_6  and  C_15
REMARK    7  A    between atoms: N_7  and  C_25
REMARK    8  A    between atoms: C_8  and  C_18
REMARK    9  A    between atoms: C_10  and  C_20
REMARK   10  A    between atoms: C_14  and  C_19
REMARK   11  A    between atoms: C_19  and  C_21
REMARK   12  A    between atoms: C_19  and  C_22
REMARK   13  A    between atoms: C_23  and  C_24
REMARK   14  A    between atoms: C_25  and  C_28
REMARK                            x       y       z     vdW  Elec       q    Type
REMARK                         _______ _______ _______ _____ _____    ______ ____
ROOT
ATOM      8  C   UNL     1     -16.957   6.668  23.613  0.00  0.00    -0.027 C 
ATOM      9  C   UNL     1     -15.849   5.564  23.532  0.00  0.00    +0.028 C 
ATOM     10  C   UNL     1     -14.936   5.780  22.273  0.00  0.00    +0.012 C 
ATOM     11  C   UNL     1     -16.460   4.141  23.679  0.00  0.00    +0.122 C 
ATOM     12  C   UNL     1     -17.764   6.493  24.921  0.00  0.00    +0.007 C 
ATOM     13  C   UNL     1     -16.281   8.057  23.659  0.00  0.00    +0.009 C 
ATOM     14  C   UNL     1     -17.352   4.003  24.934  0.00  0.00    +0.029 C 
ATOM     15  C   UNL     1     -14.321   7.208  22.291  0.00  0.00    +0.076 C 
ATOM     16  C   UNL     1     -18.396   5.113  25.048  0.00  0.00    +0.007 C 
ATOM     17  C   UNL     1     -15.360   8.314  22.475  0.00  0.00    +0.023 C 
ATOM     18  C   UNL     1     -17.934   6.615  22.412  0.00  0.00    +0.011 C 
ATOM     20  C   UNL     1     -13.806   4.745  22.147  0.00  0.00    +0.010 C 
ENDROOT
BRANCH  15   6
ATOM      3  O   UNL     1     -12.336   9.252  21.941  0.00  0.00    -0.270 OA
ATOM      6  N   UNL     1     -13.567   7.483  21.086  0.00  0.00    -0.308 N 
ATOM     23  C   UNL     1     -12.627   8.497  21.017  0.00  0.00    +0.244 C 
ATOM     39  H   UNL     1     -13.836   6.974  20.251  0.00  0.00    +0.149 HD
BRANCH  23  24
ATOM     24  C   UNL     1     -11.957   8.667  19.702  0.00  0.00    +0.037 A 
ATOM     26  C   UNL     1     -12.500   8.074  18.562  0.00  0.00    +0.016 A 
ATOM     27  C   UNL     1     -10.786   9.420  19.607  0.00  0.00    +0.016 A 
ATOM     29  C   UNL     1     -11.870   8.233  17.327  0.00  0.00    +0.046 A 
ATOM     30  C   UNL     1     -10.157   9.579  18.372  0.00  0.00    +0.046 A 
ATOM     31  C   UNL     1     -10.699   8.985  17.232  0.00  0.00    +0.120 A 
BRANCH  31   4
ATOM      4  O   UNL     1     -10.084   9.139  16.028  0.00  0.00    -0.495 OA
ATOM     37  C   UNL     1     -10.855   8.844  14.863  0.00  0.00    +0.277 C 
ENDBRANCH  31   4
ENDBRANCH  23  24
ENDBRANCH  15   6
BRANCH  11   1
ATOM      1  O   UNL     1     -15.409   3.183  23.817  0.00  0.00    -0.391 OA
ATOM     40  H   UNL     1     -15.492   2.537  23.095  0.00  0.00    +0.210 HD
ENDBRANCH  11   1
BRANCH  14  19
ATOM     19  C   UNL     1     -18.048   2.637  24.991  0.00  0.00    +0.077 C 
ATOM     21  C   UNL     1     -19.390   2.762  25.703  0.00  0.00    +0.017 C 
BRANCH  19  22
ATOM      2  O   UNL     1     -16.456   0.813  25.059  0.00  0.00    -0.276 OA
ATOM      7  N   UNL     1     -17.195   1.716  27.064  0.00  0.00    -0.311 N 
ATOM     22  C   UNL     1     -17.144   1.620  25.681  0.00  0.00    +0.216 C 
ATOM     41  H   UNL     1     -17.749   2.446  27.501  0.00  0.00    +0.149 HD
BRANCH   7  25
ATOM     25  C   UNL     1     -16.428   0.857  27.936  0.00  0.00    +0.143 C 
BRANCH  25  28
ATOM     28  C   UNL     1     -15.629   1.640  28.936  0.00  0.00    +0.011 A 
ATOM     32  C   UNL     1     -14.802   0.991  29.853  0.00  0.00    +0.125 A 
ATOM     33  C   UNL     1     -15.719   3.033  28.942  0.00  0.00    +0.009 A 
ATOM     34  C   UNL     1     -14.066   1.734  30.775  0.00  0.00    +0.046 A 
ATOM     35  C   UNL     1     -14.983   3.776  29.865  0.00  0.00    +0.001 A 
ATOM     36  C   UNL     1     -14.156   3.126  30.781  0.00  0.00    +0.004 A 
BRANCH  32   5
ATOM      5  O   UNL     1     -14.701  -0.368  29.861  0.00  0.00    -0.495 OA
ATOM     38  C   UNL     1     -13.452  -0.926  29.459  0.00  0.00    +0.277 C 
ENDBRANCH  32   5
ENDBRANCH  25  28
ENDBRANCH   7  25
ENDBRANCH  19  22
ENDBRANCH  14  19
TORSDOF 9
ENDMDL
MODEL 3
REMARK VINA RESULT:      -7.8     19.039     22.598
REMARK  Name = 45784388
REMARK  14 active torsions:
REMARK  status: ('A' for Active; 'I' for Inactive)
REMARK    1  A    between atoms: O_1  and  C_11
REMARK    2  A    between atoms: O_4  and  C_31
REMARK    3  A    between atoms: O_4  and  C_37
REMARK    4  A    between atoms: O_5  and  C_32
REMARK    5  A    between atoms: O_5  and  C_38
REMARK    6  A    between atoms: N_6  and  C_15
REMARK    7  A    between atoms: N_7  and  C_25
REMARK    8  A    between atoms: C_8  and  C_18
REMARK    9  A    between atoms: C_10  and  C_20
REMARK   10  A    between atoms: C_14  and  C_19
REMARK   11  A    between atoms: C_19  and  C_21
REMARK   12  A    between atoms: C_19  and  C_22
REMARK   13  A    between atoms: C_23  and  C_24
REMARK   14  A    between atoms: C_25  and  C_28
REMARK                            x       y       z     vdW  Elec       q    Type
REMARK                         _______ _______ _______ _____ _____    ______ ____
ROOT
ATOM      8  C   UNL     1      -6.874 -11.275  38.817  0.00  0.00    -0.027 C 
ATOM      9  C   UNL     1      -7.961 -10.155  38.690  0.00  0.00    +0.028 C 
ATOM     10  C   UNL     1      -8.921 -10.442  37.480  0.00  0.00    +0.012 C 
ATOM     11  C   UNL     1      -7.317  -8.739  38.712  0.00  0.00    +0.122 C 
ATOM     12  C   UNL     1      -6.020 -11.023  40.081  0.00  0.00    +0.007 C 
ATOM     13  C   UNL     1      -7.577 -12.642  38.986  0.00  0.00    +0.009 C 
ATOM     14  C   UNL     1      -6.381  -8.530  39.924  0.00  0.00    +0.029 C 
ATOM     15  C   UNL     1      -9.563 -11.850  37.623  0.00  0.00    +0.076 C 
ATOM     16  C   UNL     1      -5.356  -9.652  40.087  0.00  0.00    +0.007 C 
ATOM     17  C   UNL     1      -8.542 -12.963  37.855  0.00  0.00    +0.023 C 
ATOM     18  C   UNL     1      -5.937 -11.332  37.584  0.00  0.00    +0.011 C 
ATOM     20  C   UNL     1     -10.033  -9.393  37.314  0.00  0.00    +0.010 C 
ENDROOT
BRANCH  15   6
ATOM      3  O   UNL     1     -12.429 -11.982  37.498  0.00  0.00    -0.270 OA
ATOM      6  N   UNL     1     -10.363 -12.194  36.467  0.00  0.00    -0.308 N 
ATOM     23  C   UNL     1     -11.747 -12.231  36.508  0.00  0.00    +0.244 C 
ATOM     39  H   UNL     1      -9.864 -12.523  35.646  0.00  0.00    +0.149 HD
BRANCH  23  24
ATOM     24  C   UNL     1     -12.419 -12.628  35.245  0.00  0.00    +0.037 A 
ATOM     26  C   UNL     1     -11.950 -13.724  34.520  0.00  0.00    +0.016 A 
ATOM     27  C   UNL     1     -13.520 -11.906  34.783  0.00  0.00    +0.016 A 
ATOM     29  C   UNL     1     -12.581 -14.096  33.332  0.00  0.00    +0.046 A 
ATOM     30  C   UNL     1     -14.151 -12.279  33.596  0.00  0.00    +0.046 A 
ATOM     31  C   UNL     1     -13.681 -13.374  32.871  0.00  0.00    +0.120 A 
BRANCH  31   4
ATOM      4  O   UNL     1     -14.296 -13.737  31.712  0.00  0.00    -0.495 OA
ATOM     37  C   UNL     1     -14.674 -12.688  30.822  0.00  0.00    +0.277 C 
ENDBRANCH  31   4
ENDBRANCH  23  24
ENDBRANCH  15   6
BRANCH  11   1
ATOM      1  O   UNL     1      -8.343  -7.750  38.813  0.00  0.00    -0.391 OA
ATOM     40  H   UNL     1      -8.454  -7.524  39.752  0.00  0.00    +0.210 HD
ENDBRANCH  11   1
BRANCH  14  19
ATOM     19  C   UNL     1      -5.656  -7.181  39.858  0.00  0.00    +0.077 C 
ATOM     21  C   UNL     1      -4.157  -7.381  40.051  0.00  0.00    +0.017 C 
BRANCH  19  22
ATOM      2  O   UNL     1      -5.723  -6.079  42.014  0.00  0.00    -0.276 OA
ATOM      7  N   UNL     1      -7.368  -5.573  40.458  0.00  0.00    -0.311 N 
ATOM     22  C   UNL     1      -6.229  -6.229  40.904  0.00  0.00    +0.216 C 
ATOM     41  H   UNL     1      -7.693  -5.713  39.507  0.00  0.00    +0.149 HD
BRANCH   7  25
ATOM     25  C   UNL     1      -8.092  -4.624  41.271  0.00  0.00    +0.143 C 
BRANCH  25  28
ATOM     28  C   UNL     1      -8.962  -3.724  40.444  0.00  0.00    +0.011 A 
ATOM     32  C   UNL     1      -9.940  -4.254  39.601  0.00  0.00    +0.125 A 
ATOM     33  C   UNL     1      -8.786  -2.342  40.524  0.00  0.00    +0.009 A 
ATOM     34  C   UNL     1     -10.740  -3.404  38.840  0.00  0.00    +0.046 A 
ATOM     35  C   UNL     1      -9.587  -1.491  39.762  0.00  0.00    +0.001 A 
ATOM     36  C   UNL     1     -10.564  -2.022  38.920  0.00  0.00    +0.004 A 
BRANCH  32   5
ATOM      5  O   UNL     1     -10.125  -5.601  39.511  0.00  0.00    -0.495 OA
ATOM     38  C   UNL     1     -11.201  -6.158  40.264  0.00  0.00    +0.277 C 
ENDBRANCH  32   5
ENDBRANCH  25  28
ENDBRANCH   7  25
ENDBRANCH  19  22
ENDBRANCH  14  19
TORSDOF 9
ENDMDL
MODEL 4
REMARK VINA RESULT:      -7.6      2.106     12.522
REMARK  Name = 45784388
REMARK  14 active torsions:
REMARK  status: ('A' for Active; 'I' for Inactive)
REMARK    1  A    between atoms: O_1  and  C_11
REMARK    2  A    between atoms: O_4  and  C_31
REMARK    3  A    between atoms: O_4  and  C_37
REMARK    4  A    between atoms: O_5  and  C_32
REMARK    5  A    between atoms: O_5  and  C_38
REMARK    6  A    between atoms: N_6  and  C_15
REMARK    7  A    between atoms: N_7  and  C_25
REMARK    8  A    between atoms: C_8  and  C_18
REMARK    9  A    between atoms: C_10  and  C_20
REMARK   10  A    between atoms: C_14  and  C_19
REMARK   11  A    between atoms: C_19  and  C_21
REMARK   12  A    between atoms: C_19  and  C_22
REMARK   13  A    between atoms: C_23  and  C_24
REMARK   14  A    between atoms: C_25  and  C_28
REMARK                            x       y       z     vdW  Elec       q    Type
REMARK                         _______ _______ _______ _____ _____    ______ ____
ROOT
ATOM      8  C   UNL     1     -15.134   7.675  21.042  0.00  0.00    -0.027 C 
ATOM      9  C   UNL     1     -13.981   6.625  21.183  0.00  0.00    +0.028 C 
ATOM     10  C   UNL     1     -14.119   5.821  22.526  0.00  0.00    +0.012 C 
ATOM     11  C   UNL     1     -12.591   7.277  20.934  0.00  0.00    +0.122 C 
ATOM     12  C   UNL     1     -15.034   8.366  19.662  0.00  0.00    +0.007 C 
ATOM     13  C   UNL     1     -16.493   6.941  21.104  0.00  0.00    +0.009 C 
ATOM     14  C   UNL     1     -12.530   8.056  19.601  0.00  0.00    +0.029 C 
ATOM     15  C   UNL     1     -15.518   5.150  22.612  0.00  0.00    +0.076 C 
ATOM     16  C   UNL     1     -13.687   9.039  19.431  0.00  0.00    +0.007 C 
ATOM     17  C   UNL     1     -16.674   6.122  22.374  0.00  0.00    +0.023 C 
ATOM     18  C   UNL     1     -15.087   8.759  22.148  0.00  0.00    +0.011 C 
ATOM     20  C   UNL     1     -13.032   4.750  22.718  0.00  0.00    +0.010 C 
ENDROOT
BRANCH  15   6
ATOM      3  O   UNL     1     -16.446   2.466  23.036  0.00  0.00    -0.270 OA
ATOM      6  N   UNL     1     -15.723   4.498  23.888  0.00  0.00    -0.308 N 
ATOM     23  C   UNL     1     -16.177   3.193  23.988  0.00  0.00    +0.244 C 
ATOM     39  H   UNL     1     -15.631   5.075  24.717  0.00  0.00    +0.149 HD
BRANCH  23  24
ATOM     24  C   UNL     1     -16.360   2.678  25.369  0.00  0.00    +0.037 A 
ATOM     26  C   UNL     1     -16.800   1.370  25.572  0.00  0.00    +0.016 A 
ATOM     27  C   UNL     1     -16.093   3.502  26.462  0.00  0.00    +0.016 A 
ATOM     29  C   UNL     1     -16.974   0.887  26.869  0.00  0.00    +0.046 A 
ATOM     30  C   UNL     1     -16.267   3.019  27.760  0.00  0.00    +0.046 A 
ATOM     31  C   UNL     1     -16.707   1.711  27.963  0.00  0.00    +0.120 A 
BRANCH  31   4
ATOM      4  O   UNL     1     -16.878   1.239  29.228  0.00  0.00    -0.495 OA
ATOM     37  C   UNL     1     -15.731   0.690  29.876  0.00  0.00    +0.277 C 
ENDBRANCH  31   4
ENDBRANCH  23  24
ENDBRANCH  15   6
BRANCH  11   1
ATOM      1  O   UNL     1     -11.593   6.258  20.858  0.00  0.00    -0.391 OA
ATOM     40  H   UNL     1     -11.027   6.445  20.090  0.00  0.00    +0.210 HD
ENDBRANCH  11   1
BRANCH  14  19
ATOM     19  C   UNL     1     -11.198   8.799  19.435  0.00  0.00    +0.077 C 
ATOM     21  C   UNL     1     -11.321  10.221  19.970  0.00  0.00    +0.017 C 
BRANCH  19  22
ATOM      2  O   UNL     1     -10.451   7.763  17.378  0.00  0.00    -0.276 OA
ATOM      7  N   UNL     1     -10.802  10.056  17.400  0.00  0.00    -0.311 N 
ATOM     22  C   UNL     1     -10.776   8.790  17.969  0.00  0.00    +0.216 C 
ATOM     41  H   UNL     1     -11.134  10.847  17.942  0.00  0.00    +0.149 HD
BRANCH   7  25
ATOM     25  C   UNL     1     -10.441  10.302  16.024  0.00  0.00    +0.143 C 
BRANCH  25  28
ATOM     28  C   UNL     1     -11.570   9.997  15.083  0.00  0.00    +0.011 A 
ATOM     32  C   UNL     1     -11.478   8.938  14.179  0.00  0.00    +0.125 A 
ATOM     33  C   UNL     1     -12.721  10.784  15.121  0.00  0.00    +0.009 A 
ATOM     34  C   UNL     1     -12.536   8.668  13.312  0.00  0.00    +0.046 A 
ATOM     35  C   UNL     1     -13.780  10.513  14.253  0.00  0.00    +0.001 A 
ATOM     36  C   UNL     1     -13.687   9.455  13.349  0.00  0.00    +0.004 A 
BRANCH  32   5
ATOM      5  O   UNL     1     -10.361   8.159  14.130  0.00  0.00    -0.495 OA
ATOM     38  C   UNL     1     -10.092   7.492  12.898  0.00  0.00    +0.277 C 
ENDBRANCH  32   5
ENDBRANCH  25  28
ENDBRANCH   7  25
ENDBRANCH  19  22
ENDBRANCH  14  19
TORSDOF 9
ENDMDL
MODEL 5
REMARK VINA RESULT:      -7.4     18.052     22.604
REMARK  Name = 45784388
REMARK  14 active torsions:
REMARK  status: ('A' for Active; 'I' for Inactive)
REMARK    1  A    between atoms: O_1  and  C_11
REMARK    2  A    between atoms: O_4  and  C_31
REMARK    3  A    between atoms: O_4  and  C_37
REMARK    4  A    between atoms: O_5  and  C_32
REMARK    5  A    between atoms: O_5  and  C_38
REMARK    6  A    between atoms: N_6  and  C_15
REMARK    7  A    between atoms: N_7  and  C_25
REMARK    8  A    between atoms: C_8  and  C_18
REMARK    9  A    between atoms: C_10  and  C_20
REMARK   10  A    between atoms: C_14  and  C_19
REMARK   11  A    between atoms: C_19  and  C_21
REMARK   12  A    between atoms: C_19  and  C_22
REMARK   13  A    between atoms: C_23  and  C_24
REMARK   14  A    between atoms: C_25  and  C_28
REMARK                            x       y       z     vdW  Elec       q    Type
REMARK                         _______ _______ _______ _____ _____    ______ ____
ROOT
ATOM      8  C   UNL     1      -4.642 -11.104  16.880  0.00  0.00    -0.027 C 
ATOM      9  C   UNL     1      -5.457 -10.479  15.699  0.00  0.00    +0.028 C 
ATOM     10  C   UNL     1      -7.001 -10.578  15.973  0.00  0.00    +0.012 C 
ATOM     11  C   UNL     1      -4.984 -11.040  14.327  0.00  0.00    +0.122 C 
ATOM     12  C   UNL     1      -3.130 -10.889  16.633  0.00  0.00    +0.007 C 
ATOM     13  C   UNL     1      -5.014 -10.375  18.191  0.00  0.00    +0.009 C 
ATOM     14  C   UNL     1      -3.455 -10.917  14.130  0.00  0.00    +0.029 C 
ATOM     15  C   UNL     1      -7.352  -9.907  17.329  0.00  0.00    +0.076 C 
ATOM     16  C   UNL     1      -2.655 -11.472  15.308  0.00  0.00    +0.007 C 
ATOM     17  C   UNL     1      -6.504 -10.414  18.496  0.00  0.00    +0.023 C 
ATOM     18  C   UNL     1      -4.909 -12.622  17.047  0.00  0.00    +0.011 C 
ATOM     20  C   UNL     1      -7.864  -9.956  14.862  0.00  0.00    +0.010 C 
ENDROOT
BRANCH  15   6
ATOM      3  O   UNL     1      -9.370  -7.864  17.395  0.00  0.00    -0.270 OA
ATOM      6  N   UNL     1      -8.749 -10.082  17.669  0.00  0.00    -0.308 N 
ATOM     23  C   UNL     1      -9.647  -9.028  17.672  0.00  0.00    +0.244 C 
ATOM     39  H   UNL     1      -9.025 -10.993  18.019  0.00  0.00    +0.149 HD
BRANCH  23  24
ATOM     24  C   UNL     1     -11.038  -9.368  18.068  0.00  0.00    +0.037 A 
ATOM     26  C   UNL     1     -12.097  -9.087  17.203  0.00  0.00    +0.016 A 
ATOM     27  C   UNL     1     -11.286  -9.966  19.303  0.00  0.00    +0.016 A 
ATOM     29  C   UNL     1     -13.404  -9.404  17.576  0.00  0.00    +0.046 A 
ATOM     30  C   UNL     1     -12.592 -10.284  19.676  0.00  0.00    +0.046 A 
ATOM     31  C   UNL     1     -13.651 -10.003  18.812  0.00  0.00    +0.120 A 
BRANCH  31   4
ATOM      4  O   UNL     1     -14.926 -10.312  19.176  0.00  0.00    -0.495 OA
ATOM     37  C   UNL     1     -15.182 -10.474  20.570  0.00  0.00    +0.277 C 
ENDBRANCH  31   4
ENDBRANCH  23  24
ENDBRANCH  15   6
BRANCH  11   1
ATOM      1  O   UNL     1      -5.593 -10.295  13.272  0.00  0.00    -0.391 OA
ATOM     40  H   UNL     1      -5.406  -9.353  13.419  0.00  0.00    +0.210 HD
ENDBRANCH  11   1
BRANCH  14  19
ATOM     19  C   UNL     1      -2.992 -11.592  12.834  0.00  0.00    +0.077 C 
ATOM     21  C   UNL     1      -1.809 -12.510  13.114  0.00  0.00    +0.017 C 
BRANCH  19  22
ATOM      2  O   UNL     1      -1.537  -9.994  11.740  0.00  0.00    -0.276 OA
ATOM      7  N   UNL     1      -3.696 -10.260  10.935  0.00  0.00    -0.311 N 
ATOM     22  C   UNL     1      -2.640 -10.533  11.793  0.00  0.00    +0.216 C 
ATOM     41  H   UNL     1      -4.560 -10.787  11.010  0.00  0.00    +0.149 HD
BRANCH   7  25
ATOM     25  C   UNL     1      -3.605  -9.291   9.867  0.00  0.00    +0.143 C 
BRANCH  25  28
ATOM     28  C   UNL     1      -4.906  -9.139   9.134  0.00  0.00    +0.011 A 
ATOM     32  C   UNL     1      -5.250 -10.016   8.104  0.00  0.00    +0.125 A 
ATOM     33  C   UNL     1      -5.775  -8.108   9.492  0.00  0.00    +0.009 A 
ATOM     34  C   UNL     1      -6.462  -9.861   7.433  0.00  0.00    +0.046 A 
ATOM     35  C   UNL     1      -6.988  -7.954   8.820  0.00  0.00    +0.001 A 
ATOM     36  C   UNL     1      -7.332  -8.830   7.791  0.00  0.00    +0.004 A 
BRANCH  32   5
ATOM      5  O   UNL     1      -4.413 -11.029   7.742  0.00  0.00    -0.495 OA
ATOM     38  C   UNL     1      -4.802 -12.351   8.109  0.00  0.00    +0.277 C 
ENDBRANCH  32   5
ENDBRANCH  25  28
ENDBRANCH   7  25
ENDBRANCH  19  22
ENDBRANCH  14  19
TORSDOF 9
ENDMDL
MODEL 6
REMARK VINA RESULT:      -7.4     28.764     36.077
REMARK  Name = 45784388
REMARK  14 active torsions:
REMARK  status: ('A' for Active; 'I' for Inactive)
REMARK    1  A    between atoms: O_1  and  C_11
REMARK    2  A    between atoms: O_4  and  C_31
REMARK    3  A    between atoms: O_4  and  C_37
REMARK    4  A    between atoms: O_5  and  C_32
REMARK    5  A    between atoms: O_5  and  C_38
REMARK    6  A    between atoms: N_6  and  C_15
REMARK    7  A    between atoms: N_7  and  C_25
REMARK    8  A    between atoms: C_8  and  C_18
REMARK    9  A    between atoms: C_10  and  C_20
REMARK   10  A    between atoms: C_14  and  C_19
REMARK   11  A    between atoms: C_19  and  C_21
REMARK   12  A    between atoms: C_19  and  C_22
REMARK   13  A    between atoms: C_23  and  C_24
REMARK   14  A    between atoms: C_25  and  C_28
REMARK                            x       y       z     vdW  Elec       q    Type
REMARK                         _______ _______ _______ _____ _____    ______ ____
ROOT
ATOM      8  C   UNL     1      13.690   5.000  -0.616  0.00  0.00    -0.027 C 
ATOM      9  C   UNL     1      12.128   4.944  -0.533  0.00  0.00    +0.028 C 
ATOM     10  C   UNL     1      11.654   4.744   0.951  0.00  0.00    +0.012 C 
ATOM     11  C   UNL     1      11.545   3.933  -1.563  0.00  0.00    +0.122 C 
ATOM     12  C   UNL     1      14.119   5.311  -2.069  0.00  0.00    +0.007 C 
ATOM     13  C   UNL     1      14.200   6.151   0.282  0.00  0.00    +0.009 C 
ATOM     14  C   UNL     1      12.060   4.185  -2.999  0.00  0.00    +0.029 C 
ATOM     15  C   UNL     1      12.234   5.864   1.858  0.00  0.00    +0.076 C 
ATOM     16  C   UNL     1      13.582   4.301  -3.075  0.00  0.00    +0.007 C 
ATOM     17  C   UNL     1      13.749   6.026   1.730  0.00  0.00    +0.023 C 
ATOM     18  C   UNL     1      14.356   3.674  -0.172  0.00  0.00    +0.011 C 
ATOM     20  C   UNL     1      10.124   4.707   1.109  0.00  0.00    +0.010 C 
ENDROOT
BRANCH  15   6
ATOM      3  O   UNL     1      10.881   7.691   3.613  0.00  0.00    -0.270 OA
ATOM      6  N   UNL     1      11.913   5.645   3.253  0.00  0.00    -0.308 N 
ATOM     23  C   UNL     1      11.255   6.594   4.018  0.00  0.00    +0.244 C 
ATOM     39  H   UNL     1      12.292   4.810   3.684  0.00  0.00    +0.149 HD
BRANCH  23  24
ATOM     24  C   UNL     1      11.022   6.228   5.439  0.00  0.00    +0.037 A 
ATOM     26  C   UNL     1      11.884   6.698   6.429  0.00  0.00    +0.016 A 
ATOM     27  C   UNL     1       9.942   5.414   5.782  0.00  0.00    +0.016 A 
ATOM     29  C   UNL     1      11.667   6.353   7.764  0.00  0.00    +0.046 A 
ATOM     30  C   UNL     1       9.725   5.070   7.117  0.00  0.00    +0.046 A 
ATOM     31  C   UNL     1      10.587   5.539   8.107  0.00  0.00    +0.120 A 
BRANCH  31   4
ATOM      4  O   UNL     1      10.376   5.202   9.409  0.00  0.00    -0.495 OA
ATOM     37  C   UNL     1       9.174   4.494   9.709  0.00  0.00    +0.277 C 
ENDBRANCH  31   4
ENDBRANCH  23  24
ENDBRANCH  15   6
BRANCH  11   1
ATOM      1  O   UNL     1      10.124   4.066  -1.610  0.00  0.00    -0.391 OA
ATOM     40  H   UNL     1       9.894   4.966  -1.322  0.00  0.00    +0.210 HD
ENDBRANCH  11   1
BRANCH  14  19
ATOM     19  C   UNL     1      11.580   3.103  -3.974  0.00  0.00    +0.077 C 
ATOM     21  C   UNL     1      12.754   2.572  -4.788  0.00  0.00    +0.017 C 
BRANCH  19  22
ATOM      2  O   UNL     1       9.874   2.972  -5.688  0.00  0.00    -0.276 OA
ATOM      7  N   UNL     1      10.273   5.020  -4.675  0.00  0.00    -0.311 N 
ATOM     22  C   UNL     1      10.486   3.664  -4.877  0.00  0.00    +0.216 C 
ATOM     41  H   UNL     1      10.784   5.510  -3.947  0.00  0.00    +0.149 HD
BRANCH   7  25
ATOM     25  C   UNL     1       9.289   5.776  -5.414  0.00  0.00    +0.143 C 
BRANCH  25  28
ATOM     28  C   UNL     1       8.069   6.067  -4.590  0.00  0.00    +0.011 A 
ATOM     32  C   UNL     1       8.186   6.628  -3.317  0.00  0.00    +0.125 A 
ATOM     33  C   UNL     1       6.808   5.774  -5.110  0.00  0.00    +0.009 A 
ATOM     34  C   UNL     1       7.042   6.893  -2.565  0.00  0.00    +0.046 A 
ATOM     35  C   UNL     1       5.664   6.039  -4.357  0.00  0.00    +0.001 A 
ATOM     36  C   UNL     1       5.781   6.599  -3.086  0.00  0.00    +0.004 A 
BRANCH  32   5
ATOM      5  O   UNL     1       9.409   6.921  -2.795  0.00  0.00    -0.495 OA
ATOM     38  C   UNL     1       9.433   7.507  -1.495  0.00  0.00    +0.277 C 
ENDBRANCH  32   5
ENDBRANCH  25  28
ENDBRANCH   7  25
ENDBRANCH  19  22
ENDBRANCH  14  19
TORSDOF 9
ENDMDL
MODEL 7
REMARK VINA RESULT:      -7.2     18.699     21.456
REMARK  Name = 45784388
REMARK  14 active torsions:
REMARK  status: ('A' for Active; 'I' for Inactive)
REMARK    1  A    between atoms: O_1  and  C_11
REMARK    2  A    between atoms: O_4  and  C_31
REMARK    3  A    between atoms: O_4  and  C_37
REMARK    4  A    between atoms: O_5  and  C_32
REMARK    5  A    between atoms: O_5  and  C_38
REMARK    6  A    between atoms: N_6  and  C_15
REMARK    7  A    between atoms: N_7  and  C_25
REMARK    8  A    between atoms: C_8  and  C_18
REMARK    9  A    between atoms: C_10  and  C_20
REMARK   10  A    between atoms: C_14  and  C_19
REMARK   11  A    between atoms: C_19  and  C_21
REMARK   12  A    between atoms: C_19  and  C_22
REMARK   13  A    between atoms: C_23  and  C_24
REMARK   14  A    between atoms: C_25  and  C_28
REMARK                            x       y       z     vdW  Elec       q    Type
REMARK                         _______ _______ _______ _____ _____    ______ ____
ROOT
ATOM      8  C   UNL     1      -3.238 -11.476  11.754  0.00  0.00    -0.027 C 
ATOM      9  C   UNL     1      -4.586 -10.961  12.360  0.00  0.00    +0.028 C 
ATOM     10  C   UNL     1      -5.365 -10.078  11.320  0.00  0.00    +0.012 C 
ATOM     11  C   UNL     1      -4.365 -10.311  13.756  0.00  0.00    +0.122 C 
ATOM     12  C   UNL     1      -2.552 -12.432  12.758  0.00  0.00    +0.007 C 
ATOM     13  C   UNL     1      -3.538 -12.281  10.468  0.00  0.00    +0.009 C 
ATOM     14  C   UNL     1      -3.586 -11.232  14.724  0.00  0.00    +0.029 C 
ATOM     15  C   UNL     1      -5.595 -10.872  10.004  0.00  0.00    +0.076 C 
ATOM     16  C   UNL     1      -2.299 -11.786  14.114  0.00  0.00    +0.007 C 
ATOM     17  C   UNL     1      -4.317 -11.484   9.432  0.00  0.00    +0.023 C 
ATOM     18  C   UNL     1      -2.260 -10.322  11.416  0.00  0.00    +0.011 C 
ATOM     20  C   UNL     1      -6.716  -9.561  11.841  0.00  0.00    +0.010 C 
ENDROOT
BRANCH  15   6
ATOM      3  O   UNL     1      -7.582 -11.698   8.102  0.00  0.00    -0.270 OA
ATOM      6  N   UNL     1      -6.208 -10.050   8.982  0.00  0.00    -0.308 N 
ATOM     23  C   UNL     1      -7.162 -10.545   8.108  0.00  0.00    +0.244 C 
ATOM     39  H   UNL     1      -5.827  -9.119   8.853  0.00  0.00    +0.149 HD
BRANCH  23  24
ATOM     24  C   UNL     1      -7.674  -9.581   7.100  0.00  0.00    +0.037 A 
ATOM     26  C   UNL     1      -8.895  -8.939   7.307  0.00  0.00    +0.016 A 
ATOM     27  C   UNL     1      -6.934  -9.318   5.947  0.00  0.00    +0.016 A 
ATOM     29  C   UNL     1      -9.377  -8.036   6.359  0.00  0.00    +0.046 A 
ATOM     30  C   UNL     1      -7.415  -8.414   4.999  0.00  0.00    +0.046 A 
ATOM     31  C   UNL     1      -8.637  -7.773   5.206  0.00  0.00    +0.120 A 
BRANCH  31   4
ATOM      4  O   UNL     1      -9.107  -6.891   4.281  0.00  0.00    -0.495 OA
ATOM     37  C   UNL     1     -10.391  -7.162   3.721  0.00  0.00    +0.277 C 
ENDBRANCH  31   4
ENDBRANCH  23  24
ENDBRANCH  15   6
BRANCH  11   1
ATOM      1  O   UNL     1      -5.630 -10.052  14.367  0.00  0.00    -0.391 OA
ATOM     40  H   UNL     1      -5.468  -9.720  15.267  0.00  0.00    +0.210 HD
ENDBRANCH  11   1
BRANCH  14  19
ATOM     19  C   UNL     1      -3.264 -10.526  16.046  0.00  0.00    +0.077 C 
ATOM     21  C   UNL     1      -1.777 -10.644  16.355  0.00  0.00    +0.017 C 
BRANCH  19  22
ATOM      2  O   UNL     1      -3.821 -12.155  17.750  0.00  0.00    -0.276 OA
ATOM      7  N   UNL     1      -5.234 -10.341  17.447  0.00  0.00    -0.311 N 
ATOM     22  C   UNL     1      -4.114 -11.112  17.170  0.00  0.00    +0.216 C 
ATOM     41  H   UNL     1      -5.378  -9.463  16.958  0.00  0.00    +0.149 HD
BRANCH   7  25
ATOM     25  C   UNL     1      -6.192 -10.692  18.469  0.00  0.00    +0.143 C 
BRANCH  25  28
ATOM     28  C   UNL     1      -7.564 -10.171  18.157  0.00  0.00    +0.011 A 
ATOM     32  C   UNL     1      -8.673 -10.601  18.886  0.00  0.00    +0.125 A 
ATOM     33  C   UNL     1      -7.724  -9.245  17.125  0.00  0.00    +0.009 A 
ATOM     34  C   UNL     1      -9.941 -10.107  18.583  0.00  0.00    +0.046 A 
ATOM     35  C   UNL     1      -8.993  -8.751  16.822  0.00  0.00    +0.001 A 
ATOM     36  C   UNL     1     -10.101  -9.181  17.552  0.00  0.00    +0.004 A 
BRANCH  32   5
ATOM      5  O   UNL     1      -8.534 -11.504  19.897  0.00  0.00    -0.495 OA
ATOM     38  C   UNL     1      -9.177 -12.766  19.730  0.00  0.00    +0.277 C 
ENDBRANCH  32   5
ENDBRANCH  25  28
ENDBRANCH   7  25
ENDBRANCH  19  22
ENDBRANCH  14  19
TORSDOF 9
ENDMDL
MODEL 8
REMARK VINA RESULT:      -7.1     17.896     22.716
REMARK  Name = 45784388
REMARK  14 active torsions:
REMARK  status: ('A' for Active; 'I' for Inactive)
REMARK    1  A    between atoms: O_1  and  C_11
REMARK    2  A    between atoms: O_4  and  C_31
REMARK    3  A    between atoms: O_4  and  C_37
REMARK    4  A    between atoms: O_5  and  C_32
REMARK    5  A    between atoms: O_5  and  C_38
REMARK    6  A    between atoms: N_6  and  C_15
REMARK    7  A    between atoms: N_7  and  C_25
REMARK    8  A    between atoms: C_8  and  C_18
REMARK    9  A    between atoms: C_10  and  C_20
REMARK   10  A    between atoms: C_14  and  C_19
REMARK   11  A    between atoms: C_19  and  C_21
REMARK   12  A    between atoms: C_19  and  C_22
REMARK   13  A    between atoms: C_23  and  C_24
REMARK   14  A    between atoms: C_25  and  C_28
REMARK                            x       y       z     vdW  Elec       q    Type
REMARK                         _______ _______ _______ _____ _____    ______ ____
ROOT
ATOM      8  C   UNL     1      -4.877 -11.247  17.067  0.00  0.00    -0.027 C 
ATOM      9  C   UNL     1      -5.879 -10.445  16.171  0.00  0.00    +0.028 C 
ATOM     10  C   UNL     1      -7.326 -10.480  16.783  0.00  0.00    +0.012 C 
ATOM     11  C   UNL     1      -5.772 -10.876  14.680  0.00  0.00    +0.122 C 
ATOM     12  C   UNL     1      -3.445 -11.098  16.500  0.00  0.00    +0.007 C 
ATOM     13  C   UNL     1      -4.884 -10.649  18.493  0.00  0.00    +0.009 C 
ATOM     14  C   UNL     1      -4.321 -10.824  14.149  0.00  0.00    +0.029 C 
ATOM     15  C   UNL     1      -7.308  -9.946  18.242  0.00  0.00    +0.076 C 
ATOM     16  C   UNL     1      -3.329 -11.555  15.052  0.00  0.00    +0.007 C 
ATOM     17  C   UNL     1      -6.267 -10.631  19.127  0.00  0.00    +0.023 C 
ATOM     18  C   UNL     1      -5.227 -12.755  17.145  0.00  0.00    +0.011 C 
ATOM     20  C   UNL     1      -8.359  -9.686  15.966  0.00  0.00    +0.010 C 
ENDROOT
BRANCH  15   6
ATOM      3  O   UNL     1      -8.554 -12.378  19.125  0.00  0.00    -0.270 OA
ATOM      6  N   UNL     1      -8.604 -10.073  18.875  0.00  0.00    -0.308 N 
ATOM     23  C   UNL     1      -9.119 -11.297  19.267  0.00  0.00    +0.244 C 
ATOM     39  H   UNL     1      -9.176  -9.237  18.920  0.00  0.00    +0.149 HD
BRANCH  23  24
ATOM     24  C   UNL     1     -10.472 -11.261  19.879  0.00  0.00    +0.037 A 
ATOM     26  C   UNL     1     -11.045 -12.433  20.373  0.00  0.00    +0.016 A 
ATOM     27  C   UNL     1     -11.170 -10.056  19.959  0.00  0.00    +0.016 A 
ATOM     29  C   UNL     1     -12.317 -12.400  20.946  0.00  0.00    +0.046 A 
ATOM     30  C   UNL     1     -12.441 -10.022  20.533  0.00  0.00    +0.046 A 
ATOM     31  C   UNL     1     -13.015 -11.195  21.027  0.00  0.00    +0.120 A 
BRANCH  31   4
ATOM      4  O   UNL     1     -14.255 -11.162  21.586  0.00  0.00    -0.495 OA
ATOM     37  C   UNL     1     -15.343 -10.810  20.732  0.00  0.00    +0.277 C 
ENDBRANCH  31   4
ENDBRANCH  23  24
ENDBRANCH  15   6
BRANCH  11   1
ATOM      1  O   UNL     1      -6.536  -9.981  13.870  0.00  0.00    -0.391 OA
ATOM     40  H   UNL     1      -6.037  -9.812  13.052  0.00  0.00    +0.210 HD
ENDBRANCH  11   1
BRANCH  14  19
ATOM     19  C   UNL     1      -4.217 -11.375  12.722  0.00  0.00    +0.077 C 
ATOM     21  C   UNL     1      -3.095 -12.403  12.637  0.00  0.00    +0.017 C 
BRANCH  19  22
ATOM      2  O   UNL     1      -2.884  -9.808  11.445  0.00  0.00    -0.276 OA
ATOM      7  N   UNL     1      -5.192  -9.739  11.222  0.00  0.00    -0.311 N 
ATOM     22  C   UNL     1      -4.000 -10.231  11.736  0.00  0.00    +0.216 C 
ATOM     41  H   UNL     1      -6.071 -10.179  11.472  0.00  0.00    +0.149 HD
BRANCH   7  25
ATOM     25  C   UNL     1      -5.243  -8.653  10.272  0.00  0.00    +0.143 C 
BRANCH  25  28
ATOM     28  C   UNL     1      -5.652  -9.121   8.905  0.00  0.00    +0.011 A 
ATOM     32  C   UNL     1      -6.821  -8.647   8.310  0.00  0.00    +0.125 A 
ATOM     33  C   UNL     1      -4.847 -10.038   8.229  0.00  0.00    +0.009 A 
ATOM     34  C   UNL     1      -7.186  -9.091   7.039  0.00  0.00    +0.046 A 
ATOM     35  C   UNL     1      -5.212 -10.482   6.958  0.00  0.00    +0.001 A 
ATOM     36  C   UNL     1      -6.381 -10.008   6.363  0.00  0.00    +0.004 A 
BRANCH  32   5
ATOM      5  O   UNL     1      -7.618  -7.750   8.955  0.00  0.00    -0.495 OA
ATOM     38  C   UNL     1      -8.088  -6.638   8.196  0.00  0.00    +0.277 C 
ENDBRANCH  32   5
ENDBRANCH  25  28
ENDBRANCH   7  25
ENDBRANCH  19  22
ENDBRANCH  14  19
TORSDOF 9
ENDMDL
MODEL 9
REMARK VINA RESULT:      -7.0     30.180     39.430
REMARK  Name = 45784388
REMARK  14 active torsions:
REMARK  status: ('A' for Active; 'I' for Inactive)
REMARK    1  A    between atoms: O_1  and  C_11
REMARK    2  A    between atoms: O_4  and  C_31
REMARK    3  A    between atoms: O_4  and  C_37
REMARK    4  A    between atoms: O_5  and  C_32
REMARK    5  A    between atoms: O_5  and  C_38
REMARK    6  A    between atoms: N_6  and  C_15
REMARK    7  A    between atoms: N_7  and  C_25
REMARK    8  A    between atoms: C_8  and  C_18
REMARK    9  A    between atoms: C_10  and  C_20
REMARK   10  A    between atoms: C_14  and  C_19
REMARK   11  A    between atoms: C_19  and  C_21
REMARK   12  A    between atoms: C_19  and  C_22
REMARK   13  A    between atoms: C_23  and  C_24
REMARK   14  A    between atoms: C_25  and  C_28
REMARK                            x       y       z     vdW  Elec       q    Type
REMARK                         _______ _______ _______ _____ _____    ______ ____
ROOT
ATOM      8  C   UNL     1      13.157   4.655  -1.493  0.00  0.00    -0.027 C 
ATOM      9  C   UNL     1      14.273   4.234  -0.480  0.00  0.00    +0.028 C 
ATOM     10  C   UNL     1      13.805   4.476   1.000  0.00  0.00    +0.012 C 
ATOM     11  C   UNL     1      15.645   4.863  -0.859  0.00  0.00    +0.122 C 
ATOM     12  C   UNL     1      13.604   4.299  -2.930  0.00  0.00    +0.007 C 
ATOM     13  C   UNL     1      11.870   3.854  -1.187  0.00  0.00    +0.009 C 
ATOM     14  C   UNL     1      16.038   4.591  -2.329  0.00  0.00    +0.029 C 
ATOM     15  C   UNL     1      12.472   3.727   1.273  0.00  0.00    +0.076 C 
ATOM     16  C   UNL     1      14.928   4.945  -3.318  0.00  0.00    +0.007 C 
ATOM     17  C   UNL     1      11.383   4.028   0.244  0.00  0.00    +0.023 C 
ATOM     18  C   UNL     1      12.841   6.171  -1.430  0.00  0.00    +0.011 C 
ATOM     20  C   UNL     1      14.846   4.056   2.052  0.00  0.00    +0.010 C 
ENDROOT
BRANCH  15   6
ATOM      3  O   UNL     1      11.609   6.289   2.242  0.00  0.00    -0.270 OA
ATOM      6  N   UNL     1      11.951   4.022   2.592  0.00  0.00    -0.308 N 
ATOM     23  C   UNL     1      11.560   5.297   2.964  0.00  0.00    +0.244 C 
ATOM     39  H   UNL     1      11.989   3.275   3.277  0.00  0.00    +0.149 HD
BRANCH  23  24
ATOM     24  C   UNL     1      11.072   5.440   4.360  0.00  0.00    +0.037 A 
ATOM     26  C   UNL     1      11.661   6.375   5.212  0.00  0.00    +0.016 A 
ATOM     27  C   UNL     1      10.025   4.640   4.819  0.00  0.00    +0.016 A 
ATOM     29  C   UNL     1      11.203   6.508   6.523  0.00  0.00    +0.046 A 
ATOM     30  C   UNL     1       9.567   4.773   6.130  0.00  0.00    +0.046 A 
ATOM     31  C   UNL     1      10.157   5.708   6.982  0.00  0.00    +0.120 A 
BRANCH  31   4
ATOM      4  O   UNL     1       9.711   5.837   8.262  0.00  0.00    -0.495 OA
ATOM     37  C   UNL     1       9.466   4.634   8.988  0.00  0.00    +0.277 C 
ENDBRANCH  31   4
ENDBRANCH  23  24
ENDBRANCH  15   6
BRANCH  11   1
ATOM      1  O   UNL     1      16.673   4.289  -0.049  0.00  0.00    -0.391 OA
ATOM     40  H   UNL     1      16.653   4.726   0.819  0.00  0.00    +0.210 HD
ENDBRANCH  11   1
BRANCH  14  19
ATOM     19  C   UNL     1      17.325   5.326  -2.720  0.00  0.00    +0.077 C 
ATOM     21  C   UNL     1      17.056   6.271  -3.885  0.00  0.00    +0.017 C 
BRANCH  19  22
ATOM      2  O   UNL     1      18.578   3.871  -4.196  0.00  0.00    -0.276 OA
ATOM      7  N   UNL     1      19.187   3.974  -1.960  0.00  0.00    -0.311 N 
ATOM     22  C   UNL     1      18.418   4.318  -3.062  0.00  0.00    +0.216 C 
ATOM     41  H   UNL     1      19.024   4.428  -1.067  0.00  0.00    +0.149 HD
BRANCH   7  25
ATOM     25  C   UNL     1      20.281   3.034  -2.034  0.00  0.00    +0.143 C 
BRANCH  25  28
ATOM     28  C   UNL     1      21.548   3.600  -1.462  0.00  0.00    +0.011 A 
ATOM     32  C   UNL     1      22.179   4.689  -2.066  0.00  0.00    +0.125 A 
ATOM     33  C   UNL     1      22.095   3.028  -0.313  0.00  0.00    +0.009 A 
ATOM     34  C   UNL     1      23.355   5.203  -1.522  0.00  0.00    +0.046 A 
ATOM     35  C   UNL     1      23.272   3.542   0.231  0.00  0.00    +0.001 A 
ATOM     36  C   UNL     1      23.902   4.630  -0.373  0.00  0.00    +0.004 A 
BRANCH  32   5
ATOM      5  O   UNL     1      21.659   5.261  -3.188  0.00  0.00    -0.495 OA
ATOM     38  C   UNL     1      21.580   6.685  -3.211  0.00  0.00    +0.277 C 
ENDBRANCH  32   5
ENDBRANCH  25  28
ENDBRANCH   7  25
ENDBRANCH  19  22
ENDBRANCH  14  19
TORSDOF 9
ENDMDL
MODEL 10
REMARK VINA RESULT:      -6.9     20.855     26.659
REMARK  Name = 45784388
REMARK  14 active torsions:
REMARK  status: ('A' for Active; 'I' for Inactive)
REMARK    1  A    between atoms: O_1  and  C_11
REMARK    2  A    between atoms: O_4  and  C_31
REMARK    3  A    between atoms: O_4  and  C_37
REMARK    4  A    between atoms: O_5  and  C_32
REMARK    5  A    between atoms: O_5  and  C_38
REMARK    6  A    between atoms: N_6  and  C_15
REMARK    7  A    between atoms: N_7  and  C_25
REMARK    8  A    between atoms: C_8  and  C_18
REMARK    9  A    between atoms: C_10  and  C_20
REMARK   10  A    between atoms: C_14  and  C_19
REMARK   11  A    between atoms: C_19  and  C_21
REMARK   12  A    between atoms: C_19  and  C_22
REMARK   13  A    between atoms: C_23  and  C_24
REMARK   14  A    between atoms: C_25  and  C_28
REMARK                            x       y       z     vdW  Elec       q    Type
REMARK                         _______ _______ _______ _____ _____    ______ ____
ROOT
ATOM      8  C   UNL     1      -5.823 -11.330   6.402  0.00  0.00    -0.027 C 
ATOM      9  C   UNL     1      -5.935  -9.872   6.962  0.00  0.00    +0.028 C 
ATOM     10  C   UNL     1      -5.813  -9.865   8.529  0.00  0.00    +0.012 C 
ATOM     11  C   UNL     1      -7.181  -9.141   6.385  0.00  0.00    +0.122 C 
ATOM     12  C   UNL     1      -5.832 -11.290   4.856  0.00  0.00    +0.007 C 
ATOM     13  C   UNL     1      -4.473 -11.938   6.850  0.00  0.00    +0.009 C 
ATOM     14  C   UNL     1      -7.240  -9.195   4.841  0.00  0.00    +0.029 C 
ATOM     15  C   UNL     1      -4.488 -10.546   8.970  0.00  0.00    +0.076 C 
ATOM     16  C   UNL     1      -7.070 -10.609   4.287  0.00  0.00    +0.007 C 
ATOM     17  C   UNL     1      -4.286 -11.933   8.360  0.00  0.00    +0.023 C 
ATOM     18  C   UNL     1      -6.979 -12.241   6.885  0.00  0.00    +0.011 C 
ATOM     20  C   UNL     1      -5.887  -8.457   9.145  0.00  0.00    +0.010 C 
ENDROOT
BRANCH  15   6
ATOM      3  O   UNL     1      -2.343  -9.608  10.633  0.00  0.00    -0.270 OA
ATOM      6  N   UNL     1      -4.398 -10.661  10.410  0.00  0.00    -0.308 N 
ATOM     23  C   UNL     1      -3.316 -10.174  11.125  0.00  0.00    +0.244 C 
ATOM     39  H   UNL     1      -5.109 -11.218  10.871  0.00  0.00    +0.149 HD
BRANCH  23  24
ATOM     24  C   UNL     1      -3.361 -10.394  12.593  0.00  0.00    +0.037 A 
ATOM     26  C   UNL     1      -2.175 -10.479  13.322  0.00  0.00    +0.016 A 
ATOM     27  C   UNL     1      -4.590 -10.514  13.243  0.00  0.00    +0.016 A 
ATOM     29  C   UNL     1      -2.218 -10.687  14.701  0.00  0.00    +0.046 A 
ATOM     30  C   UNL     1      -4.632 -10.721  14.622  0.00  0.00    +0.046 A 
ATOM     31  C   UNL     1      -3.446 -10.808  15.351  0.00  0.00    +0.120 A 
BRANCH  31   4
ATOM      4  O   UNL     1      -3.487 -11.011  16.696  0.00  0.00    -0.495 OA
ATOM     37  C   UNL     1      -4.679 -10.619  17.375  0.00  0.00    +0.277 C 
ENDBRANCH  31   4
ENDBRANCH  23  24
ENDBRANCH  15   6
BRANCH  11   1
ATOM      1  O   UNL     1      -7.132  -7.759   6.744  0.00  0.00    -0.391 OA
ATOM     40  H   UNL     1      -7.446  -7.673   7.660  0.00  0.00    +0.210 HD
ENDBRANCH  11   1
BRANCH  14  19
ATOM     19  C   UNL     1      -8.538  -8.585   4.299  0.00  0.00    +0.077 C 
ATOM     21  C   UNL     1      -9.731  -9.437   4.715  0.00  0.00    +0.017 C 
BRANCH  19  22
ATOM      2  O   UNL     1      -7.457  -8.018   2.207  0.00  0.00    -0.276 OA
ATOM      7  N   UNL     1      -9.619  -8.855   2.146  0.00  0.00    -0.311 N 
ATOM     22  C   UNL     1      -8.455  -8.448   2.781  0.00  0.00    +0.216 C 
ATOM     41  H   UNL     1     -10.381  -9.248   2.689  0.00  0.00    +0.149 HD
BRANCH   7  25
ATOM     25  C   UNL     1      -9.781  -8.816   0.712  0.00  0.00    +0.143 C 
BRANCH  25  28
ATOM     28  C   UNL     1     -10.482  -7.569   0.258  0.00  0.00    +0.011 A 
ATOM     32  C   UNL     1     -11.023  -7.481  -1.025  0.00  0.00    +0.125 A 
ATOM     33  C   UNL     1     -10.591  -6.490   1.136  0.00  0.00    +0.009 A 
ATOM     34  C   UNL     1     -11.671  -6.315  -1.430  0.00  0.00    +0.046 A 
ATOM     35  C   UNL     1     -11.239  -5.323   0.731  0.00  0.00    +0.001 A 
ATOM     36  C   UNL     1     -11.780  -5.236  -0.552  0.00  0.00    +0.004 A 
BRANCH  32   5
ATOM      5  O   UNL     1     -10.926  -8.525  -1.894  0.00  0.00    -0.495 OA
ATOM     38  C   UNL     1     -10.202  -8.297  -3.102  0.00  0.00    +0.277 C 
ENDBRANCH  32   5
ENDBRANCH  25  28
ENDBRANCH   7  25
ENDBRANCH  19  22
ENDBRANCH  14  19
TORSDOF 9
ENDMDL
