MODEL 1
REMARK VINA RESULT:      -6.3      0.000      0.000
REMARK  Name = 11912243
REMARK  8 active torsions:
REMARK  status: ('A' for Active; 'I' for Inactive)
REMARK    1  A    between atoms: S_1  and  C_24
REMARK    2  A    between atoms: S_1  and  C_26
REMARK    3  A    between atoms: O_6  and  C_27
REMARK    4  A    between atoms: N_10  and  C_16
REMARK    5  A    between atoms: C_12  and  C_17
REMARK    6  A    between atoms: C_22  and  C_25
REMARK    7  A    between atoms: C_23  and  C_24
REMARK    8  A    between atoms: C_26  and  C_27
REMARK                            x       y       z     vdW  Elec       q    Type
REMARK                         _______ _______ _______ _____ _____    ______ ____
ROOT
ATOM      4  O   UNL     1      15.623   6.060  19.522  0.00  0.00    -0.276 OA
ATOM      5  O   UNL     1      16.430  12.372  23.185  0.00  0.00    -0.275 OA
ATOM      8  N   UNL     1      16.322   7.925  20.725  0.00  0.00    -0.287 N 
ATOM      9  N   UNL     1      15.809  10.287  22.367  0.00  0.00    -0.297 N 
ATOM     12  C   UNL     1      14.953   8.323  21.059  0.00  0.00    +0.179 C 
ATOM     13  C   UNL     1      14.860   9.167  22.329  0.00  0.00    +0.139 C 
ATOM     14  C   UNL     1      17.410   8.732  21.289  0.00  0.00    +0.127 C 
ATOM     15  C   UNL     1      17.003  10.178  21.531  0.00  0.00    +0.127 C 
ATOM     22  C   UNL     1      16.530   6.746  20.000  0.00  0.00    +0.213 C 
ATOM     23  C   UNL     1      15.634  11.430  23.149  0.00  0.00    +0.226 C 
ATOM     25  C   UNL     1      17.964   6.322  19.806  0.00  0.00    +0.109 C 
ENDROOT
BRANCH  12  17
ATOM      2  O   UNL     1      15.051   9.933  19.296  0.00  0.00    -0.274 OA
ATOM     10  N   UNL     1      13.130   8.640  19.534  0.00  0.00    -0.302 N 
ATOM     17  C   UNL     1      14.408   9.056  19.867  0.00  0.00    +0.236 C 
ATOM     28  H   UNL     1      12.698   7.894  20.072  0.00  0.00    +0.150 HD
BRANCH  10  16
ATOM      3  O   UNL     1      10.404   8.484  19.632  0.00  0.00    -0.274 OA
ATOM     11  N   UNL     1      10.257   8.569  17.354  0.00  0.00    -0.314 N 
ATOM     16  C   UNL     1      12.378   9.202  18.443  0.00  0.00    +0.159 C 
ATOM     18  C   UNL     1      13.056   8.914  17.111  0.00  0.00    +0.033 C 
ATOM     19  C   UNL     1      12.154   9.363  15.972  0.00  0.00    +0.021 C 
ATOM     20  C   UNL     1      10.854   8.583  16.032  0.00  0.00    +0.104 C 
ATOM     21  C   UNL     1      10.947   8.685  18.544  0.00  0.00    +0.233 C 
ATOM     29  H   UNL     1       9.286   8.280  17.415  0.00  0.00    +0.149 HD
ENDBRANCH  10  16
ENDBRANCH  12  17
BRANCH  23  24
ATOM     24  C   UNL     1      14.379  11.484  23.985  0.00  0.00    +0.165 C 
BRANCH  24   1
ATOM      1  S   UNL     1      13.208  12.560  23.146  0.00  0.00    -0.140 S 
BRANCH   1  26
ATOM     26  C   UNL     1      11.691  11.625  23.464  0.00  0.00    +0.189 C 
BRANCH  26  27
ATOM      7  O   UNL     1      11.817  11.033  21.131  0.00  0.00    -0.250 OA
ATOM     27  C   UNL     1      11.313  10.853  22.232  0.00  0.00    +0.315 C 
BRANCH  27   6
ATOM      6  O   UNL     1      10.359   9.919  22.471  0.00  0.00    -0.480 OA
ATOM     30  H   UNL     1       9.951   9.592  21.641  0.00  0.00    +0.295 HD
ENDBRANCH  27   6
ENDBRANCH  26  27
ENDBRANCH   1  26
ENDBRANCH  24   1
ENDBRANCH  23  24
TORSDOF 7
ENDMDL
MODEL 2
REMARK VINA RESULT:      -6.2      3.078      6.047
REMARK  Name = 11912243
REMARK  8 active torsions:
REMARK  status: ('A' for Active; 'I' for Inactive)
REMARK    1  A    between atoms: S_1  and  C_24
REMARK    2  A    between atoms: S_1  and  C_26
REMARK    3  A    between atoms: O_6  and  C_27
REMARK    4  A    between atoms: N_10  and  C_16
REMARK    5  A    between atoms: C_12  and  C_17
REMARK    6  A    between atoms: C_22  and  C_25
REMARK    7  A    between atoms: C_23  and  C_24
REMARK    8  A    between atoms: C_26  and  C_27
REMARK                            x       y       z     vdW  Elec       q    Type
REMARK                         _______ _______ _______ _____ _____    ______ ____
ROOT
ATOM      4  O   UNL     1       9.839  13.211  24.591  0.00  0.00    -0.276 OA
ATOM      5  O   UNL     1      15.374  11.579  20.050  0.00  0.00    -0.275 OA
ATOM      8  N   UNL     1      11.799  13.064  23.345  0.00  0.00    -0.287 N 
ATOM      9  N   UNL     1      13.348  12.104  21.061  0.00  0.00    -0.297 N 
ATOM     12  C   UNL     1      11.199  12.166  22.356  0.00  0.00    +0.179 C 
ATOM     13  C   UNL     1      11.885  12.219  20.992  0.00  0.00    +0.139 C 
ATOM     14  C   UNL     1      13.183  13.491  23.108  0.00  0.00    +0.127 C 
ATOM     15  C   UNL     1      13.987  12.464  22.324  0.00  0.00    +0.127 C 
ATOM     22  C   UNL     1      11.003  13.563  24.382  0.00  0.00    +0.213 C 
ATOM     23  C   UNL     1      14.146  11.676  19.998  0.00  0.00    +0.226 C 
ATOM     25  C   UNL     1      11.644  14.587  25.286  0.00  0.00    +0.109 C 
ENDROOT
BRANCH  12  17
ATOM      2  O   UNL     1      11.138  10.588  24.150  0.00  0.00    -0.274 OA
ATOM     10  N   UNL     1      11.418   9.809  21.975  0.00  0.00    -0.302 N 
ATOM     17  C   UNL     1      11.239  10.783  22.941  0.00  0.00    +0.236 C 
ATOM     28  H   UNL     1      11.476  10.087  20.999  0.00  0.00    +0.150 HD
BRANCH  10  16
ATOM      3  O   UNL     1      13.840   8.582  21.666  0.00  0.00    -0.274 OA
ATOM     11  N   UNL     1      12.838   6.558  21.323  0.00  0.00    -0.314 N 
ATOM     16  C   UNL     1      11.512   8.405  22.278  0.00  0.00    +0.159 C 
ATOM     18  C   UNL     1      10.275   7.661  21.795  0.00  0.00    +0.033 C 
ATOM     19  C   UNL     1      10.479   6.165  21.970  0.00  0.00    +0.021 C 
ATOM     20  C   UNL     1      11.666   5.725  21.133  0.00  0.00    +0.104 C 
ATOM     21  C   UNL     1      12.823   7.886  21.699  0.00  0.00    +0.233 C 
ATOM     29  H   UNL     1      13.723   6.187  20.989  0.00  0.00    +0.149 HD
ENDBRANCH  10  16
ENDBRANCH  12  17
BRANCH  23  24
ATOM     24  C   UNL     1      13.424  11.313  18.723  0.00  0.00    +0.165 C 
BRANCH  24   1
ATOM      1  S   UNL     1      13.963   9.666  18.239  0.00  0.00    -0.140 S 
BRANCH   1  26
ATOM     26  C   UNL     1      12.571   9.221  17.169  0.00  0.00    +0.189 C 
BRANCH  26  27
ATOM      7  O   UNL     1      10.835   8.436  18.646  0.00  0.00    -0.250 OA
ATOM     27  C   UNL     1      11.731   8.180  17.852  0.00  0.00    +0.315 C 
BRANCH  27   6
ATOM      6  O   UNL     1      12.061   6.916  17.483  0.00  0.00    -0.480 OA
ATOM     30  H   UNL     1      12.140   6.827  16.510  0.00  0.00    +0.295 HD
ENDBRANCH  27   6
ENDBRANCH  26  27
ENDBRANCH   1  26
ENDBRANCH  24   1
ENDBRANCH  23  24
TORSDOF 7
ENDMDL
MODEL 3
REMARK VINA RESULT:      -5.9     14.109     17.718
REMARK  Name = 11912243
REMARK  8 active torsions:
REMARK  status: ('A' for Active; 'I' for Inactive)
REMARK    1  A    between atoms: S_1  and  C_24
REMARK    2  A    between atoms: S_1  and  C_26
REMARK    3  A    between atoms: O_6  and  C_27
REMARK    4  A    between atoms: N_10  and  C_16
REMARK    5  A    between atoms: C_12  and  C_17
REMARK    6  A    between atoms: C_22  and  C_25
REMARK    7  A    between atoms: C_23  and  C_24
REMARK    8  A    between atoms: C_26  and  C_27
REMARK                            x       y       z     vdW  Elec       q    Type
REMARK                         _______ _______ _______ _____ _____    ______ ____
ROOT
ATOM      4  O   UNL     1      13.284   6.092  -0.881  0.00  0.00    -0.276 OA
ATOM      5  O   UNL     1      10.107   4.061   5.420  0.00  0.00    -0.275 OA
ATOM      8  N   UNL     1      12.055   5.136   0.850  0.00  0.00    -0.287 N 
ATOM      9  N   UNL     1      10.933   5.163   3.548  0.00  0.00    -0.297 N 
ATOM     12  C   UNL     1      12.310   6.258   1.757  0.00  0.00    +0.179 C 
ATOM     13  C   UNL     1      11.247   6.413   2.844  0.00  0.00    +0.139 C 
ATOM     14  C   UNL     1      11.180   4.066   1.339  0.00  0.00    +0.127 C 
ATOM     15  C   UNL     1      11.230   3.913   2.853  0.00  0.00    +0.127 C 
ATOM     22  C   UNL     1      12.547   5.196  -0.458  0.00  0.00    +0.213 C 
ATOM     23  C   UNL     1      10.373   5.109   4.826  0.00  0.00    +0.226 C 
ATOM     25  C   UNL     1      12.135   4.076  -1.381  0.00  0.00    +0.109 C 
ENDROOT
BRANCH  12  17
ATOM      2  O   UNL     1      14.336   5.036   2.098  0.00  0.00    -0.274 OA
ATOM     10  N   UNL     1      14.053   7.072   3.188  0.00  0.00    -0.302 N 
ATOM     17  C   UNL     1      13.675   6.041   2.347  0.00  0.00    +0.236 C 
ATOM     28  H   UNL     1      13.427   7.864   3.311  0.00  0.00    +0.150 HD
BRANCH  10  16
ATOM      3  O   UNL     1      13.994   7.159   5.919  0.00  0.00    -0.274 OA
ATOM     11  N   UNL     1      16.044   8.164   5.991  0.00  0.00    -0.314 N 
ATOM     16  C   UNL     1      15.307   7.094   3.895  0.00  0.00    +0.159 C 
ATOM     18  C   UNL     1      16.318   7.979   3.180  0.00  0.00    +0.033 C 
ATOM     19  C   UNL     1      17.566   8.122   4.036  0.00  0.00    +0.021 C 
ATOM     20  C   UNL     1      17.193   8.779   5.352  0.00  0.00    +0.104 C 
ATOM     21  C   UNL     1      15.027   7.499   5.337  0.00  0.00    +0.233 C 
ATOM     29  H   UNL     1      15.891   8.388   6.969  0.00  0.00    +0.149 HD
ENDBRANCH  10  16
ENDBRANCH  12  17
BRANCH  23  24
ATOM     24  C   UNL     1      10.096   6.435   5.493  0.00  0.00    +0.165 C 
BRANCH  24   1
ATOM      1  S   UNL     1      10.855   6.396   7.123  0.00  0.00    -0.140 S 
BRANCH   1  26
ATOM     26  C   UNL     1       9.373   6.073   8.112  0.00  0.00    +0.189 C 
BRANCH  26  27
ATOM      7  O   UNL     1       8.951   4.521   9.907  0.00  0.00    -0.250 OA
ATOM     27  C   UNL     1       9.553   4.793   8.876  0.00  0.00    +0.315 C 
BRANCH  27   6
ATOM      6  O   UNL     1      10.448   3.956   8.294  0.00  0.00    -0.480 OA
ATOM     30  H   UNL     1      10.008   3.204   7.845  0.00  0.00    +0.295 HD
ENDBRANCH  27   6
ENDBRANCH  26  27
ENDBRANCH   1  26
ENDBRANCH  24   1
ENDBRANCH  23  24
TORSDOF 7
ENDMDL
MODEL 4
REMARK VINA RESULT:      -5.9      3.452      6.837
REMARK  Name = 11912243
REMARK  8 active torsions:
REMARK  status: ('A' for Active; 'I' for Inactive)
REMARK    1  A    between atoms: S_1  and  C_24
REMARK    2  A    between atoms: S_1  and  C_26
REMARK    3  A    between atoms: O_6  and  C_27
REMARK    4  A    between atoms: N_10  and  C_16
REMARK    5  A    between atoms: C_12  and  C_17
REMARK    6  A    between atoms: C_22  and  C_25
REMARK    7  A    between atoms: C_23  and  C_24
REMARK    8  A    between atoms: C_26  and  C_27
REMARK                            x       y       z     vdW  Elec       q    Type
REMARK                         _______ _______ _______ _____ _____    ______ ____
ROOT
ATOM      4  O   UNL     1      10.857   7.633  20.438  0.00  0.00    -0.276 OA
ATOM      5  O   UNL     1      15.243  12.123  16.628  0.00  0.00    -0.275 OA
ATOM      8  N   UNL     1      12.156   9.359  19.572  0.00  0.00    -0.287 N 
ATOM      9  N   UNL     1      13.600  10.670  17.396  0.00  0.00    -0.297 N 
ATOM     12  C   UNL     1      12.236   8.742  18.246  0.00  0.00    +0.179 C 
ATOM     13  C   UNL     1      12.491   9.746  17.123  0.00  0.00    +0.139 C 
ATOM     14  C   UNL     1      12.786  10.674  19.737  0.00  0.00    +0.127 C 
ATOM     15  C   UNL     1      13.963  10.882  18.795  0.00  0.00    +0.127 C 
ATOM     22  C   UNL     1      11.392   8.738  20.566  0.00  0.00    +0.213 C 
ATOM     23  C   UNL     1      14.312  11.346  16.403  0.00  0.00    +0.226 C 
ATOM     25  C   UNL     1      11.239   9.491  21.864  0.00  0.00    +0.109 C 
ENDROOT
BRANCH  12  17
ATOM      2  O   UNL     1      13.629   7.026  17.336  0.00  0.00    -0.274 OA
ATOM     10  N   UNL     1      13.873   7.602  19.577  0.00  0.00    -0.302 N 
ATOM     17  C   UNL     1      13.318   7.702  18.313  0.00  0.00    +0.236 C 
ATOM     28  H   UNL     1      13.544   8.224  20.311  0.00  0.00    +0.150 HD
BRANCH  10  16
ATOM      3  O   UNL     1      14.657   7.418  22.189  0.00  0.00    -0.274 OA
ATOM     11  N   UNL     1      16.732   6.684  21.576  0.00  0.00    -0.314 N 
ATOM     16  C   UNL     1      14.914   6.665  19.910  0.00  0.00    +0.159 C 
ATOM     18  C   UNL     1      15.999   6.658  18.842  0.00  0.00    +0.033 C 
ATOM     19  C   UNL     1      17.162   5.795  19.303  0.00  0.00    +0.021 C 
ATOM     20  C   UNL     1      17.741   6.382  20.577  0.00  0.00    +0.104 C 
ATOM     21  C   UNL     1      15.414   6.996  21.311  0.00  0.00    +0.233 C 
ATOM     29  H   UNL     1      17.060   6.847  22.523  0.00  0.00    +0.149 HD
ENDBRANCH  10  16
ENDBRANCH  12  17
BRANCH  23  24
ATOM     24  C   UNL     1      13.892  11.079  14.978  0.00  0.00    +0.165 C 
BRANCH  24   1
ATOM      1  S   UNL     1      14.277  12.545  14.010  0.00  0.00    -0.140 S 
BRANCH   1  26
ATOM     26  C   UNL     1      15.550  11.841  12.933  0.00  0.00    +0.189 C 
BRANCH  26  27
ATOM      7  O   UNL     1      17.586  13.103  13.202  0.00  0.00    -0.250 OA
ATOM     27  C   UNL     1      16.906  12.132  13.508  0.00  0.00    +0.315 C 
BRANCH  27   6
ATOM      6  O   UNL     1      17.298  11.207  14.421  0.00  0.00    -0.480 OA
ATOM     30  H   UNL     1      18.269  11.071  14.411  0.00  0.00    +0.295 HD
ENDBRANCH  27   6
ENDBRANCH  26  27
ENDBRANCH   1  26
ENDBRANCH  24   1
ENDBRANCH  23  24
TORSDOF 7
ENDMDL
MODEL 5
REMARK VINA RESULT:      -5.8     26.513     28.901
REMARK  Name = 11912243
REMARK  8 active torsions:
REMARK  status: ('A' for Active; 'I' for Inactive)
REMARK    1  A    between atoms: S_1  and  C_24
REMARK    2  A    between atoms: S_1  and  C_26
REMARK    3  A    between atoms: O_6  and  C_27
REMARK    4  A    between atoms: N_10  and  C_16
REMARK    5  A    between atoms: C_12  and  C_17
REMARK    6  A    between atoms: C_22  and  C_25
REMARK    7  A    between atoms: C_23  and  C_24
REMARK    8  A    between atoms: C_26  and  C_27
REMARK                            x       y       z     vdW  Elec       q    Type
REMARK                         _______ _______ _______ _____ _____    ______ ____
ROOT
ATOM      4  O   UNL     1      -1.698 -12.336  14.450  0.00  0.00    -0.276 OA
ATOM      5  O   UNL     1      -7.707 -10.080  18.017  0.00  0.00    -0.275 OA
ATOM      8  N   UNL     1      -3.309 -11.331  15.796  0.00  0.00    -0.287 N 
ATOM      9  N   UNL     1      -5.942 -11.252  17.060  0.00  0.00    -0.297 N 
ATOM     12  C   UNL     1      -4.287 -12.395  15.559  0.00  0.00    +0.179 C 
ATOM     13  C   UNL     1      -5.323 -12.526  16.674  0.00  0.00    +0.139 C 
ATOM     14  C   UNL     1      -3.694 -10.264  16.726  0.00  0.00    +0.127 C 
ATOM     15  C   UNL     1      -5.197 -10.031  16.762  0.00  0.00    +0.127 C 
ATOM     22  C   UNL     1      -2.033 -11.443  15.233  0.00  0.00    +0.213 C 
ATOM     23  C   UNL     1      -7.184 -11.149  17.690  0.00  0.00    +0.226 C 
ATOM     25  C   UNL     1      -1.031 -10.385  15.625  0.00  0.00    +0.109 C 
ENDROOT
BRANCH  12  17
ATOM      2  O   UNL     1      -5.948 -12.695  13.867  0.00  0.00    -0.274 OA
ATOM     10  N   UNL     1      -4.248 -11.145  13.513  0.00  0.00    -0.302 N 
ATOM     17  C   UNL     1      -4.935 -12.106  14.235  0.00  0.00    +0.236 C 
ATOM     28  H   UNL     1      -3.424 -10.714  13.924  0.00  0.00    +0.150 HD
BRANCH  10  16
ATOM      3  O   UNL     1      -2.331 -10.928  11.578  0.00  0.00    -0.274 OA
ATOM     11  N   UNL     1      -3.548  -9.347  10.465  0.00  0.00    -0.314 N 
ATOM     16  C   UNL     1      -4.651 -10.705  12.203  0.00  0.00    +0.159 C 
ATOM     18  C   UNL     1      -5.690  -9.597  12.298  0.00  0.00    +0.033 C 
ATOM     19  C   UNL     1      -5.964  -9.035  10.913  0.00  0.00    +0.021 C 
ATOM     20  C   UNL     1      -4.682  -8.450  10.351  0.00  0.00    +0.104 C 
ATOM     21  C   UNL     1      -3.395 -10.325  11.428  0.00  0.00    +0.233 C 
ATOM     29  H   UNL     1      -2.731  -9.126   9.904  0.00  0.00    +0.149 HD
ENDBRANCH  10  16
ENDBRANCH  12  17
BRANCH  23  24
ATOM     24  C   UNL     1      -7.905 -12.446  17.965  0.00  0.00    +0.165 C 
BRANCH  24   1
ATOM      1  S   UNL     1      -8.042 -12.628  19.749  0.00  0.00    -0.140 S 
BRANCH   1  26
ATOM     26  C   UNL     1      -9.847 -12.672  19.887  0.00  0.00    +0.189 C 
BRANCH  26  27
ATOM      7  O   UNL     1     -11.426 -10.949  19.296  0.00  0.00    -0.250 OA
ATOM     27  C   UNL     1     -10.384 -11.271  19.853  0.00  0.00    +0.315 C 
BRANCH  27   6
ATOM      6  O   UNL     1      -9.597 -10.391  20.523  0.00  0.00    -0.480 OA
ATOM     30  H   UNL     1      -8.658 -10.458  20.249  0.00  0.00    +0.295 HD
ENDBRANCH  27   6
ENDBRANCH  26  27
ENDBRANCH   1  26
ENDBRANCH  24   1
ENDBRANCH  23  24
TORSDOF 7
ENDMDL
MODEL 6
REMARK VINA RESULT:      -5.7     14.007     17.609
REMARK  Name = 11912243
REMARK  8 active torsions:
REMARK  status: ('A' for Active; 'I' for Inactive)
REMARK    1  A    between atoms: S_1  and  C_24
REMARK    2  A    between atoms: S_1  and  C_26
REMARK    3  A    between atoms: O_6  and  C_27
REMARK    4  A    between atoms: N_10  and  C_16
REMARK    5  A    between atoms: C_12  and  C_17
REMARK    6  A    between atoms: C_22  and  C_25
REMARK    7  A    between atoms: C_23  and  C_24
REMARK    8  A    between atoms: C_26  and  C_27
REMARK                            x       y       z     vdW  Elec       q    Type
REMARK                         _______ _______ _______ _____ _____    ______ ____
ROOT
ATOM      4  O   UNL     1       9.735   3.681   7.680  0.00  0.00    -0.276 OA
ATOM      5  O   UNL     1       8.425  10.504   5.305  0.00  0.00    -0.275 OA
ATOM      8  N   UNL     1       9.260   5.939   7.379  0.00  0.00    -0.287 N 
ATOM      9  N   UNL     1       8.468   8.220   5.733  0.00  0.00    -0.297 N 
ATOM     12  C   UNL     1       9.000   5.776   5.947  0.00  0.00    +0.179 C 
ATOM     13  C   UNL     1       8.079   6.851   5.371  0.00  0.00    +0.139 C 
ATOM     14  C   UNL     1       9.058   7.276   7.948  0.00  0.00    +0.127 C 
ATOM     15  C   UNL     1       9.287   8.386   6.932  0.00  0.00    +0.127 C 
ATOM     22  C   UNL     1       9.563   4.810   8.147  0.00  0.00    +0.213 C 
ATOM     23  C   UNL     1       8.101   9.353   5.004  0.00  0.00    +0.226 C 
ATOM     25  C   UNL     1       9.685   5.024   9.636  0.00  0.00    +0.109 C 
ENDROOT
BRANCH  12  17
ATOM      2  O   UNL     1      11.359   6.142   5.825  0.00  0.00    -0.274 OA
ATOM     10  N   UNL     1      10.250   5.319   3.952  0.00  0.00    -0.302 N 
ATOM     17  C   UNL     1      10.335   5.767   5.259  0.00  0.00    +0.236 C 
ATOM     28  H   UNL     1       9.347   5.022   3.590  0.00  0.00    +0.150 HD
BRANCH  10  16
ATOM      3  O   UNL     1      10.710   7.399   2.241  0.00  0.00    -0.274 OA
ATOM     11  N   UNL     1      11.798   6.029   0.772  0.00  0.00    -0.314 N 
ATOM     16  C   UNL     1      11.385   5.236   3.071  0.00  0.00    +0.159 C 
ATOM     18  C   UNL     1      11.549   3.823   2.528  0.00  0.00    +0.033 C 
ATOM     19  C   UNL     1      12.641   3.806   1.472  0.00  0.00    +0.021 C 
ATOM     20  C   UNL     1      12.240   4.720   0.329  0.00  0.00    +0.104 C 
ATOM     21  C   UNL     1      11.226   6.307   1.998  0.00  0.00    +0.233 C 
ATOM     29  H   UNL     1      11.749   6.758   0.068  0.00  0.00    +0.149 HD
ENDBRANCH  10  16
ENDBRANCH  12  17
BRANCH  23  24
ATOM     24  C   UNL     1       7.261   9.113   3.773  0.00  0.00    +0.165 C 
BRANCH  24   1
ATOM      1  S   UNL     1       7.291  10.618   2.788  0.00  0.00    -0.140 S 
BRANCH   1  26
ATOM     26  C   UNL     1       5.509  10.921   2.689  0.00  0.00    +0.189 C 
BRANCH  26  27
ATOM      7  O   UNL     1       5.433   9.509   0.737  0.00  0.00    -0.250 OA
ATOM     27  C   UNL     1       4.886   9.930   1.748  0.00  0.00    +0.315 C 
BRANCH  27   6
ATOM      6  O   UNL     1       3.651   9.534   2.146  0.00  0.00    -0.480 OA
ATOM     30  H   UNL     1       3.667   8.648   2.565  0.00  0.00    +0.295 HD
ENDBRANCH  27   6
ENDBRANCH  26  27
ENDBRANCH   1  26
ENDBRANCH  24   1
ENDBRANCH  23  24
TORSDOF 7
ENDMDL
MODEL 7
REMARK VINA RESULT:      -5.4     27.721     29.427
REMARK  Name = 11912243
REMARK  8 active torsions:
REMARK  status: ('A' for Active; 'I' for Inactive)
REMARK    1  A    between atoms: S_1  and  C_24
REMARK    2  A    between atoms: S_1  and  C_26
REMARK    3  A    between atoms: O_6  and  C_27
REMARK    4  A    between atoms: N_10  and  C_16
REMARK    5  A    between atoms: C_12  and  C_17
REMARK    6  A    between atoms: C_22  and  C_25
REMARK    7  A    between atoms: C_23  and  C_24
REMARK    8  A    between atoms: C_26  and  C_27
REMARK                            x       y       z     vdW  Elec       q    Type
REMARK                         _______ _______ _______ _____ _____    ______ ____
ROOT
ATOM      4  O   UNL     1      -6.310 -11.261  10.631  0.00  0.00    -0.276 OA
ATOM      5  O   UNL     1      -3.324 -11.209  17.339  0.00  0.00    -0.275 OA
ATOM      8  N   UNL     1      -4.959 -11.258  12.527  0.00  0.00    -0.287 N 
ATOM      9  N   UNL     1      -4.519 -11.631  15.391  0.00  0.00    -0.297 N 
ATOM     12  C   UNL     1      -6.066 -11.623  13.414  0.00  0.00    +0.179 C 
ATOM     13  C   UNL     1      -5.611 -12.323  14.694  0.00  0.00    +0.139 C 
ATOM     14  C   UNL     1      -3.628 -11.139  13.131  0.00  0.00    +0.127 C 
ATOM     15  C   UNL     1      -3.683 -10.734  14.597  0.00  0.00    +0.127 C 
ATOM     22  C   UNL     1      -5.195 -11.163  11.151  0.00  0.00    +0.213 C 
ATOM     23  C   UNL     1      -4.241 -11.787  16.750  0.00  0.00    +0.226 C 
ATOM     25  C   UNL     1      -3.988 -10.918  10.279  0.00  0.00    +0.109 C 
ENDROOT
BRANCH  12  17
ATOM      2  O   UNL     1      -6.634  -9.326  13.075  0.00  0.00    -0.274 OA
ATOM     10  N   UNL     1      -7.697 -10.509  14.774  0.00  0.00    -0.302 N 
ATOM     17  C   UNL     1      -6.820 -10.359  13.714  0.00  0.00    +0.236 C 
ATOM     28  H   UNL     1      -7.777 -11.418  15.223  0.00  0.00    +0.150 HD
BRANCH  10  16
ATOM      3  O   UNL     1      -6.909  -9.230  17.057  0.00  0.00    -0.274 OA
ATOM     11  N   UNL     1      -9.063  -8.647  17.545  0.00  0.00    -0.314 N 
ATOM     16  C   UNL     1      -8.521  -9.440  15.274  0.00  0.00    +0.159 C 
ATOM     18  C   UNL     1      -9.998  -9.779  15.126  0.00  0.00    +0.033 C 
ATOM     19  C   UNL     1     -10.837  -8.717  15.817  0.00  0.00    +0.021 C 
ATOM     20  C   UNL     1     -10.491  -8.695  17.294  0.00  0.00    +0.104 C 
ATOM     21  C   UNL     1      -8.086  -9.139  16.703  0.00  0.00    +0.233 C 
ATOM     29  H   UNL     1      -8.772  -8.389  18.483  0.00  0.00    +0.149 HD
ENDBRANCH  10  16
ENDBRANCH  12  17
BRANCH  23  24
ATOM     24  C   UNL     1      -5.144 -12.723  17.516  0.00  0.00    +0.165 C 
BRANCH  24   1
ATOM      1  S   UNL     1      -5.521 -11.950  19.095  0.00  0.00    -0.140 S 
BRANCH   1  26
ATOM     26  C   UNL     1      -7.216 -12.553  19.303  0.00  0.00    +0.189 C 
BRANCH  26  27
ATOM      7  O   UNL     1      -9.352 -11.437  19.262  0.00  0.00    -0.250 OA
ATOM     27  C   UNL     1      -8.145 -11.384  19.462  0.00  0.00    +0.315 C 
BRANCH  27   6
ATOM      6  O   UNL     1      -7.506 -10.258  19.868  0.00  0.00    -0.480 OA
ATOM     30  H   UNL     1      -7.452  -9.590  19.153  0.00  0.00    +0.295 HD
ENDBRANCH  27   6
ENDBRANCH  26  27
ENDBRANCH   1  26
ENDBRANCH  24   1
ENDBRANCH  23  24
TORSDOF 7
ENDMDL
MODEL 8
REMARK VINA RESULT:      -5.3     14.381     16.675
REMARK  Name = 11912243
REMARK  8 active torsions:
REMARK  status: ('A' for Active; 'I' for Inactive)
REMARK    1  A    between atoms: S_1  and  C_24
REMARK    2  A    between atoms: S_1  and  C_26
REMARK    3  A    between atoms: O_6  and  C_27
REMARK    4  A    between atoms: N_10  and  C_16
REMARK    5  A    between atoms: C_12  and  C_17
REMARK    6  A    between atoms: C_22  and  C_25
REMARK    7  A    between atoms: C_23  and  C_24
REMARK    8  A    between atoms: C_26  and  C_27
REMARK                            x       y       z     vdW  Elec       q    Type
REMARK                         _______ _______ _______ _____ _____    ______ ____
ROOT
ATOM      4  O   UNL     1      18.348   7.777   4.031  0.00  0.00    -0.276 OA
ATOM      5  O   UNL     1      11.443   9.301   6.007  0.00  0.00    -0.275 OA
ATOM      8  N   UNL     1      16.344   8.655   4.824  0.00  0.00    -0.287 N 
ATOM      9  N   UNL     1      13.553   8.396   5.652  0.00  0.00    -0.297 N 
ATOM     12  C   UNL     1      15.658   7.363   4.754  0.00  0.00    +0.179 C 
ATOM     13  C   UNL     1      14.473   7.252   5.713  0.00  0.00    +0.139 C 
ATOM     14  C   UNL     1      15.586   9.786   5.369  0.00  0.00    +0.127 C 
ATOM     15  C   UNL     1      14.087   9.655   5.136  0.00  0.00    +0.127 C 
ATOM     22  C   UNL     1      17.701   8.722   4.490  0.00  0.00    +0.213 C 
ATOM     23  C   UNL     1      12.218   8.343   6.056  0.00  0.00    +0.226 C 
ATOM     25  C   UNL     1      18.381  10.051   4.712  0.00  0.00    +0.109 C 
ENDROOT
BRANCH  12  17
ATOM      2  O   UNL     1      15.436   8.025   2.469  0.00  0.00    -0.274 OA
ATOM     10  N   UNL     1      14.591   5.960   3.129  0.00  0.00    -0.302 N 
ATOM     17  C   UNL     1      15.233   7.170   3.327  0.00  0.00    +0.236 C 
ATOM     28  H   UNL     1      14.489   5.321   3.913  0.00  0.00    +0.150 HD
BRANCH  10  16
ATOM      3  O   UNL     1      11.879   5.783   2.844  0.00  0.00    -0.274 OA
ATOM     11  N   UNL     1      12.094   4.221   1.191  0.00  0.00    -0.314 N 
ATOM     16  C   UNL     1      14.067   5.544   1.854  0.00  0.00    +0.159 C 
ATOM     18  C   UNL     1      14.915   4.432   1.254  0.00  0.00    +0.033 C 
ATOM     19  C   UNL     1      14.243   3.896   0.002  0.00  0.00    +0.021 C 
ATOM     20  C   UNL     1      12.887   3.324   0.372  0.00  0.00    +0.104 C 
ATOM     21  C   UNL     1      12.599   5.181   2.045  0.00  0.00    +0.233 C 
ATOM     29  H   UNL     1      11.103   4.012   1.271  0.00  0.00    +0.149 HD
ENDBRANCH  10  16
ENDBRANCH  12  17
BRANCH  23  24
ATOM     24  C   UNL     1      11.726   7.013   6.572  0.00  0.00    +0.165 C 
BRANCH  24   1
ATOM      1  S   UNL     1      10.021   6.814   6.036  0.00  0.00    -0.140 S 
BRANCH   1  26
ATOM     26  C   UNL     1       9.790   5.075   6.484  0.00  0.00    +0.189 C 
BRANCH  26  27
ATOM      7  O   UNL     1       9.275   5.689   8.757  0.00  0.00    -0.250 OA
ATOM     27  C   UNL     1       9.842   4.934   7.978  0.00  0.00    +0.315 C 
BRANCH  27   6
ATOM      6  O   UNL     1      10.575   3.865   8.378  0.00  0.00    -0.480 OA
ATOM     30  H   UNL     1      11.382   3.750   7.834  0.00  0.00    +0.295 HD
ENDBRANCH  27   6
ENDBRANCH  26  27
ENDBRANCH   1  26
ENDBRANCH  24   1
ENDBRANCH  23  24
TORSDOF 7
ENDMDL
MODEL 9
REMARK VINA RESULT:      -5.3      2.250      6.243
REMARK  Name = 11912243
REMARK  8 active torsions:
REMARK  status: ('A' for Active; 'I' for Inactive)
REMARK    1  A    between atoms: S_1  and  C_24
REMARK    2  A    between atoms: S_1  and  C_26
REMARK    3  A    between atoms: O_6  and  C_27
REMARK    4  A    between atoms: N_10  and  C_16
REMARK    5  A    between atoms: C_12  and  C_17
REMARK    6  A    between atoms: C_22  and  C_25
REMARK    7  A    between atoms: C_23  and  C_24
REMARK    8  A    between atoms: C_26  and  C_27
REMARK                            x       y       z     vdW  Elec       q    Type
REMARK                         _______ _______ _______ _____ _____    ______ ____
ROOT
ATOM      4  O   UNL     1      10.551   8.366  19.669  0.00  0.00    -0.276 OA
ATOM      5  O   UNL     1      17.324  11.192  19.891  0.00  0.00    -0.275 OA
ATOM      8  N   UNL     1      12.707   9.153  19.287  0.00  0.00    -0.287 N 
ATOM      9  N   UNL     1      15.352  10.001  20.195  0.00  0.00    -0.297 N 
ATOM     12  C   UNL     1      13.033   9.191  20.714  0.00  0.00    +0.179 C 
ATOM     13  C   UNL     1      14.531   9.085  20.998  0.00  0.00    +0.139 C 
ATOM     14  C   UNL     1      13.776   9.510  18.347  0.00  0.00    +0.127 C 
ATOM     15  C   UNL     1      14.779  10.487  18.942  0.00  0.00    +0.127 C 
ATOM     22  C   UNL     1      11.456   8.669  18.888  0.00  0.00    +0.213 C 
ATOM     23  C   UNL     1      16.631  10.423  20.562  0.00  0.00    +0.226 C 
ATOM     25  C   UNL     1      11.234   8.528  17.402  0.00  0.00    +0.109 C 
ENDROOT
BRANCH  12  17
ATOM      2  O   UNL     1      11.809  11.238  20.557  0.00  0.00    -0.274 OA
ATOM     10  N   UNL     1      12.764  10.652  22.597  0.00  0.00    -0.302 N 
ATOM     17  C   UNL     1      12.457  10.466  21.260  0.00  0.00    +0.236 C 
ATOM     28  H   UNL     1      13.299   9.938  23.083  0.00  0.00    +0.150 HD
BRANCH  10  16
ATOM      3  O   UNL     1      14.606  12.614  23.071  0.00  0.00    -0.274 OA
ATOM     11  N   UNL     1      13.502  13.277  24.958  0.00  0.00    -0.314 N 
ATOM     16  C   UNL     1      12.348  11.807  23.349  0.00  0.00    +0.159 C 
ATOM     18  C   UNL     1      11.429  11.406  24.494  0.00  0.00    +0.033 C 
ATOM     19  C   UNL     1      11.149  12.616  25.370  0.00  0.00    +0.021 C 
ATOM     20  C   UNL     1      12.456  13.120  25.952  0.00  0.00    +0.104 C 
ATOM     21  C   UNL     1      13.600  12.561  23.782  0.00  0.00    +0.233 C 
ATOM     29  H   UNL     1      14.310  13.829  25.227  0.00  0.00    +0.149 HD
ENDBRANCH  10  16
ENDBRANCH  12  17
BRANCH  23  24
ATOM     24  C   UNL     1      17.163   9.891  21.870  0.00  0.00    +0.165 C 
BRANCH  24   1
ATOM      1  S   UNL     1      18.500   8.748  21.492  0.00  0.00    -0.140 S 
BRANCH   1  26
ATOM     26  C   UNL     1      17.554   7.204  21.491  0.00  0.00    +0.189 C 
BRANCH  26  27
ATOM      7  O   UNL     1      18.586   5.858  19.778  0.00  0.00    -0.250 OA
ATOM     27  C   UNL     1      17.650   6.561  20.138  0.00  0.00    +0.315 C 
BRANCH  27   6
ATOM      6  O   UNL     1      16.577   6.830  19.352  0.00  0.00    -0.480 OA
ATOM     30  H   UNL     1      16.827   6.915  18.408  0.00  0.00    +0.295 HD
ENDBRANCH  27   6
ENDBRANCH  26  27
ENDBRANCH   1  26
ENDBRANCH  24   1
ENDBRANCH  23  24
TORSDOF 7
ENDMDL
MODEL 10
REMARK VINA RESULT:      -5.1     27.621     29.289
REMARK  Name = 11912243
REMARK  8 active torsions:
REMARK  status: ('A' for Active; 'I' for Inactive)
REMARK    1  A    between atoms: S_1  and  C_24
REMARK    2  A    between atoms: S_1  and  C_26
REMARK    3  A    between atoms: O_6  and  C_27
REMARK    4  A    between atoms: N_10  and  C_16
REMARK    5  A    between atoms: C_12  and  C_17
REMARK    6  A    between atoms: C_22  and  C_25
REMARK    7  A    between atoms: C_23  and  C_24
REMARK    8  A    between atoms: C_26  and  C_27
REMARK                            x       y       z     vdW  Elec       q    Type
REMARK                         _______ _______ _______ _____ _____    ______ ____
ROOT
ATOM      4  O   UNL     1      -2.518  -9.818  10.720  0.00  0.00    -0.276 OA
ATOM      5  O   UNL     1      -7.031 -11.772  16.173  0.00  0.00    -0.275 OA
ATOM      8  N   UNL     1      -4.243 -10.136  12.250  0.00  0.00    -0.287 N 
ATOM      9  N   UNL     1      -5.283 -11.043  14.825  0.00  0.00    -0.297 N 
ATOM     12  C   UNL     1      -3.364 -10.781  13.228  0.00  0.00    +0.179 C 
ATOM     13  C   UNL     1      -3.871 -10.670  14.665  0.00  0.00    +0.139 C 
ATOM     14  C   UNL     1      -5.641  -9.925  12.642  0.00  0.00    +0.127 C 
ATOM     15  C   UNL     1      -6.132 -10.965  13.639  0.00  0.00    +0.127 C 
ATOM     22  C   UNL     1      -3.692  -9.647  11.060  0.00  0.00    +0.213 C 
ATOM     23  C   UNL     1      -5.846 -11.459  16.033  0.00  0.00    +0.226 C 
ATOM     25  C   UNL     1      -4.622  -8.874  10.158  0.00  0.00    +0.109 C 
ENDROOT
BRANCH  12  17
ATOM      2  O   UNL     1      -3.640 -12.617  11.723  0.00  0.00    -0.274 OA
ATOM     10  N   UNL     1      -2.588 -12.985  13.766  0.00  0.00    -0.302 N 
ATOM     17  C   UNL     1      -3.217 -12.215  12.804  0.00  0.00    +0.236 C 
ATOM     28  H   UNL     1      -2.267 -12.540  14.622  0.00  0.00    +0.150 HD
BRANCH  10  16
ATOM      3  O   UNL     1      -4.039 -14.719  15.301  0.00  0.00    -0.274 OA
ATOM     11  N   UNL     1      -2.391 -16.296  15.183  0.00  0.00    -0.314 N 
ATOM     16  C   UNL     1      -2.345 -14.396  13.612  0.00  0.00    +0.159 C 
ATOM     18  C   UNL     1      -0.859 -14.675  13.441  0.00  0.00    +0.033 C 
ATOM     19  C   UNL     1      -0.617 -16.175  13.457  0.00  0.00    +0.021 C 
ATOM     20  C   UNL     1      -1.064 -16.736  14.795  0.00  0.00    +0.104 C 
ATOM     21  C   UNL     1      -2.987 -15.114  14.793  0.00  0.00    +0.233 C 
ATOM     29  H   UNL     1      -2.843 -16.813  15.931  0.00  0.00    +0.149 HD
ENDBRANCH  10  16
ENDBRANCH  12  17
BRANCH  23  24
ATOM     24  C   UNL     1      -4.914 -11.524  17.219  0.00  0.00    +0.165 C 
BRANCH  24   1
ATOM      1  S   UNL     1      -5.561 -10.422  18.485  0.00  0.00    -0.140 S 
BRANCH   1  26
ATOM     26  C   UNL     1      -5.939 -11.652  19.759  0.00  0.00    +0.189 C 
BRANCH  26  27
ATOM      7  O   UNL     1      -8.336 -11.555  19.992  0.00  0.00    -0.250 OA
ATOM     27  C   UNL     1      -7.345 -12.143  19.576  0.00  0.00    +0.315 C 
BRANCH  27   6
ATOM      6  O   UNL     1      -7.409 -13.309  18.885  0.00  0.00    -0.480 OA
ATOM     30  H   UNL     1      -7.658 -13.166  17.947  0.00  0.00    +0.295 HD
ENDBRANCH  27   6
ENDBRANCH  26  27
ENDBRANCH   1  26
ENDBRANCH  24   1
ENDBRANCH  23  24
TORSDOF 7
ENDMDL
