MODEL 1
REMARK VINA RESULT:      -7.1      0.000      0.000
REMARK  Name = 11884600
REMARK  6 active torsions:
REMARK  status: ('A' for Active; 'I' for Inactive)
REMARK    1  A    between atoms: O_3  and  C_11
REMARK    2  A    between atoms: O_3  and  C_15
REMARK    3  A    between atoms: N_6  and  C_10
REMARK    4  A    between atoms: N_6  and  C_14
REMARK    5  A    between atoms: N_7  and  C_18
REMARK    6  A    between atoms: C_14  and  C_16
REMARK                            x       y       z     vdW  Elec       q    Type
REMARK                         _______ _______ _______ _____ _____    ______ ____
ROOT
ATOM      1  O   UNL     1      13.855   8.986  19.383  0.00  0.00    -0.369 OA
ATOM      2  O   UNL     1      11.206   7.514  19.773  0.00  0.00    -0.369 OA
ATOM      8  C   UNL     1      12.547   7.020  19.563  0.00  0.00    +0.170 C 
ATOM      9  C   UNL     1      13.216   7.970  18.591  0.00  0.00    +0.191 C 
ATOM     10  C   UNL     1      13.355   7.163  20.835  0.00  0.00    +0.111 C 
ATOM     11  C   UNL     1      12.044   8.522  17.817  0.00  0.00    +0.235 C 
ATOM     12  C   UNL     1      13.777   8.624  20.771  0.00  0.00    +0.181 C 
ATOM     13  C   UNL     1      10.973   8.614  18.881  0.00  0.00    +0.207 C 
ENDROOT
BRANCH  10   6
ATOM      6  N   UNL     1      14.537   6.303  20.820  0.00  0.00    -0.302 NA
ATOM     30  H   UNL     1      14.811   6.127  19.854  0.00  0.00    +0.123 HD
BRANCH   6  14
ATOM     14  C   UNL     1      15.641   6.930  21.531  0.00  0.00    +0.156 C 
BRANCH  14  16
ATOM      4  O   UNL     1      16.882   5.995  19.699  0.00  0.00    -0.467 OA
ATOM     16  C   UNL     1      16.962   6.558  20.915  0.00  0.00    +0.119 A 
ATOM     17  C   UNL     1      18.234   6.683  21.356  0.00  0.00    +0.046 A 
ATOM     19  C   UNL     1      19.036   6.147  20.320  0.00  0.00    +0.041 A 
ATOM     20  C   UNL     1      18.167   5.742  19.334  0.00  0.00    +0.195 A 
ENDBRANCH  14  16
ENDBRANCH   6  14
ENDBRANCH  10   6
BRANCH  11   3
ATOM      3  O   UNL     1      12.305   9.771  17.217  0.00  0.00    -0.442 OA
BRANCH   3  15
ATOM      5  O   UNL     1      13.221   8.776  15.372  0.00  0.00    -0.226 OA
ATOM      7  N   UNL     1      13.657  11.014  15.908  0.00  0.00    -0.251 N 
ATOM     15  C   UNL     1      13.088   9.767  16.081  0.00  0.00    +0.405 C 
ATOM     31  H   UNL     1      13.407  11.688  16.621  0.00  0.00    +0.158 HD
BRANCH   7  18
ATOM     18  C   UNL     1      14.524  11.439  14.875  0.00  0.00    +0.044 A 
ATOM     21  C   UNL     1      14.027  11.975  13.684  0.00  0.00    +0.003 A 
ATOM     22  C   UNL     1      15.888  11.298  15.097  0.00  0.00    +0.024 A 
ATOM     23  C   UNL     1      14.942  12.383  12.685  0.00  0.00    -0.016 A 
ATOM     24  C   UNL     1      12.649  12.120  13.453  0.00  0.00    +0.010 A 
ATOM     25  C   UNL     1      16.788  11.698  14.115  0.00  0.00    +0.002 A 
ATOM     26  C   UNL     1      16.320  12.238  12.916  0.00  0.00    +0.008 A 
ATOM     27  C   UNL     1      14.453  12.923  11.485  0.00  0.00    +0.008 A 
ATOM     28  C   UNL     1      12.180  12.659  12.254  0.00  0.00    +0.001 A 
ATOM     29  C   UNL     1      13.081  13.060  11.272  0.00  0.00    +0.001 A 
ENDBRANCH   7  18
ENDBRANCH   3  15
ENDBRANCH  11   3
TORSDOF 6
ENDMDL
MODEL 2
REMARK VINA RESULT:      -7.1     26.339     28.732
REMARK  Name = 11884600
REMARK  6 active torsions:
REMARK  status: ('A' for Active; 'I' for Inactive)
REMARK    1  A    between atoms: O_3  and  C_11
REMARK    2  A    between atoms: O_3  and  C_15
REMARK    3  A    between atoms: N_6  and  C_10
REMARK    4  A    between atoms: N_6  and  C_14
REMARK    5  A    between atoms: N_7  and  C_18
REMARK    6  A    between atoms: C_14  and  C_16
REMARK                            x       y       z     vdW  Elec       q    Type
REMARK                         _______ _______ _______ _____ _____    ______ ____
ROOT
ATOM      1  O   UNL     1      -6.702 -11.904  17.513  0.00  0.00    -0.369 OA
ATOM      2  O   UNL     1      -4.897 -11.877  19.978  0.00  0.00    -0.369 OA
ATOM      8  C   UNL     1      -5.887 -10.933  19.513  0.00  0.00    +0.170 C 
ATOM      9  C   UNL     1      -5.788 -10.906  18.001  0.00  0.00    +0.191 C 
ATOM     10  C   UNL     1      -7.277 -11.467  19.784  0.00  0.00    +0.111 C 
ATOM     11  C   UNL     1      -4.352 -11.301  17.762  0.00  0.00    +0.235 C 
ATOM     12  C   UNL     1      -7.481 -12.411  18.608  0.00  0.00    +0.181 C 
ATOM     13  C   UNL     1      -4.110 -12.312  18.860  0.00  0.00    +0.207 C 
ENDROOT
BRANCH  10   6
ATOM      6  N   UNL     1      -8.278 -10.401  19.746  0.00  0.00    -0.302 NA
ATOM     30  H   UNL     1      -7.864  -9.569  19.327  0.00  0.00    +0.123 HD
BRANCH   6  14
ATOM     14  C   UNL     1      -9.437 -10.810  18.969  0.00  0.00    +0.156 C 
BRANCH  14  16
ATOM      4  O   UNL     1      -9.057  -8.951  17.496  0.00  0.00    -0.467 OA
ATOM     16  C   UNL     1      -9.981  -9.662  18.162  0.00  0.00    +0.119 A 
ATOM     17  C   UNL     1     -11.238  -9.201  17.976  0.00  0.00    +0.046 A 
ATOM     19  C   UNL     1     -11.097  -8.091  17.109  0.00  0.00    +0.041 A 
ATOM     20  C   UNL     1      -9.752  -7.980  16.846  0.00  0.00    +0.195 A 
ENDBRANCH  14  16
ENDBRANCH   6  14
ENDBRANCH  10   6
BRANCH  11   3
ATOM      3  O   UNL     1      -4.124 -11.844  16.480  0.00  0.00    -0.442 OA
BRANCH   3  15
ATOM      5  O   UNL     1      -2.541 -10.292  15.919  0.00  0.00    -0.226 OA
ATOM      7  N   UNL     1      -3.925 -11.276  14.307  0.00  0.00    -0.251 N 
ATOM     15  C   UNL     1      -3.438 -11.054  15.581  0.00  0.00    +0.405 C 
ATOM     31  H   UNL     1      -4.674 -11.956  14.260  0.00  0.00    +0.158 HD
BRANCH   7  18
ATOM     18  C   UNL     1      -3.504 -10.676  13.098  0.00  0.00    +0.044 A 
ATOM     21  C   UNL     1      -4.413 -10.044  12.245  0.00  0.00    +0.003 A 
ATOM     22  C   UNL     1      -2.149 -10.743  12.798  0.00  0.00    +0.024 A 
ATOM     23  C   UNL     1      -3.934  -9.462  11.048  0.00  0.00    -0.016 A 
ATOM     24  C   UNL     1      -5.784  -9.973  12.542  0.00  0.00    +0.010 A 
ATOM     25  C   UNL     1      -1.678 -10.171  11.621  0.00  0.00    +0.002 A 
ATOM     26  C   UNL     1      -2.563  -9.533  10.751  0.00  0.00    +0.008 A 
ATOM     27  C   UNL     1      -4.839  -8.826  10.183  0.00  0.00    +0.008 A 
ATOM     28  C   UNL     1      -6.669  -9.336  11.672  0.00  0.00    +0.001 A 
ATOM     29  C   UNL     1      -6.197  -8.763  10.495  0.00  0.00    +0.001 A 
ENDBRANCH   7  18
ENDBRANCH   3  15
ENDBRANCH  11   3
TORSDOF 6
ENDMDL
MODEL 3
REMARK VINA RESULT:      -7.1     27.514     30.460
REMARK  Name = 11884600
REMARK  6 active torsions:
REMARK  status: ('A' for Active; 'I' for Inactive)
REMARK    1  A    between atoms: O_3  and  C_11
REMARK    2  A    between atoms: O_3  and  C_15
REMARK    3  A    between atoms: N_6  and  C_10
REMARK    4  A    between atoms: N_6  and  C_14
REMARK    5  A    between atoms: N_7  and  C_18
REMARK    6  A    between atoms: C_14  and  C_16
REMARK                            x       y       z     vdW  Elec       q    Type
REMARK                         _______ _______ _______ _____ _____    ______ ____
ROOT
ATOM      1  O   UNL     1     -16.726   4.874  25.439  0.00  0.00    -0.369 OA
ATOM      2  O   UNL     1     -16.736   1.959  24.523  0.00  0.00    -0.369 OA
ATOM      8  C   UNL     1     -15.834   2.680  25.391  0.00  0.00    +0.170 C 
ATOM      9  C   UNL     1     -15.701   4.077  24.819  0.00  0.00    +0.191 C 
ATOM     10  C   UNL     1     -16.480   2.895  26.743  0.00  0.00    +0.111 C 
ATOM     11  C   UNL     1     -15.978   3.856  23.352  0.00  0.00    +0.235 C 
ATOM     12  C   UNL     1     -17.357   4.110  26.479  0.00  0.00    +0.181 C 
ATOM     13  C   UNL     1     -17.040   2.780  23.386  0.00  0.00    +0.207 C 
ENDROOT
BRANCH  10   6
ATOM      6  N   UNL     1     -15.487   3.211  27.768  0.00  0.00    -0.302 NA
ATOM     30  H   UNL     1     -15.390   4.224  27.839  0.00  0.00    +0.123 HD
BRANCH   6  14
ATOM     14  C   UNL     1     -15.886   2.671  29.059  0.00  0.00    +0.156 C 
BRANCH  14  16
ATOM      4  O   UNL     1     -15.343   0.332  29.078  0.00  0.00    -0.467 OA
ATOM     16  C   UNL     1     -14.971   1.556  29.486  0.00  0.00    +0.119 A 
ATOM     17  C   UNL     1     -13.830   1.548  30.211  0.00  0.00    +0.046 A 
ATOM     19  C   UNL     1     -13.442   0.188  30.269  0.00  0.00    +0.041 A 
ATOM     20  C   UNL     1     -14.394  -0.512  29.565  0.00  0.00    +0.195 A 
ENDBRANCH  14  16
ENDBRANCH   6  14
ENDBRANCH  10   6
BRANCH  11   3
ATOM      3  O   UNL     1     -16.418   5.015  22.682  0.00  0.00    -0.442 OA
BRANCH   3  15
ATOM      5  O   UNL     1     -15.733   5.272  20.515  0.00  0.00    -0.226 OA
ATOM      7  N   UNL     1     -14.624   6.324  22.289  0.00  0.00    -0.251 N 
ATOM     15  C   UNL     1     -15.588   5.525  21.705  0.00  0.00    +0.405 C 
ATOM     31  H   UNL     1     -14.695   6.393  23.297  0.00  0.00    +0.158 HD
BRANCH   7  18
ATOM     18  C   UNL     1     -13.582   7.036  21.652  0.00  0.00    +0.044 A 
ATOM     21  C   UNL     1     -13.520   8.431  21.698  0.00  0.00    +0.003 A 
ATOM     22  C   UNL     1     -12.624   6.286  20.979  0.00  0.00    +0.024 A 
ATOM     23  C   UNL     1     -12.454   9.089  21.042  0.00  0.00    -0.016 A 
ATOM     24  C   UNL     1     -14.485   9.195  22.376  0.00  0.00    +0.010 A 
ATOM     25  C   UNL     1     -11.576   6.933  20.334  0.00  0.00    +0.002 A 
ATOM     26  C   UNL     1     -11.489   8.326  20.365  0.00  0.00    +0.008 A 
ATOM     27  C   UNL     1     -12.383  10.491  21.082  0.00  0.00    +0.008 A 
ATOM     28  C   UNL     1     -14.399  10.587  22.407  0.00  0.00    +0.001 A 
ATOM     29  C   UNL     1     -13.349  11.234  21.761  0.00  0.00    +0.001 A 
ENDBRANCH   7  18
ENDBRANCH   3  15
ENDBRANCH  11   3
TORSDOF 6
ENDMDL
MODEL 4
REMARK VINA RESULT:      -7.1      4.902      8.432
REMARK  Name = 11884600
REMARK  6 active torsions:
REMARK  status: ('A' for Active; 'I' for Inactive)
REMARK    1  A    between atoms: O_3  and  C_11
REMARK    2  A    between atoms: O_3  and  C_15
REMARK    3  A    between atoms: N_6  and  C_10
REMARK    4  A    between atoms: N_6  and  C_14
REMARK    5  A    between atoms: N_7  and  C_18
REMARK    6  A    between atoms: C_14  and  C_16
REMARK                            x       y       z     vdW  Elec       q    Type
REMARK                         _______ _______ _______ _____ _____    ______ ____
ROOT
ATOM      1  O   UNL     1      13.475   8.028  21.619  0.00  0.00    -0.369 OA
ATOM      2  O   UNL     1      11.498   7.789  19.301  0.00  0.00    -0.369 OA
ATOM      8  C   UNL     1      12.856   8.281  19.347  0.00  0.00    +0.170 C 
ATOM      9  C   UNL     1      13.014   9.004  20.669  0.00  0.00    +0.191 C 
ATOM     10  C   UNL     1      13.823   7.120  19.443  0.00  0.00    +0.111 C 
ATOM     11  C   UNL     1      11.603   9.449  20.967  0.00  0.00    +0.235 C 
ATOM     12  C   UNL     1      13.781   6.804  20.932  0.00  0.00    +0.181 C 
ATOM     13  C   UNL     1      10.785   8.292  20.441  0.00  0.00    +0.207 C 
ENDROOT
BRANCH  10   6
ATOM      6  N   UNL     1      15.176   7.515  19.056  0.00  0.00    -0.302 NA
ATOM     30  H   UNL     1      15.487   8.278  19.656  0.00  0.00    +0.123 HD
BRANCH   6  14
ATOM     14  C   UNL     1      16.096   6.395  19.180  0.00  0.00    +0.156 C 
BRANCH  14  16
ATOM      4  O   UNL     1      17.180   7.921  20.686  0.00  0.00    -0.467 OA
ATOM     16  C   UNL     1      17.298   6.770  20.004  0.00  0.00    +0.119 A 
ATOM     17  C   UNL     1      18.492   6.165  20.192  0.00  0.00    +0.046 A 
ATOM     19  C   UNL     1      19.198   7.013  21.079  0.00  0.00    +0.041 A 
ATOM     20  C   UNL     1      18.357   8.067  21.350  0.00  0.00    +0.195 A 
ENDBRANCH  14  16
ENDBRANCH   6  14
ENDBRANCH  10   6
BRANCH  11   3
ATOM      3  O   UNL     1      11.367   9.687  22.337  0.00  0.00    -0.442 OA
BRANCH   3  15
ATOM      5  O   UNL     1      11.204  11.943  21.997  0.00  0.00    -0.226 OA
ATOM      7  N   UNL     1      11.660  11.048  24.112  0.00  0.00    -0.251 N 
ATOM     15  C   UNL     1      11.394  11.001  22.757  0.00  0.00    +0.405 C 
ATOM     31  H   UNL     1      11.782  10.139  24.543  0.00  0.00    +0.158 HD
BRANCH   7  18
ATOM     18  C   UNL     1      11.774  12.189  24.937  0.00  0.00    +0.044 A 
ATOM     21  C   UNL     1      12.990  12.537  25.533  0.00  0.00    +0.003 A 
ATOM     22  C   UNL     1      10.626  12.948  25.129  0.00  0.00    +0.024 A 
ATOM     23  C   UNL     1      13.044  13.690  26.350  0.00  0.00    -0.016 A 
ATOM     24  C   UNL     1      14.154  11.774  25.344  0.00  0.00    +0.010 A 
ATOM     25  C   UNL     1      10.679  14.082  25.932  0.00  0.00    +0.002 A 
ATOM     26  C   UNL     1      11.879  14.453  26.539  0.00  0.00    +0.008 A 
ATOM     27  C   UNL     1      14.260  14.048  26.954  0.00  0.00    +0.008 A 
ATOM     28  C   UNL     1      15.355  12.145  25.950  0.00  0.00    +0.001 A 
ATOM     29  C   UNL     1      15.407  13.280  26.754  0.00  0.00    +0.001 A 
ENDBRANCH   7  18
ENDBRANCH   3  15
ENDBRANCH  11   3
TORSDOF 6
ENDMDL
MODEL 5
REMARK VINA RESULT:      -7.0     26.401     29.442
REMARK  Name = 11884600
REMARK  6 active torsions:
REMARK  status: ('A' for Active; 'I' for Inactive)
REMARK    1  A    between atoms: O_3  and  C_11
REMARK    2  A    between atoms: O_3  and  C_15
REMARK    3  A    between atoms: N_6  and  C_10
REMARK    4  A    between atoms: N_6  and  C_14
REMARK    5  A    between atoms: N_7  and  C_18
REMARK    6  A    between atoms: C_14  and  C_16
REMARK                            x       y       z     vdW  Elec       q    Type
REMARK                         _______ _______ _______ _____ _____    ______ ____
ROOT
ATOM      1  O   UNL     1      -3.040 -10.355  16.683  0.00  0.00    -0.369 OA
ATOM      2  O   UNL     1      -4.392 -12.848  15.547  0.00  0.00    -0.369 OA
ATOM      8  C   UNL     1      -4.216 -11.526  14.993  0.00  0.00    +0.170 C 
ATOM      9  C   UNL     1      -4.359 -10.549  16.143  0.00  0.00    +0.191 C 
ATOM     10  C   UNL     1      -2.786 -11.346  14.531  0.00  0.00    +0.111 C 
ATOM     11  C   UNL     1      -5.249 -11.301  17.101  0.00  0.00    +0.235 C 
ATOM     12  C   UNL     1      -2.079 -11.003  15.834  0.00  0.00    +0.181 C 
ATOM     13  C   UNL     1      -4.776 -12.727  16.925  0.00  0.00    +0.207 C 
ENDROOT
BRANCH  10   6
ATOM      6  N   UNL     1      -2.662 -10.234  13.590  0.00  0.00    -0.302 NA
ATOM     30  H   UNL     1      -1.816  -9.707  13.804  0.00  0.00    +0.123 HD
BRANCH   6  14
ATOM     14  C   UNL     1      -2.597 -10.721  12.220  0.00  0.00    +0.156 C 
BRANCH  14  16
ATOM      4  O   UNL     1      -4.685  -9.616  11.788  0.00  0.00    -0.467 OA
ATOM     16  C   UNL     1      -3.461  -9.893  11.309  0.00  0.00    +0.119 A 
ATOM     17  C   UNL     1      -3.242  -9.367  10.083  0.00  0.00    +0.046 A 
ATOM     19  C   UNL     1      -4.441  -8.692   9.754  0.00  0.00    +0.041 A 
ATOM     20  C   UNL     1      -5.288  -8.872  10.822  0.00  0.00    +0.195 A 
ENDBRANCH  14  16
ENDBRANCH   6  14
ENDBRANCH  10   6
BRANCH  11   3
ATOM      3  O   UNL     1      -5.133 -10.865  18.437  0.00  0.00    -0.442 OA
BRANCH   3  15
ATOM      5  O   UNL     1      -6.337 -10.382  20.320  0.00  0.00    -0.226 OA
ATOM      7  N   UNL     1      -7.375 -10.713  18.248  0.00  0.00    -0.251 N 
ATOM     15  C   UNL     1      -6.307 -10.627  19.120  0.00  0.00    +0.405 C 
ATOM     31  H   UNL     1      -7.116 -10.926  17.292  0.00  0.00    +0.158 HD
BRANCH   7  18
ATOM     18  C   UNL     1      -8.748 -10.538  18.533  0.00  0.00    +0.044 A 
ATOM     21  C   UNL     1      -9.515  -9.582  17.861  0.00  0.00    +0.003 A 
ATOM     22  C   UNL     1      -9.299 -11.357  19.511  0.00  0.00    +0.024 A 
ATOM     23  C   UNL     1     -10.884  -9.452  18.190  0.00  0.00    -0.016 A 
ATOM     24  C   UNL     1      -8.964  -8.750  16.872  0.00  0.00    +0.010 A 
ATOM     25  C   UNL     1     -10.646 -11.229  19.835  0.00  0.00    +0.002 A 
ATOM     26  C   UNL     1     -11.435 -10.284  19.179  0.00  0.00    +0.008 A 
ATOM     27  C   UNL     1     -11.664  -8.494  17.521  0.00  0.00    +0.008 A 
ATOM     28  C   UNL     1      -9.753  -7.804  16.217  0.00  0.00    +0.001 A 
ATOM     29  C   UNL     1     -11.101  -7.677  16.541  0.00  0.00    +0.001 A 
ENDBRANCH   7  18
ENDBRANCH   3  15
ENDBRANCH  11   3
TORSDOF 6
ENDMDL
MODEL 6
REMARK VINA RESULT:      -6.9     27.825     32.246
REMARK  Name = 11884600
REMARK  6 active torsions:
REMARK  status: ('A' for Active; 'I' for Inactive)
REMARK    1  A    between atoms: O_3  and  C_11
REMARK    2  A    between atoms: O_3  and  C_15
REMARK    3  A    between atoms: N_6  and  C_10
REMARK    4  A    between atoms: N_6  and  C_14
REMARK    5  A    between atoms: N_7  and  C_18
REMARK    6  A    between atoms: C_14  and  C_16
REMARK                            x       y       z     vdW  Elec       q    Type
REMARK                         _______ _______ _______ _____ _____    ______ ____
ROOT
ATOM      1  O   UNL     1     -14.375   4.634  23.813  0.00  0.00    -0.369 OA
ATOM      2  O   UNL     1     -16.896   3.849  22.276  0.00  0.00    -0.369 OA
ATOM      8  C   UNL     1     -16.381   5.143  22.662  0.00  0.00    +0.170 C 
ATOM      9  C   UNL     1     -15.755   4.973  24.031  0.00  0.00    +0.191 C 
ATOM     10  C   UNL     1     -15.219   5.523  21.769  0.00  0.00    +0.111 C 
ATOM     11  C   UNL     1     -16.531   3.810  24.602  0.00  0.00    +0.235 C 
ATOM     12  C   UNL     1     -14.070   4.762  22.415  0.00  0.00    +0.181 C 
ATOM     13  C   UNL     1     -16.753   2.945  23.382  0.00  0.00    +0.207 C 
ENDROOT
BRANCH  10   6
ATOM      6  N   UNL     1     -14.954   6.960  21.817  0.00  0.00    -0.302 NA
ATOM     30  H   UNL     1     -14.111   7.126  22.367  0.00  0.00    +0.123 HD
BRANCH   6  14
ATOM     14  C   UNL     1     -14.772   7.496  20.477  0.00  0.00    +0.156 C 
BRANCH  14  16
ATOM      4  O   UNL     1     -12.444   7.017  20.124  0.00  0.00    -0.467 OA
ATOM     16  C   UNL     1     -13.363   7.985  20.276  0.00  0.00    +0.119 A 
ATOM     17  C   UNL     1     -12.835   9.228  20.217  0.00  0.00    +0.046 A 
ATOM     19  C   UNL     1     -11.450   9.029  20.009  0.00  0.00    +0.041 A 
ATOM     20  C   UNL     1     -11.262   7.668  19.959  0.00  0.00    +0.195 A 
ENDBRANCH  14  16
ENDBRANCH   6  14
ENDBRANCH  10   6
BRANCH  11   3
ATOM      3  O   UNL     1     -15.843   3.122  25.622  0.00  0.00    -0.442 OA
BRANCH   3  15
ATOM      5  O   UNL     1     -17.561   3.257  27.126  0.00  0.00    -0.226 OA
ATOM      7  N   UNL     1     -15.322   3.269  27.812  0.00  0.00    -0.251 N 
ATOM     15  C   UNL     1     -16.357   3.221  26.898  0.00  0.00    +0.405 C 
ATOM     31  H   UNL     1     -14.399   3.223  27.397  0.00  0.00    +0.158 HD
BRANCH   7  18
ATOM     18  C   UNL     1     -15.407   3.369  29.219  0.00  0.00    +0.044 A 
ATOM     21  C   UNL     1     -15.182   2.262  30.042  0.00  0.00    +0.003 A 
ATOM     22  C   UNL     1     -15.725   4.615  29.745  0.00  0.00    +0.024 A 
ATOM     23  C   UNL     1     -15.282   2.423  31.444  0.00  0.00    -0.016 A 
ATOM     24  C   UNL     1     -14.861   1.000  29.516  0.00  0.00    +0.010 A 
ATOM     25  C   UNL     1     -15.823   4.773  31.124  0.00  0.00    +0.002 A 
ATOM     26  C   UNL     1     -15.603   3.685  31.969  0.00  0.00    +0.008 A 
ATOM     27  C   UNL     1     -15.058   1.317  32.280  0.00  0.00    +0.008 A 
ATOM     28  C   UNL     1     -14.640  -0.088  30.362  0.00  0.00    +0.001 A 
ATOM     29  C   UNL     1     -14.738   0.070  31.741  0.00  0.00    +0.001 A 
ENDBRANCH   7  18
ENDBRANCH   3  15
ENDBRANCH  11   3
TORSDOF 6
ENDMDL
MODEL 7
REMARK VINA RESULT:      -6.8      2.353      7.576
REMARK  Name = 11884600
REMARK  6 active torsions:
REMARK  status: ('A' for Active; 'I' for Inactive)
REMARK    1  A    between atoms: O_3  and  C_11
REMARK    2  A    between atoms: O_3  and  C_15
REMARK    3  A    between atoms: N_6  and  C_10
REMARK    4  A    between atoms: N_6  and  C_14
REMARK    5  A    between atoms: N_7  and  C_18
REMARK    6  A    between atoms: C_14  and  C_16
REMARK                            x       y       z     vdW  Elec       q    Type
REMARK                         _______ _______ _______ _____ _____    ______ ____
ROOT
ATOM      1  O   UNL     1      13.821   8.044  19.113  0.00  0.00    -0.369 OA
ATOM      2  O   UNL     1      10.912   7.796  20.013  0.00  0.00    -0.369 OA
ATOM      8  C   UNL     1      11.601   8.847  19.301  0.00  0.00    +0.170 C 
ATOM      9  C   UNL     1      12.996   8.930  19.888  0.00  0.00    +0.191 C 
ATOM     10  C   UNL     1      11.830   8.433  17.863  0.00  0.00    +0.111 C 
ATOM     11  C   UNL     1      12.789   8.415  21.291  0.00  0.00    +0.235 C 
ATOM     12  C   UNL     1      13.073   7.564  17.984  0.00  0.00    +0.181 C 
ATOM     13  C   UNL     1      11.747   7.339  21.087  0.00  0.00    +0.207 C 
ENDROOT
BRANCH  10   6
ATOM      6  N   UNL     1      12.111   9.587  17.010  0.00  0.00    -0.302 NA
ATOM     30  H   UNL     1      12.572  10.309  17.565  0.00  0.00    +0.123 HD
BRANCH   6  14
ATOM     14  C   UNL     1      12.969   9.210  15.897  0.00  0.00    +0.156 C 
BRANCH  14  16
ATOM      4  O   UNL     1      14.839  10.021  14.626  0.00  0.00    -0.467 OA
ATOM     16  C   UNL     1      14.118  10.169  15.750  0.00  0.00    +0.119 A 
ATOM     17  C   UNL     1      14.573  11.166  16.542  0.00  0.00    +0.046 A 
ATOM     19  C   UNL     1      15.689  11.701  15.854  0.00  0.00    +0.041 A 
ATOM     20  C   UNL     1      15.810  10.971  14.695  0.00  0.00    +0.195 A 
ENDBRANCH  14  16
ENDBRANCH   6  14
ENDBRANCH  10   6
BRANCH  11   3
ATOM      3  O   UNL     1      13.965   7.909  21.883  0.00  0.00    -0.442 OA
BRANCH   3  15
ATOM      5  O   UNL     1      14.884   9.738  22.905  0.00  0.00    -0.226 OA
ATOM      7  N   UNL     1      16.074   8.483  21.326  0.00  0.00    -0.251 N 
ATOM     15  C   UNL     1      14.985   8.809  22.112  0.00  0.00    +0.405 C 
ATOM     31  H   UNL     1      15.935   7.668  20.741  0.00  0.00    +0.158 HD
BRANCH   7  18
ATOM     18  C   UNL     1      17.322   9.142  21.253  0.00  0.00    +0.044 A 
ATOM     21  C   UNL     1      18.524   8.438  21.373  0.00  0.00    +0.003 A 
ATOM     22  C   UNL     1      17.300  10.517  21.057  0.00  0.00    +0.024 A 
ATOM     23  C   UNL     1      19.743   9.151  21.292  0.00  0.00    -0.016 A 
ATOM     24  C   UNL     1      18.553   7.048  21.572  0.00  0.00    +0.010 A 
ATOM     25  C   UNL     1      18.499  11.219  20.977  0.00  0.00    +0.002 A 
ATOM     26  C   UNL     1      19.713  10.541  21.093  0.00  0.00    +0.008 A 
ATOM     27  C   UNL     1      20.956   8.453  21.412  0.00  0.00    +0.008 A 
ATOM     28  C   UNL     1      19.767   6.370  21.688  0.00  0.00    +0.001 A 
ATOM     29  C   UNL     1      20.966   7.072  21.608  0.00  0.00    +0.001 A 
ENDBRANCH   7  18
ENDBRANCH   3  15
ENDBRANCH  11   3
TORSDOF 6
ENDMDL
MODEL 8
REMARK VINA RESULT:      -6.8      2.249      7.869
REMARK  Name = 11884600
REMARK  6 active torsions:
REMARK  status: ('A' for Active; 'I' for Inactive)
REMARK    1  A    between atoms: O_3  and  C_11
REMARK    2  A    between atoms: O_3  and  C_15
REMARK    3  A    between atoms: N_6  and  C_10
REMARK    4  A    between atoms: N_6  and  C_14
REMARK    5  A    between atoms: N_7  and  C_18
REMARK    6  A    between atoms: C_14  and  C_16
REMARK                            x       y       z     vdW  Elec       q    Type
REMARK                         _______ _______ _______ _____ _____    ______ ____
ROOT
ATOM      1  O   UNL     1      14.562   8.217  17.825  0.00  0.00    -0.369 OA
ATOM      2  O   UNL     1      11.558   7.942  18.306  0.00  0.00    -0.369 OA
ATOM      8  C   UNL     1      12.413   9.106  18.272  0.00  0.00    +0.170 C 
ATOM      9  C   UNL     1      13.732   8.697  18.897  0.00  0.00    +0.191 C 
ATOM     10  C   UNL     1      12.771   9.442  16.840  0.00  0.00    +0.111 C 
ATOM     11  C   UNL     1      13.320   7.580  19.825  0.00  0.00    +0.235 C 
ATOM     12  C   UNL     1      13.912   8.472  16.570  0.00  0.00    +0.181 C 
ATOM     13  C   UNL     1      12.219   6.901  19.041  0.00  0.00    +0.207 C 
ENDROOT
BRANCH  10   6
ATOM      6  N   UNL     1      13.248  10.818  16.715  0.00  0.00    -0.302 NA
ATOM     30  H   UNL     1      13.650  11.115  17.604  0.00  0.00    +0.123 HD
BRANCH   6  14
ATOM     14  C   UNL     1      14.254  10.923  15.669  0.00  0.00    +0.156 C 
BRANCH  14  16
ATOM      4  O   UNL     1      15.481  11.947  17.463  0.00  0.00    -0.467 OA
ATOM     16  C   UNL     1      15.445  11.711  16.141  0.00  0.00    +0.119 A 
ATOM     17  C   UNL     1      16.503  12.236  15.483  0.00  0.00    +0.046 A 
ATOM     19  C   UNL     1      17.283  12.865  16.482  0.00  0.00    +0.041 A 
ATOM     20  C   UNL     1      16.619  12.661  17.669  0.00  0.00    +0.195 A 
ENDBRANCH  14  16
ENDBRANCH   6  14
ENDBRANCH  10   6
BRANCH  11   3
ATOM      3  O   UNL     1      14.370   6.695  20.140  0.00  0.00    -0.442 OA
BRANCH   3  15
ATOM      5  O   UNL     1      15.124   7.349  22.198  0.00  0.00    -0.226 OA
ATOM      7  N   UNL     1      16.520   7.354  20.319  0.00  0.00    -0.251 N 
ATOM     15  C   UNL     1      15.338   7.158  21.007  0.00  0.00    +0.405 C 
ATOM     31  H   UNL     1      16.469   7.129  19.332  0.00  0.00    +0.158 HD
BRANCH   7  18
ATOM     18  C   UNL     1      17.756   7.817  20.825  0.00  0.00    +0.044 A 
ATOM     21  C   UNL     1      18.901   7.017  20.793  0.00  0.00    +0.003 A 
ATOM     22  C   UNL     1      17.779   9.102  21.355  0.00  0.00    +0.024 A 
ATOM     23  C   UNL     1      20.109   7.535  21.315  0.00  0.00    -0.016 A 
ATOM     24  C   UNL     1      18.884   5.718  20.259  0.00  0.00    +0.010 A 
ATOM     25  C   UNL     1      18.968   9.611  21.868  0.00  0.00    +0.002 A 
ATOM     26  C   UNL     1      20.126   8.834  21.849  0.00  0.00    +0.008 A 
ATOM     27  C   UNL     1      21.266   6.738  21.288  0.00  0.00    +0.008 A 
ATOM     28  C   UNL     1      20.043   4.941  20.240  0.00  0.00    +0.001 A 
ATOM     29  C   UNL     1      21.232   5.451  20.753  0.00  0.00    +0.001 A 
ENDBRANCH   7  18
ENDBRANCH   3  15
ENDBRANCH  11   3
TORSDOF 6
ENDMDL
MODEL 9
REMARK VINA RESULT:      -6.8      4.409      8.441
REMARK  Name = 11884600
REMARK  6 active torsions:
REMARK  status: ('A' for Active; 'I' for Inactive)
REMARK    1  A    between atoms: O_3  and  C_11
REMARK    2  A    between atoms: O_3  and  C_15
REMARK    3  A    between atoms: N_6  and  C_10
REMARK    4  A    between atoms: N_6  and  C_14
REMARK    5  A    between atoms: N_7  and  C_18
REMARK    6  A    between atoms: C_14  and  C_16
REMARK                            x       y       z     vdW  Elec       q    Type
REMARK                         _______ _______ _______ _____ _____    ______ ____
ROOT
ATOM      1  O   UNL     1      14.275   9.277  19.869  0.00  0.00    -0.369 OA
ATOM      2  O   UNL     1      11.622   7.884  19.273  0.00  0.00    -0.369 OA
ATOM      8  C   UNL     1      12.053   8.663  20.411  0.00  0.00    +0.170 C 
ATOM      9  C   UNL     1      13.514   8.331  20.639  0.00  0.00    +0.191 C 
ATOM     10  C   UNL     1      12.060  10.135  20.056  0.00  0.00    +0.111 C 
ATOM     11  C   UNL     1      13.622   6.936  20.074  0.00  0.00    +0.235 C 
ATOM     12  C   UNL     1      13.391  10.273  19.331  0.00  0.00    +0.181 C 
ATOM     13  C   UNL     1      12.682   6.996  18.891  0.00  0.00    +0.207 C 
ENDROOT
BRANCH  10   6
ATOM      6  N   UNL     1      12.056  10.975  21.253  0.00  0.00    -0.302 NA
ATOM     30  H   UNL     1      11.751  11.915  21.001  0.00  0.00    +0.123 HD
BRANCH   6  14
ATOM     14  C   UNL     1      11.162  10.430  22.263  0.00  0.00    +0.156 C 
BRANCH  14  16
ATOM      4  O   UNL     1      10.612  12.616  23.092  0.00  0.00    -0.467 OA
ATOM     16  C   UNL     1      11.013  11.378  23.422  0.00  0.00    +0.119 A 
ATOM     17  C   UNL     1      11.207  11.222  24.751  0.00  0.00    +0.046 A 
ATOM     19  C   UNL     1      10.901  12.482  25.317  0.00  0.00    +0.041 A 
ATOM     20  C   UNL     1      10.543  13.296  24.268  0.00  0.00    +0.195 A 
ENDBRANCH  14  16
ENDBRANCH   6  14
ENDBRANCH  10   6
BRANCH  11   3
ATOM      3  O   UNL     1      14.933   6.584  19.693  0.00  0.00    -0.442 OA
BRANCH   3  15
ATOM      5  O   UNL     1      15.807   6.109  21.752  0.00  0.00    -0.226 OA
ATOM      7  N   UNL     1      16.956   7.441  20.206  0.00  0.00    -0.251 N 
ATOM     15  C   UNL     1      15.909   6.664  20.665  0.00  0.00    +0.405 C 
ATOM     31  H   UNL     1      16.827   7.801  19.268  0.00  0.00    +0.158 HD
BRANCH   7  18
ATOM     18  C   UNL     1      18.151   7.776  20.881  0.00  0.00    +0.044 A 
ATOM     21  C   UNL     1      19.244   6.905  20.901  0.00  0.00    +0.003 A 
ATOM     22  C   UNL     1      18.190   9.008  21.523  0.00  0.00    +0.024 A 
ATOM     23  C   UNL     1      20.414   7.295  21.594  0.00  0.00    -0.016 A 
ATOM     24  C   UNL     1      19.211   5.658  20.255  0.00  0.00    +0.010 A 
ATOM     25  C   UNL     1      19.341   9.391  22.205  0.00  0.00    +0.002 A 
ATOM     26  C   UNL     1      20.447   8.541  22.240  0.00  0.00    +0.008 A 
ATOM     27  C   UNL     1      21.518   6.426  21.620  0.00  0.00    +0.008 A 
ATOM     28  C   UNL     1      20.317   4.809  20.291  0.00  0.00    +0.001 A 
ATOM     29  C   UNL     1      21.468   5.192  20.972  0.00  0.00    +0.001 A 
ENDBRANCH   7  18
ENDBRANCH   3  15
ENDBRANCH  11   3
TORSDOF 6
ENDMDL
MODEL 10
REMARK VINA RESULT:      -6.7     26.756     29.412
REMARK  Name = 11884600
REMARK  6 active torsions:
REMARK  status: ('A' for Active; 'I' for Inactive)
REMARK    1  A    between atoms: O_3  and  C_11
REMARK    2  A    between atoms: O_3  and  C_15
REMARK    3  A    between atoms: N_6  and  C_10
REMARK    4  A    between atoms: N_6  and  C_14
REMARK    5  A    between atoms: N_7  and  C_18
REMARK    6  A    between atoms: C_14  and  C_16
REMARK                            x       y       z     vdW  Elec       q    Type
REMARK                         _______ _______ _______ _____ _____    ______ ____
ROOT
ATOM      1  O   UNL     1      -5.217  -9.192  12.163  0.00  0.00    -0.369 OA
ATOM      2  O   UNL     1      -3.329  -9.989   9.897  0.00  0.00    -0.369 OA
ATOM      8  C   UNL     1      -4.670 -10.422  10.214  0.00  0.00    +0.170 C 
ATOM      9  C   UNL     1      -4.762 -10.485  11.726  0.00  0.00    +0.191 C 
ATOM     10  C   UNL     1      -5.665  -9.349   9.827  0.00  0.00    +0.111 C 
ATOM     11  C   UNL     1      -3.330 -10.737  12.129  0.00  0.00    +0.235 C 
ATOM     12  C   UNL     1      -5.581  -8.404  11.018  0.00  0.00    +0.181 C 
ATOM     13  C   UNL     1      -2.563  -9.927  11.108  0.00  0.00    +0.207 C 
ENDROOT
BRANCH  10   6
ATOM      6  N   UNL     1      -7.019  -9.888   9.714  0.00  0.00    -0.302 NA
ATOM     30  H   UNL     1      -7.169 -10.574  10.454  0.00  0.00    +0.123 HD
BRANCH   6  14
ATOM     14  C   UNL     1      -8.008  -8.828   9.829  0.00  0.00    +0.156 C 
BRANCH  14  16
ATOM      4  O   UNL     1      -8.640  -9.034   7.521  0.00  0.00    -0.467 OA
ATOM     16  C   UNL     1      -8.271  -8.185   8.495  0.00  0.00    +0.119 A 
ATOM     17  C   UNL     1      -8.207  -6.900   8.079  0.00  0.00    +0.046 A 
ATOM     19  C   UNL     1      -8.569  -6.938   6.712  0.00  0.00    +0.041 A 
ATOM     20  C   UNL     1      -8.824  -8.258   6.420  0.00  0.00    +0.195 A 
ENDBRANCH  14  16
ENDBRANCH   6  14
ENDBRANCH  10   6
BRANCH  11   3
ATOM      3  O   UNL     1      -3.040 -10.339  13.450  0.00  0.00    -0.442 OA
BRANCH   3  15
ATOM      5  O   UNL     1      -3.735 -12.321  14.355  0.00  0.00    -0.226 OA
ATOM      7  N   UNL     1      -3.842 -10.315  15.558  0.00  0.00    -0.251 N 
ATOM     15  C   UNL     1      -3.564 -11.113  14.465  0.00  0.00    +0.405 C 
ATOM     31  H   UNL     1      -3.618  -9.335  15.426  0.00  0.00    +0.158 HD
BRANCH   7  18
ATOM     18  C   UNL     1      -4.387 -10.703  16.803  0.00  0.00    +0.044 A 
ATOM     21  C   UNL     1      -5.704 -10.388  17.150  0.00  0.00    +0.003 A 
ATOM     22  C   UNL     1      -3.556 -11.409  17.663  0.00  0.00    +0.024 A 
ATOM     23  C   UNL     1      -6.194 -10.803  18.410  0.00  0.00    -0.016 A 
ATOM     24  C   UNL     1      -6.549  -9.674  16.285  0.00  0.00    +0.010 A 
ATOM     25  C   UNL     1      -4.038 -11.817  18.903  0.00  0.00    +0.002 A 
ATOM     26  C   UNL     1      -5.349 -11.517  19.275  0.00  0.00    +0.008 A 
ATOM     27  C   UNL     1      -7.516 -10.492  18.770  0.00  0.00    +0.008 A 
ATOM     28  C   UNL     1      -7.860  -9.374  16.658  0.00  0.00    +0.001 A 
ATOM     29  C   UNL     1      -8.342  -9.783  17.898  0.00  0.00    +0.001 A 
ENDBRANCH   7  18
ENDBRANCH   3  15
ENDBRANCH  11   3
TORSDOF 6
ENDMDL
