MODEL 1
REMARK VINA RESULT:      -6.0      0.000      0.000
REMARK  Name = 51136670
REMARK  9 active torsions:
REMARK  status: ('A' for Active; 'I' for Inactive)
REMARK    1  A    between atoms: O_1  and  C_18
REMARK    2  A    between atoms: O_4  and  C_26
REMARK    3  A    between atoms: O_4  and  C_28
REMARK    4  A    between atoms: N_7  and  C_25
REMARK    5  A    between atoms: C_8  and  C_12
REMARK    6  A    between atoms: C_9  and  C_14
REMARK    7  A    between atoms: C_12  and  C_15
REMARK    8  A    between atoms: C_14  and  C_18
REMARK    9  A    between atoms: C_25  and  C_27
REMARK                            x       y       z     vdW  Elec       q    Type
REMARK                         _______ _______ _______ _____ _____    ______ ____
ROOT
ATOM      2  O   UNL     1      12.436   6.572  19.296  0.00  0.00    -0.253 OA
ATOM      5  N   UNL     1      12.194   8.773  19.987  0.00  0.00    -0.285 N 
ATOM      7  N   UNL     1      14.214   7.996  19.034  0.00  0.00    -0.296 N 
ATOM      8  C   UNL     1      12.630  10.542  21.668  0.00  0.00    +0.016 C 
ATOM      9  C   UNL     1      11.197  10.321  22.220  0.00  0.00    +0.006 C 
ATOM     10  C   UNL     1      10.682   8.902  21.921  0.00  0.00    +0.023 C 
ATOM     11  C   UNL     1      12.676  10.147  20.181  0.00  0.00    +0.113 C 
ATOM     13  C   UNL     1      10.819   8.557  20.438  0.00  0.00    +0.109 C 
ATOM     16  C   UNL     1      12.914   7.704  19.428  0.00  0.00    +0.302 C 
ATOM     30  H   UNL     1      14.621   8.901  19.228  0.00  0.00    +0.151 HD
ENDROOT
BRANCH   8  12
ATOM     12  C   UNL     1      13.722   9.803  22.451  0.00  0.00    +0.061 C 
BRANCH  12  15
ATOM      6  N   UNL     1      14.453  11.701  23.729  0.00  0.00    -0.287 NA
ATOM     15  C   UNL     1      14.789  10.778  22.888  0.00  0.00    +0.044 C 
ATOM     17  C   UNL     1      16.158  10.636  22.332  0.00  0.00    -0.001 A 
ATOM     19  C   UNL     1      17.002  11.749  22.441  0.00  0.00    -0.033 A 
ATOM     20  C   UNL     1      16.472  12.994  23.088  0.00  0.00    +0.059 C 
ATOM     21  C   UNL     1      15.504  12.611  24.199  0.00  0.00    +0.146 C 
ATOM     22  C   UNL     1      16.604   9.467  21.713  0.00  0.00    +0.013 A 
ATOM     23  C   UNL     1      18.290  11.693  21.902  0.00  0.00    +0.050 A 
ATOM     24  C   UNL     1      17.897   9.416  21.191  0.00  0.00    +0.046 A 
ATOM     26  C   UNL     1      18.738  10.526  21.282  0.00  0.00    +0.120 A 
BRANCH  26   4
ATOM      4  O   UNL     1      19.995  10.471  20.764  0.00  0.00    -0.495 OA
ATOM     28  C   UNL     1      20.784   9.329  21.097  0.00  0.00    +0.277 C 
ENDBRANCH  26   4
ENDBRANCH  12  15
ENDBRANCH   8  12
BRANCH   9  14
ATOM     14  C   UNL     1      11.073  10.637  23.710  0.00  0.00    +0.124 C 
BRANCH  14  18
ATOM      3  O   UNL     1      10.391  12.574  25.022  0.00  0.00    -0.251 OA
ATOM     18  C   UNL     1      10.558  12.030  23.941  0.00  0.00    +0.305 C 
BRANCH  18   1
ATOM      1  O   UNL     1      10.294  12.624  22.749  0.00  0.00    -0.481 OA
ATOM     31  H   UNL     1      11.108  12.754  22.216  0.00  0.00    +0.295 HD
ENDBRANCH  18   1
ENDBRANCH  14  18
ENDBRANCH   9  14
BRANCH   7  25
ATOM     25  C   UNL     1      15.083   7.000  18.450  0.00  0.00    +0.132 C 
BRANCH  25  27
ATOM     27  C   UNL     1      15.940   6.412  19.521  0.00  0.00    -0.016 C 
ATOM     29  C   UNL     1      17.237   6.122  19.362  0.00  0.00    +0.005 C 
ENDBRANCH  25  27
ENDBRANCH   7  25
TORSDOF 8
ENDMDL
MODEL 2
REMARK VINA RESULT:      -5.9     15.281     18.712
REMARK  Name = 51136670
REMARK  9 active torsions:
REMARK  status: ('A' for Active; 'I' for Inactive)
REMARK    1  A    between atoms: O_1  and  C_18
REMARK    2  A    between atoms: O_4  and  C_26
REMARK    3  A    between atoms: O_4  and  C_28
REMARK    4  A    between atoms: N_7  and  C_25
REMARK    5  A    between atoms: C_8  and  C_12
REMARK    6  A    between atoms: C_9  and  C_14
REMARK    7  A    between atoms: C_12  and  C_15
REMARK    8  A    between atoms: C_14  and  C_18
REMARK    9  A    between atoms: C_25  and  C_27
REMARK                            x       y       z     vdW  Elec       q    Type
REMARK                         _______ _______ _______ _____ _____    ______ ____
ROOT
ATOM      2  O   UNL     1       9.767  11.371   6.004  0.00  0.00    -0.253 OA
ATOM      5  N   UNL     1      10.675   9.313   6.568  0.00  0.00    -0.285 N 
ATOM      7  N   UNL     1      10.775  10.137   4.354  0.00  0.00    -0.296 N 
ATOM      8  C   UNL     1      10.508   6.840   6.585  0.00  0.00    +0.016 C 
ATOM      9  C   UNL     1      10.034   6.917   8.061  0.00  0.00    +0.006 C 
ATOM     10  C   UNL     1       9.379   8.273   8.380  0.00  0.00    +0.023 C 
ATOM     11  C   UNL     1      11.383   8.062   6.260  0.00  0.00    +0.113 C 
ATOM     13  C   UNL     1      10.278   9.439   7.970  0.00  0.00    +0.109 C 
ATOM     16  C   UNL     1      10.367  10.344   5.666  0.00  0.00    +0.302 C 
ATOM     30  H   UNL     1      11.185   9.257   4.074  0.00  0.00    +0.151 HD
ENDROOT
BRANCH   8  12
ATOM     12  C   UNL     1       9.367   6.713   5.569  0.00  0.00    +0.061 C 
BRANCH  12  15
ATOM      6  N   UNL     1      10.535   4.999   4.358  0.00  0.00    -0.287 NA
ATOM     15  C   UNL     1       9.888   6.116   4.284  0.00  0.00    +0.044 C 
ATOM     17  C   UNL     1       9.641   6.836   3.009  0.00  0.00    -0.001 A 
ATOM     19  C   UNL     1      10.446   6.481   1.918  0.00  0.00    -0.033 A 
ATOM     20  C   UNL     1      11.494   5.425   2.109  0.00  0.00    +0.059 C 
ATOM     21  C   UNL     1      10.988   4.388   3.103  0.00  0.00    +0.146 C 
ATOM     22  C   UNL     1       8.673   7.832   2.880  0.00  0.00    +0.013 A 
ATOM     23  C   UNL     1      10.290   7.149   0.701  0.00  0.00    +0.050 A 
ATOM     24  C   UNL     1       8.515   8.483   1.656  0.00  0.00    +0.046 A 
ATOM     26  C   UNL     1       9.323   8.146   0.569  0.00  0.00    +0.120 A 
BRANCH  26   4
ATOM      4  O   UNL     1       9.169   8.791  -0.619  0.00  0.00    -0.495 OA
ATOM     28  C   UNL     1       7.882   9.346  -0.892  0.00  0.00    +0.277 C 
ENDBRANCH  26   4
ENDBRANCH  12  15
ENDBRANCH   8  12
BRANCH   9  14
ATOM     14  C   UNL     1       9.111   5.766   8.456  0.00  0.00    +0.124 C 
BRANCH  14  18
ATOM      3  O   UNL     1      10.004   4.664  10.437  0.00  0.00    -0.251 OA
ATOM     18  C   UNL     1       9.845   4.704   9.226  0.00  0.00    +0.305 C 
BRANCH  18   1
ATOM      1  O   UNL     1      10.325   3.766   8.370  0.00  0.00    -0.481 OA
ATOM     31  H   UNL     1      11.280   3.898   8.180  0.00  0.00    +0.295 HD
ENDBRANCH  18   1
ENDBRANCH  14  18
ENDBRANCH   9  14
BRANCH   7  25
ATOM     25  C   UNL     1      10.524  11.103   3.308  0.00  0.00    +0.132 C 
BRANCH  25  27
ATOM     27  C   UNL     1      11.382  10.781   2.131  0.00  0.00    -0.016 C 
ATOM     29  C   UNL     1      12.346   9.853   2.144  0.00  0.00    +0.005 C 
ENDBRANCH  25  27
ENDBRANCH   7  25
TORSDOF 8
ENDMDL
MODEL 3
REMARK VINA RESULT:      -5.7     15.794     19.512
REMARK  Name = 51136670
REMARK  9 active torsions:
REMARK  status: ('A' for Active; 'I' for Inactive)
REMARK    1  A    between atoms: O_1  and  C_18
REMARK    2  A    between atoms: O_4  and  C_26
REMARK    3  A    between atoms: O_4  and  C_28
REMARK    4  A    between atoms: N_7  and  C_25
REMARK    5  A    between atoms: C_8  and  C_12
REMARK    6  A    between atoms: C_9  and  C_14
REMARK    7  A    between atoms: C_12  and  C_15
REMARK    8  A    between atoms: C_14  and  C_18
REMARK    9  A    between atoms: C_25  and  C_27
REMARK                            x       y       z     vdW  Elec       q    Type
REMARK                         _______ _______ _______ _____ _____    ______ ____
ROOT
ATOM      2  O   UNL     1      15.136   6.509   3.316  0.00  0.00    -0.253 OA
ATOM      5  N   UNL     1      13.226   7.123   2.153  0.00  0.00    -0.285 N 
ATOM      7  N   UNL     1      13.621   7.878   4.359  0.00  0.00    -0.296 N 
ATOM      8  C   UNL     1      10.799   6.841   1.736  0.00  0.00    +0.016 C 
ATOM      9  C   UNL     1      11.150   5.976   0.495  0.00  0.00    +0.006 C 
ATOM     10  C   UNL     1      12.537   5.324   0.627  0.00  0.00    +0.023 C 
ATOM     11  C   UNL     1      11.944   7.829   2.015  0.00  0.00    +0.113 C 
ATOM     13  C   UNL     1      13.611   6.355   0.969  0.00  0.00    +0.109 C 
ATOM     16  C   UNL     1      14.068   7.130   3.277  0.00  0.00    +0.302 C 
ATOM     30  H   UNL     1      12.706   8.309   4.346  0.00  0.00    +0.151 HD
ENDROOT
BRANCH   8  12
ATOM     12  C   UNL     1      10.477   6.026   2.994  0.00  0.00    +0.061 C 
BRANCH  12  15
ATOM      6  N   UNL     1       8.799   7.717   3.300  0.00  0.00    -0.287 NA
ATOM     15  C   UNL     1       9.495   6.781   3.857  0.00  0.00    +0.044 C 
ATOM     17  C   UNL     1       9.380   6.419   5.293  0.00  0.00    -0.001 A 
ATOM     19  C   UNL     1       8.774   7.362   6.134  0.00  0.00    -0.033 A 
ATOM     20  C   UNL     1       8.301   8.656   5.542  0.00  0.00    +0.059 C 
ATOM     21  C   UNL     1       7.802   8.410   4.124  0.00  0.00    +0.146 C 
ATOM     22  C   UNL     1       9.858   5.214   5.809  0.00  0.00    +0.013 A 
ATOM     23  C   UNL     1       8.671   7.100   7.502  0.00  0.00    +0.050 A 
ATOM     24  C   UNL     1       9.738   4.955   7.174  0.00  0.00    +0.046 A 
ATOM     26  C   UNL     1       9.149   5.896   8.020  0.00  0.00    +0.120 A 
BRANCH  26   4
ATOM      4  O   UNL     1       9.042   5.639   9.352  0.00  0.00    -0.495 OA
ATOM     28  C   UNL     1       9.419   4.334   9.793  0.00  0.00    +0.277 C 
ENDBRANCH  26   4
ENDBRANCH  12  15
ENDBRANCH   8  12
BRANCH   9  14
ATOM     14  C   UNL     1      10.087   4.926   0.177  0.00  0.00    +0.124 C 
BRANCH  14  18
ATOM      3  O   UNL     1       9.359   5.460  -2.087  0.00  0.00    -0.251 OA
ATOM     18  C   UNL     1       9.936   4.719  -1.305  0.00  0.00    +0.305 C 
BRANCH  18   1
ATOM      1  O   UNL     1      10.545   3.562  -1.670  0.00  0.00    -0.481 OA
ATOM     31  H   UNL     1      11.056   3.664  -2.502  0.00  0.00    +0.295 HD
ENDBRANCH  18   1
ENDBRANCH  14  18
ENDBRANCH   9  14
BRANCH   7  25
ATOM     25  C   UNL     1      14.372   7.977   5.590  0.00  0.00    +0.132 C 
BRANCH  25  27
ATOM     27  C   UNL     1      13.789   7.038   6.593  0.00  0.00    -0.016 C 
ATOM     29  C   UNL     1      12.578   7.190   7.141  0.00  0.00    +0.005 C 
ENDBRANCH  25  27
ENDBRANCH   7  25
TORSDOF 8
ENDMDL
MODEL 4
REMARK VINA RESULT:      -5.6     27.784     30.056
REMARK  Name = 51136670
REMARK  9 active torsions:
REMARK  status: ('A' for Active; 'I' for Inactive)
REMARK    1  A    between atoms: O_1  and  C_18
REMARK    2  A    between atoms: O_4  and  C_26
REMARK    3  A    between atoms: O_4  and  C_28
REMARK    4  A    between atoms: N_7  and  C_25
REMARK    5  A    between atoms: C_8  and  C_12
REMARK    6  A    between atoms: C_9  and  C_14
REMARK    7  A    between atoms: C_12  and  C_15
REMARK    8  A    between atoms: C_14  and  C_18
REMARK    9  A    between atoms: C_25  and  C_27
REMARK                            x       y       z     vdW  Elec       q    Type
REMARK                         _______ _______ _______ _____ _____    ______ ____
ROOT
ATOM      2  O   UNL     1      -7.710 -10.484  12.963  0.00  0.00    -0.253 OA
ATOM      5  N   UNL     1      -6.940  -9.883  15.066  0.00  0.00    -0.285 N 
ATOM      7  N   UNL     1      -5.453 -10.200  13.255  0.00  0.00    -0.296 N 
ATOM      8  C   UNL     1      -5.871 -10.521  17.210  0.00  0.00    +0.016 C 
ATOM      9  C   UNL     1      -7.282 -10.573  17.856  0.00  0.00    +0.006 C 
ATOM     10  C   UNL     1      -8.379 -10.844  16.812  0.00  0.00    +0.023 C 
ATOM     11  C   UNL     1      -5.883  -9.538  16.027  0.00  0.00    +0.113 C 
ATOM     13  C   UNL     1      -8.287  -9.872  15.637  0.00  0.00    +0.109 C 
ATOM     16  C   UNL     1      -6.765 -10.205  13.710  0.00  0.00    +0.302 C 
ATOM     30  H   UNL     1      -4.685 -10.057  13.896  0.00  0.00    +0.151 HD
ENDROOT
BRANCH   8  12
ATOM     12  C   UNL     1      -5.339 -11.888  16.765  0.00  0.00    +0.061 C 
BRANCH  12  15
ATOM      6  N   UNL     1      -3.153 -10.892  16.748  0.00  0.00    -0.287 NA
ATOM     15  C   UNL     1      -3.954 -11.735  16.182  0.00  0.00    +0.044 C 
ATOM     17  C   UNL     1      -3.584 -12.547  14.996  0.00  0.00    -0.001 A 
ATOM     19  C   UNL     1      -2.473 -12.115  14.258  0.00  0.00    -0.033 A 
ATOM     20  C   UNL     1      -1.753 -10.876  14.699  0.00  0.00    +0.059 C 
ATOM     21  C   UNL     1      -1.788 -10.787  16.219  0.00  0.00    +0.146 C 
ATOM     22  C   UNL     1      -4.298 -13.679  14.602  0.00  0.00    +0.013 A 
ATOM     23  C   UNL     1      -2.097 -12.812  13.107  0.00  0.00    +0.050 A 
ATOM     24  C   UNL     1      -3.905 -14.377  13.460  0.00  0.00    +0.046 A 
ATOM     26  C   UNL     1      -2.809 -13.945  12.712  0.00  0.00    +0.120 A 
BRANCH  26   4
ATOM      4  O   UNL     1      -2.438 -14.627  11.595  0.00  0.00    -0.495 OA
ATOM     28  C   UNL     1      -2.754 -16.018  11.549  0.00  0.00    +0.277 C 
ENDBRANCH  26   4
ENDBRANCH  12  15
ENDBRANCH   8  12
BRANCH   9  14
ATOM     14  C   UNL     1      -7.376 -11.570  19.011  0.00  0.00    +0.124 C 
BRANCH  14  18
ATOM      3  O   UNL     1      -9.526 -12.522  19.649  0.00  0.00    -0.251 OA
ATOM     18  C   UNL     1      -8.748 -11.580  19.624  0.00  0.00    +0.305 C 
BRANCH  18   1
ATOM      1  O   UNL     1      -9.018 -10.364  20.164  0.00  0.00    -0.481 OA
ATOM     31  H   UNL     1      -8.431 -10.163  20.925  0.00  0.00    +0.295 HD
ENDBRANCH  18   1
ENDBRANCH  14  18
ENDBRANCH   9  14
BRANCH   7  25
ATOM     25  C   UNL     1      -5.112 -10.519  11.887  0.00  0.00    +0.132 C 
BRANCH  25  27
ATOM     27  C   UNL     1      -3.772  -9.942  11.572  0.00  0.00    -0.016 C 
ATOM     29  C   UNL     1      -3.444  -9.426  10.381  0.00  0.00    +0.005 C 
ENDBRANCH  25  27
ENDBRANCH   7  25
TORSDOF 8
ENDMDL
MODEL 5
REMARK VINA RESULT:      -5.6      2.089      5.047
REMARK  Name = 51136670
REMARK  9 active torsions:
REMARK  status: ('A' for Active; 'I' for Inactive)
REMARK    1  A    between atoms: O_1  and  C_18
REMARK    2  A    between atoms: O_4  and  C_26
REMARK    3  A    between atoms: O_4  and  C_28
REMARK    4  A    between atoms: N_7  and  C_25
REMARK    5  A    between atoms: C_8  and  C_12
REMARK    6  A    between atoms: C_9  and  C_14
REMARK    7  A    between atoms: C_12  and  C_15
REMARK    8  A    between atoms: C_14  and  C_18
REMARK    9  A    between atoms: C_25  and  C_27
REMARK                            x       y       z     vdW  Elec       q    Type
REMARK                         _______ _______ _______ _____ _____    ______ ____
ROOT
ATOM      2  O   UNL     1      10.925  10.350  22.374  0.00  0.00    -0.253 OA
ATOM      5  N   UNL     1      12.920  11.183  21.535  0.00  0.00    -0.285 N 
ATOM      7  N   UNL     1      11.943   9.215  20.662  0.00  0.00    -0.296 N 
ATOM      8  C   UNL     1      15.393  11.074  21.411  0.00  0.00    +0.016 C 
ATOM      9  C   UNL     1      15.461  12.237  22.437  0.00  0.00    +0.006 C 
ATOM     10  C   UNL     1      14.198  12.298  23.315  0.00  0.00    +0.023 C 
ATOM     11  C   UNL     1      14.074  11.156  20.625  0.00  0.00    +0.113 C 
ATOM     13  C   UNL     1      12.927  12.310  22.467  0.00  0.00    +0.109 C 
ATOM     16  C   UNL     1      11.865  10.257  21.576  0.00  0.00    +0.302 C 
ATOM     30  H   UNL     1      12.760   9.102  20.076  0.00  0.00    +0.151 HD
ENDROOT
BRANCH   8  12
ATOM     12  C   UNL     1      15.560   9.682  22.033  0.00  0.00    +0.061 C 
BRANCH  12  15
ATOM      6  N   UNL     1      14.879   8.411  20.113  0.00  0.00    -0.287 NA
ATOM     15  C   UNL     1      15.830   8.665  20.951  0.00  0.00    +0.044 C 
ATOM     17  C   UNL     1      17.160   8.007  20.904  0.00  0.00    -0.001 A 
ATOM     19  C   UNL     1      17.251   6.821  20.162  0.00  0.00    -0.033 A 
ATOM     20  C   UNL     1      16.018   6.297  19.488  0.00  0.00    +0.059 C 
ATOM     21  C   UNL     1      15.161   7.468  19.025  0.00  0.00    +0.146 C 
ATOM     22  C   UNL     1      18.278   8.513  21.568  0.00  0.00    +0.013 A 
ATOM     23  C   UNL     1      18.465   6.132  20.111  0.00  0.00    +0.050 A 
ATOM     24  C   UNL     1      19.489   7.825  21.499  0.00  0.00    +0.046 A 
ATOM     26  C   UNL     1      19.584   6.636  20.775  0.00  0.00    +0.120 A 
BRANCH  26   4
ATOM      4  O   UNL     1      20.767   5.967  20.719  0.00  0.00    -0.495 OA
ATOM     28  C   UNL     1      21.243   5.388  21.934  0.00  0.00    +0.277 C 
ENDBRANCH  26   4
ENDBRANCH  12  15
ENDBRANCH   8  12
BRANCH   9  14
ATOM     14  C   UNL     1      16.719  12.201  23.302  0.00  0.00    +0.124 C 
BRANCH  14  18
ATOM      3  O   UNL     1      18.898  11.823  22.278  0.00  0.00    -0.251 OA
ATOM     18  C   UNL     1      17.947  12.555  22.511  0.00  0.00    +0.305 C 
BRANCH  18   1
ATOM      1  O   UNL     1      17.858  13.838  22.076  0.00  0.00    -0.481 OA
ATOM     31  H   UNL     1      17.286  14.383  22.659  0.00  0.00    +0.295 HD
ENDBRANCH  18   1
ENDBRANCH  14  18
ENDBRANCH   9  14
BRANCH   7  25
ATOM     25  C   UNL     1      10.938   8.179  20.586  0.00  0.00    +0.132 C 
BRANCH  25  27
ATOM     27  C   UNL     1      11.597   6.848  20.737  0.00  0.00    -0.016 C 
ATOM     29  C   UNL     1      11.167   5.894  21.572  0.00  0.00    +0.005 C 
ENDBRANCH  25  27
ENDBRANCH   7  25
TORSDOF 8
ENDMDL
MODEL 6
REMARK VINA RESULT:      -5.6     28.263     32.382
REMARK  Name = 51136670
REMARK  9 active torsions:
REMARK  status: ('A' for Active; 'I' for Inactive)
REMARK    1  A    between atoms: O_1  and  C_18
REMARK    2  A    between atoms: O_4  and  C_26
REMARK    3  A    between atoms: O_4  and  C_28
REMARK    4  A    between atoms: N_7  and  C_25
REMARK    5  A    between atoms: C_8  and  C_12
REMARK    6  A    between atoms: C_9  and  C_14
REMARK    7  A    between atoms: C_12  and  C_15
REMARK    8  A    between atoms: C_14  and  C_18
REMARK    9  A    between atoms: C_25  and  C_27
REMARK                            x       y       z     vdW  Elec       q    Type
REMARK                         _______ _______ _______ _____ _____    ______ ____
ROOT
ATOM      2  O   UNL     1     -13.772   9.902  31.499  0.00  0.00    -0.253 OA
ATOM      5  N   UNL     1     -14.647   8.366  33.001  0.00  0.00    -0.285 N 
ATOM      7  N   UNL     1     -12.355   8.349  32.416  0.00  0.00    -0.296 N 
ATOM      8  C   UNL     1     -15.455   6.073  33.479  0.00  0.00    +0.016 C 
ATOM      9  C   UNL     1     -16.910   6.592  33.324  0.00  0.00    +0.006 C 
ATOM     10  C   UNL     1     -16.978   7.840  32.427  0.00  0.00    +0.023 C 
ATOM     11  C   UNL     1     -14.541   7.227  33.924  0.00  0.00    +0.113 C 
ATOM     13  C   UNL     1     -15.997   8.917  32.890  0.00  0.00    +0.109 C 
ATOM     16  C   UNL     1     -13.602   8.939  32.256  0.00  0.00    +0.302 C 
ATOM     30  H   UNL     1     -12.249   7.509  32.969  0.00  0.00    +0.151 HD
ENDROOT
BRANCH   8  12
ATOM     12  C   UNL     1     -14.895   5.400  32.220  0.00  0.00    +0.061 C 
BRANCH  12  15
ATOM      6  N   UNL     1     -14.610   3.407  33.530  0.00  0.00    -0.287 NA
ATOM     15  C   UNL     1     -14.935   3.899  32.379  0.00  0.00    +0.044 C 
ATOM     17  C   UNL     1     -15.336   3.068  31.217  0.00  0.00    -0.001 A 
ATOM     19  C   UNL     1     -14.997   1.709  31.266  0.00  0.00    -0.033 A 
ATOM     20  C   UNL     1     -14.252   1.196  32.462  0.00  0.00    +0.059 C 
ATOM     21  C   UNL     1     -14.708   1.953  33.702  0.00  0.00    +0.146 C 
ATOM     22  C   UNL     1     -16.005   3.590  30.109  0.00  0.00    +0.013 A 
ATOM     23  C   UNL     1     -15.310   0.881  30.185  0.00  0.00    +0.050 A 
ATOM     24  C   UNL     1     -16.327   2.752  29.042  0.00  0.00    +0.046 A 
ATOM     26  C   UNL     1     -15.979   1.401  29.077  0.00  0.00    +0.120 A 
BRANCH  26   4
ATOM      4  O   UNL     1     -16.290   0.592  28.028  0.00  0.00    -0.495 OA
ATOM     28  C   UNL     1     -16.869   1.212  26.880  0.00  0.00    +0.277 C 
ENDBRANCH  26   4
ENDBRANCH  12  15
ENDBRANCH   8  12
BRANCH   9  14
ATOM     14  C   UNL     1     -17.880   5.519  32.831  0.00  0.00    +0.124 C 
BRANCH  14  18
ATOM      3  O   UNL     1     -19.457   5.140  34.649  0.00  0.00    -0.251 OA
ATOM     18  C   UNL     1     -18.508   4.771  33.974  0.00  0.00    +0.305 C 
BRANCH  18   1
ATOM      1  O   UNL     1     -17.860   3.593  34.162  0.00  0.00    -0.481 OA
ATOM     31  H   UNL     1     -16.886   3.694  34.083  0.00  0.00    +0.295 HD
ENDBRANCH  18   1
ENDBRANCH  14  18
ENDBRANCH   9  14
BRANCH   7  25
ATOM     25  C   UNL     1     -11.184   8.820  31.711  0.00  0.00    +0.132 C 
BRANCH  25  27
ATOM     27  C   UNL     1     -10.353   9.640  32.640  0.00  0.00    -0.016 C 
ATOM     29  C   UNL     1     -10.154  10.956  32.498  0.00  0.00    +0.005 C 
ENDBRANCH  25  27
ENDBRANCH   7  25
TORSDOF 8
ENDMDL
MODEL 7
REMARK VINA RESULT:      -5.5     23.982     25.928
REMARK  Name = 51136670
REMARK  9 active torsions:
REMARK  status: ('A' for Active; 'I' for Inactive)
REMARK    1  A    between atoms: O_1  and  C_18
REMARK    2  A    between atoms: O_4  and  C_26
REMARK    3  A    between atoms: O_4  and  C_28
REMARK    4  A    between atoms: N_7  and  C_25
REMARK    5  A    between atoms: C_8  and  C_12
REMARK    6  A    between atoms: C_9  and  C_14
REMARK    7  A    between atoms: C_12  and  C_15
REMARK    8  A    between atoms: C_14  and  C_18
REMARK    9  A    between atoms: C_25  and  C_27
REMARK                            x       y       z     vdW  Elec       q    Type
REMARK                         _______ _______ _______ _____ _____    ______ ____
ROOT
ATOM      2  O   UNL     1       2.591 -13.535  36.019  0.00  0.00    -0.253 OA
ATOM      5  N   UNL     1       2.905 -11.239  35.937  0.00  0.00    -0.285 N 
ATOM      7  N   UNL     1       2.758 -12.533  33.963  0.00  0.00    -0.296 N 
ATOM      8  C   UNL     1       4.418  -9.302  35.616  0.00  0.00    +0.016 C 
ATOM      9  C   UNL     1       4.496  -9.152  37.159  0.00  0.00    +0.006 C 
ATOM     10  C   UNL     1       4.212 -10.483  37.877  0.00  0.00    +0.023 C 
ATOM     11  C   UNL     1       3.084  -9.964  35.229  0.00  0.00    +0.113 C 
ATOM     13  C   UNL     1       2.906 -11.113  37.395  0.00  0.00    +0.109 C 
ATOM     16  C   UNL     1       2.738 -12.505  35.352  0.00  0.00    +0.302 C 
ATOM     30  H   UNL     1       2.967 -11.697  33.433  0.00  0.00    +0.151 HD
ENDROOT
BRANCH   8  12
ATOM     12  C   UNL     1       5.594 -10.072  35.003  0.00  0.00    +0.061 C 
BRANCH  12  15
ATOM      6  N   UNL     1       6.159  -8.048  33.840  0.00  0.00    -0.287 NA
ATOM     15  C   UNL     1       6.111  -9.338  33.789  0.00  0.00    +0.044 C 
ATOM     17  C   UNL     1       6.530 -10.126  32.602  0.00  0.00    -0.001 A 
ATOM     19  C   UNL     1       6.628  -9.434  31.388  0.00  0.00    -0.033 A 
ATOM     20  C   UNL     1       6.297  -7.972  31.364  0.00  0.00    +0.059 C 
ATOM     21  C   UNL     1       6.717  -7.338  32.684  0.00  0.00    +0.146 C 
ATOM     22  C   UNL     1       6.803 -11.494  32.662  0.00  0.00    +0.013 A 
ATOM     23  C   UNL     1       6.979 -10.127  30.226  0.00  0.00    +0.050 A 
ATOM     24  C   UNL     1       7.167 -12.173  31.499  0.00  0.00    +0.046 A 
ATOM     26  C   UNL     1       7.253 -11.493  30.283  0.00  0.00    +0.120 A 
BRANCH  26   4
ATOM      4  O   UNL     1       7.601 -12.165  29.152  0.00  0.00    -0.495 OA
ATOM     28  C   UNL     1       7.637 -13.590  29.230  0.00  0.00    +0.277 C 
ENDBRANCH  26   4
ENDBRANCH  12  15
ENDBRANCH   8  12
BRANCH   9  14
ATOM     14  C   UNL     1       5.816  -8.551  37.637  0.00  0.00    +0.124 C 
BRANCH  14  18
ATOM      3  O   UNL     1       5.228  -6.278  38.287  0.00  0.00    -0.251 OA
ATOM     18  C   UNL     1       5.810  -7.051  37.542  0.00  0.00    +0.305 C 
BRANCH  18   1
ATOM      1  O   UNL     1       6.563  -6.656  36.483  0.00  0.00    -0.481 OA
ATOM     31  H   UNL     1       6.321  -7.138  35.662  0.00  0.00    +0.295 HD
ENDBRANCH  18   1
ENDBRANCH  14  18
ENDBRANCH   9  14
BRANCH   7  25
ATOM     25  C   UNL     1       2.608 -13.761  33.215  0.00  0.00    +0.132 C 
BRANCH  25  27
ATOM     27  C   UNL     1       3.626 -13.795  32.125  0.00  0.00    -0.016 C 
ATOM     29  C   UNL     1       4.274 -14.902  31.745  0.00  0.00    +0.005 C 
ENDBRANCH  25  27
ENDBRANCH   7  25
TORSDOF 8
ENDMDL
MODEL 8
REMARK VINA RESULT:      -5.4     16.082     19.715
REMARK  Name = 51136670
REMARK  9 active torsions:
REMARK  status: ('A' for Active; 'I' for Inactive)
REMARK    1  A    between atoms: O_1  and  C_18
REMARK    2  A    between atoms: O_4  and  C_26
REMARK    3  A    between atoms: O_4  and  C_28
REMARK    4  A    between atoms: N_7  and  C_25
REMARK    5  A    between atoms: C_8  and  C_12
REMARK    6  A    between atoms: C_9  and  C_14
REMARK    7  A    between atoms: C_12  and  C_15
REMARK    8  A    between atoms: C_14  and  C_18
REMARK    9  A    between atoms: C_25  and  C_27
REMARK                            x       y       z     vdW  Elec       q    Type
REMARK                         _______ _______ _______ _____ _____    ______ ____
ROOT
ATOM      2  O   UNL     1      10.024   9.482  -0.034  0.00  0.00    -0.253 OA
ATOM      5  N   UNL     1      10.432   7.266   0.511  0.00  0.00    -0.285 N 
ATOM      7  N   UNL     1       8.788   8.530   1.646  0.00  0.00    -0.296 N 
ATOM      8  C   UNL     1      11.465   5.596   2.024  0.00  0.00    +0.016 C 
ATOM      9  C   UNL     1      12.632   5.452   1.011  0.00  0.00    +0.006 C 
ATOM     10  C   UNL     1      12.802   6.718   0.152  0.00  0.00    +0.023 C 
ATOM     11  C   UNL     1      10.192   6.039   1.284  0.00  0.00    +0.113 C 
ATOM     13  C   UNL     1      11.482   7.134  -0.498  0.00  0.00    +0.109 C 
ATOM     16  C   UNL     1       9.764   8.492   0.659  0.00  0.00    +0.302 C 
ATOM     30  H   UNL     1       8.647   7.742   2.264  0.00  0.00    +0.151 HD
ENDROOT
BRANCH   8  12
ATOM     12  C   UNL     1      11.765   6.546   3.190  0.00  0.00    +0.061 C 
BRANCH  12  15
ATOM      6  N   UNL     1      10.589   4.885   4.466  0.00  0.00    -0.287 NA
ATOM     15  C   UNL     1      11.001   6.110   4.417  0.00  0.00    +0.044 C 
ATOM     17  C   UNL     1      10.756   7.099   5.496  0.00  0.00    -0.001 A 
ATOM     19  C   UNL     1       9.741   6.795   6.413  0.00  0.00    -0.033 A 
ATOM     20  C   UNL     1       8.973   5.518   6.240  0.00  0.00    +0.059 C 
ATOM     21  C   UNL     1       9.900   4.445   5.684  0.00  0.00    +0.146 C 
ATOM     22  C   UNL     1      11.475   8.290   5.607  0.00  0.00    +0.013 A 
ATOM     23  C   UNL     1       9.434   7.704   7.429  0.00  0.00    +0.050 A 
ATOM     24  C   UNL     1      11.171   9.184   6.633  0.00  0.00    +0.046 A 
ATOM     26  C   UNL     1      10.152   8.895   7.541  0.00  0.00    +0.120 A 
BRANCH  26   4
ATOM      4  O   UNL     1       9.856   9.776   8.535  0.00  0.00    -0.495 OA
ATOM     28  C   UNL     1      10.864  10.726   8.880  0.00  0.00    +0.277 C 
ENDBRANCH  26   4
ENDBRANCH  12  15
ENDBRANCH   8  12
BRANCH   9  14
ATOM     14  C   UNL     1      13.955   5.067   1.670  0.00  0.00    +0.124 C 
BRANCH  14  18
ATOM      3  O   UNL     1      13.267   2.735   1.504  0.00  0.00    -0.251 OA
ATOM     18  C   UNL     1      14.116   3.575   1.763  0.00  0.00    +0.305 C 
BRANCH  18   1
ATOM      1  O   UNL     1      15.370   3.274   2.186  0.00  0.00    -0.481 OA
ATOM     31  H   UNL     1      15.699   2.437   1.793  0.00  0.00    +0.295 HD
ENDBRANCH  18   1
ENDBRANCH  14  18
ENDBRANCH   9  14
BRANCH   7  25
ATOM     25  C   UNL     1       8.019   9.723   1.924  0.00  0.00    +0.132 C 
BRANCH  25  27
ATOM     27  C   UNL     1       7.247   9.522   3.186  0.00  0.00    -0.016 C 
ATOM     29  C   UNL     1       7.665   8.758   4.202  0.00  0.00    +0.005 C 
ENDBRANCH  25  27
ENDBRANCH   7  25
TORSDOF 8
ENDMDL
MODEL 9
REMARK VINA RESULT:      -5.4     16.901     20.267
REMARK  Name = 51136670
REMARK  9 active torsions:
REMARK  status: ('A' for Active; 'I' for Inactive)
REMARK    1  A    between atoms: O_1  and  C_18
REMARK    2  A    between atoms: O_4  and  C_26
REMARK    3  A    between atoms: O_4  and  C_28
REMARK    4  A    between atoms: N_7  and  C_25
REMARK    5  A    between atoms: C_8  and  C_12
REMARK    6  A    between atoms: C_9  and  C_14
REMARK    7  A    between atoms: C_12  and  C_15
REMARK    8  A    between atoms: C_14  and  C_18
REMARK    9  A    between atoms: C_25  and  C_27
REMARK                            x       y       z     vdW  Elec       q    Type
REMARK                         _______ _______ _______ _____ _____    ______ ____
ROOT
ATOM      2  O   UNL     1       9.491   8.597   7.708  0.00  0.00    -0.253 OA
ATOM      5  N   UNL     1       8.401   8.135   5.714  0.00  0.00    -0.285 N 
ATOM      7  N   UNL     1       9.611   6.465   6.871  0.00  0.00    -0.296 N 
ATOM      8  C   UNL     1       8.499   7.763   3.266  0.00  0.00    +0.016 C 
ATOM      9  C   UNL     1       8.031   9.229   3.060  0.00  0.00    +0.006 C 
ATOM     10  C   UNL     1       8.396  10.119   4.262  0.00  0.00    +0.023 C 
ATOM     11  C   UNL     1       7.987   7.245   4.621  0.00  0.00    +0.113 C 
ATOM     13  C   UNL     1       7.914   9.508   5.577  0.00  0.00    +0.109 C 
ATOM     16  C   UNL     1       9.186   7.787   6.826  0.00  0.00    +0.302 C 
ATOM     30  H   UNL     1       9.429   5.838   6.100  0.00  0.00    +0.151 HD
ENDROOT
BRANCH   8  12
ATOM     12  C   UNL     1      10.016   7.571   3.157  0.00  0.00    +0.061 C 
BRANCH  12  15
ATOM      6  N   UNL     1      10.514   5.349   3.921  0.00  0.00    -0.287 NA
ATOM     15  C   UNL     1      10.331   6.117   2.898  0.00  0.00    +0.044 C 
ATOM     17  C   UNL     1      10.422   5.644   1.493  0.00  0.00    -0.001 A 
ATOM     19  C   UNL     1      11.082   4.427   1.278  0.00  0.00    -0.033 A 
ATOM     20  C   UNL     1      11.655   3.701   2.459  0.00  0.00    +0.059 C 
ATOM     21  C   UNL     1      10.760   3.924   3.671  0.00  0.00    +0.146 C 
ATOM     22  C   UNL     1       9.898   6.364   0.419  0.00  0.00    +0.013 A 
ATOM     23  C   UNL     1      11.236   3.947  -0.025  0.00  0.00    +0.050 A 
ATOM     24  C   UNL     1      10.044   5.869  -0.877  0.00  0.00    +0.046 A 
ATOM     26  C   UNL     1      10.713   4.665  -1.100  0.00  0.00    +0.120 A 
BRANCH  26   4
ATOM      4  O   UNL     1      10.858   4.193  -2.368  0.00  0.00    -0.495 OA
ATOM     28  C   UNL     1      11.315   2.848  -2.511  0.00  0.00    +0.277 C 
ENDBRANCH  26   4
ENDBRANCH  12  15
ENDBRANCH   8  12
BRANCH   9  14
ATOM     14  C   UNL     1       8.542   9.844   1.758  0.00  0.00    +0.124 C 
BRANCH  14  18
ATOM      3  O   UNL     1       6.352   9.872   0.690  0.00  0.00    -0.251 OA
ATOM     18  C   UNL     1       7.556   9.670   0.637  0.00  0.00    +0.305 C 
BRANCH  18   1
ATOM      1  O   UNL     1       8.202   9.245  -0.479  0.00  0.00    -0.481 OA
ATOM     31  H   UNL     1       9.178   9.290  -0.377  0.00  0.00    +0.295 HD
ENDBRANCH  18   1
ENDBRANCH  14  18
ENDBRANCH   9  14
BRANCH   7  25
ATOM     25  C   UNL     1      10.432   5.957   7.947  0.00  0.00    +0.132 C 
BRANCH  25  27
ATOM     27  C   UNL     1       9.775   4.754   8.536  0.00  0.00    -0.016 C 
ATOM     29  C   UNL     1       9.306   4.699   9.789  0.00  0.00    +0.005 C 
ENDBRANCH  25  27
ENDBRANCH   7  25
TORSDOF 8
ENDMDL
MODEL 10
REMARK VINA RESULT:      -5.3     15.289     18.701
REMARK  Name = 51136670
REMARK  9 active torsions:
REMARK  status: ('A' for Active; 'I' for Inactive)
REMARK    1  A    between atoms: O_1  and  C_18
REMARK    2  A    between atoms: O_4  and  C_26
REMARK    3  A    between atoms: O_4  and  C_28
REMARK    4  A    between atoms: N_7  and  C_25
REMARK    5  A    between atoms: C_8  and  C_12
REMARK    6  A    between atoms: C_9  and  C_14
REMARK    7  A    between atoms: C_12  and  C_15
REMARK    8  A    between atoms: C_14  and  C_18
REMARK    9  A    between atoms: C_25  and  C_27
REMARK                            x       y       z     vdW  Elec       q    Type
REMARK                         _______ _______ _______ _____ _____    ______ ____
ROOT
ATOM      2  O   UNL     1      15.228  10.116   6.288  0.00  0.00    -0.253 OA
ATOM      5  N   UNL     1      13.645   8.436   6.509  0.00  0.00    -0.285 N 
ATOM      7  N   UNL     1      15.729   8.035   5.465  0.00  0.00    -0.296 N 
ATOM      8  C   UNL     1      11.866   7.035   5.501  0.00  0.00    +0.016 C 
ATOM      9  C   UNL     1      10.811   7.970   6.151  0.00  0.00    +0.006 C 
ATOM     10  C   UNL     1      11.377   9.378   6.408  0.00  0.00    +0.023 C 
ATOM     11  C   UNL     1      13.159   7.060   6.334  0.00  0.00    +0.113 C 
ATOM     13  C   UNL     1      12.693   9.320   7.182  0.00  0.00    +0.109 C 
ATOM     16  C   UNL     1      14.891   8.941   6.103  0.00  0.00    +0.302 C 
ATOM     30  H   UNL     1      15.406   7.103   5.242  0.00  0.00    +0.151 HD
ENDROOT
BRANCH   8  12
ATOM     12  C   UNL     1      12.168   7.359   4.034  0.00  0.00    +0.061 C 
BRANCH  12  15
ATOM      6  N   UNL     1      10.747   5.607   3.209  0.00  0.00    -0.287 NA
ATOM     15  C   UNL     1      11.925   6.140   3.178  0.00  0.00    +0.044 C 
ATOM     17  C   UNL     1      13.040   5.611   2.352  0.00  0.00    -0.001 A 
ATOM     19  C   UNL     1      12.914   4.295   1.888  0.00  0.00    -0.033 A 
ATOM     20  C   UNL     1      11.687   3.516   2.260  0.00  0.00    +0.059 C 
ATOM     21  C   UNL     1      10.494   4.459   2.332  0.00  0.00    +0.146 C 
ATOM     22  C   UNL     1      14.178   6.361   2.051  0.00  0.00    +0.013 A 
ATOM     23  C   UNL     1      13.947   3.726   1.140  0.00  0.00    +0.050 A 
ATOM     24  C   UNL     1      15.198   5.788   1.291  0.00  0.00    +0.046 A 
ATOM     26  C   UNL     1      15.085   4.473   0.838  0.00  0.00    +0.120 A 
BRANCH  26   4
ATOM      4  O   UNL     1      16.088   3.919   0.104  0.00  0.00    -0.495 OA
ATOM     28  C   UNL     1      16.579   4.679  -1.000  0.00  0.00    +0.277 C 
ENDBRANCH  26   4
ENDBRANCH  12  15
ENDBRANCH   8  12
BRANCH   9  14
ATOM     14  C   UNL     1       9.509   8.048   5.356  0.00  0.00    +0.124 C 
BRANCH  14  18
ATOM      3  O   UNL     1       8.486   5.876   5.773  0.00  0.00    -0.251 OA
ATOM     18  C   UNL     1       8.476   7.092   5.886  0.00  0.00    +0.305 C 
BRANCH  18   1
ATOM      1  O   UNL     1       7.500   7.783   6.529  0.00  0.00    -0.481 OA
ATOM     31  H   UNL     1       6.612   7.396   6.370  0.00  0.00    +0.295 HD
ENDBRANCH  18   1
ENDBRANCH  14  18
ENDBRANCH   9  14
BRANCH   7  25
ATOM     25  C   UNL     1      17.039   8.406   4.981  0.00  0.00    +0.132 C 
BRANCH  25  27
ATOM     27  C   UNL     1      17.094   8.189   3.506  0.00  0.00    -0.016 C 
ATOM     29  C   UNL     1      18.200   8.347   2.770  0.00  0.00    +0.005 C 
ENDBRANCH  25  27
ENDBRANCH   7  25
TORSDOF 8
ENDMDL
