MODEL 1
REMARK VINA RESULT:      -6.8      0.000      0.000
REMARK  Name = 28963147
REMARK  11 active torsions:
REMARK  status: ('A' for Active; 'I' for Inactive)
REMARK    1  A    between atoms: O_1  and  C_11
REMARK    2  A    between atoms: N_5  and  C_15
REMARK    3  A    between atoms: N_6  and  C_24
REMARK    4  A    between atoms: N_7  and  C_25
REMARK    5  A    between atoms: C_8  and  C_18
REMARK    6  A    between atoms: C_10  and  C_20
REMARK    7  A    between atoms: C_14  and  C_19
REMARK    8  A    between atoms: C_19  and  C_21
REMARK    9  A    between atoms: C_19  and  C_22
REMARK   10  A    between atoms: C_24  and  C_26
REMARK   11  A    between atoms: C_25  and  C_27
REMARK                            x       y       z     vdW  Elec       q    Type
REMARK                         _______ _______ _______ _____ _____    ______ ____
ROOT
ATOM      8  C   UNL     1      -3.297 -10.835  11.122  0.00  0.00    -0.027 C 
ATOM      9  C   UNL     1      -4.579 -10.367  11.888  0.00  0.00    +0.028 C 
ATOM     10  C   UNL     1      -5.281  -9.183  11.130  0.00  0.00    +0.012 C 
ATOM     11  C   UNL     1      -4.277 -10.112  13.392  0.00  0.00    +0.122 C 
ATOM     12  C   UNL     1      -2.695 -12.071  11.831  0.00  0.00    +0.007 C 
ATOM     13  C   UNL     1      -3.692 -11.260   9.689  0.00  0.00    +0.009 C 
ATOM     14  C   UNL     1      -3.580 -11.315  14.070  0.00  0.00    +0.029 C 
ATOM     15  C   UNL     1      -5.605  -9.597   9.667  0.00  0.00    +0.078 C 
ATOM     16  C   UNL     1      -2.361 -11.813  13.295  0.00  0.00    +0.007 C 
ATOM     17  C   UNL     1      -4.400 -10.160   8.913  0.00  0.00    +0.023 C 
ATOM     18  C   UNL     1      -2.213  -9.730  11.046  0.00  0.00    +0.011 C 
ATOM     20  C   UNL     1      -6.567  -8.691  11.814  0.00  0.00    +0.010 C 
ENDROOT
BRANCH  15   5
ATOM      3  O   UNL     1      -7.689  -9.715   7.674  0.00  0.00    -0.253 OA
ATOM      5  N   UNL     1      -6.148  -8.492   8.905  0.00  0.00    -0.296 N 
ATOM      7  N   UNL     1      -7.487  -7.423   7.377  0.00  0.00    -0.300 N 
ATOM     23  C   UNL     1      -7.156  -8.643   7.960  0.00  0.00    +0.300 C 
ATOM     31  H   UNL     1      -5.719  -7.577   9.009  0.00  0.00    +0.151 HD
ATOM     34  H   UNL     1      -7.002  -6.586   7.687  0.00  0.00    +0.150 HD
BRANCH   7  25
ATOM     25  C   UNL     1      -8.506  -7.291   6.363  0.00  0.00    +0.102 C 
ATOM     27  C   UNL     1      -9.822  -6.832   6.954  0.00  0.00    +0.024 C 
ENDBRANCH   7  25
ENDBRANCH  15   5
BRANCH  11   1
ATOM      1  O   UNL     1      -5.501  -9.899  14.096  0.00  0.00    -0.391 OA
ATOM     32  H   UNL     1      -5.812 -10.760  14.427  0.00  0.00    +0.210 HD
ENDBRANCH  11   1
BRANCH  14  19
ATOM     19  C   UNL     1      -3.173 -10.996  15.514  0.00  0.00    +0.077 C 
ATOM     21  C   UNL     1      -1.665 -11.147  15.680  0.00  0.00    +0.017 C 
BRANCH  19  22
ATOM      2  O   UNL     1      -4.647 -12.827  16.100  0.00  0.00    -0.276 OA
ATOM      6  N   UNL     1      -3.722 -11.558  17.807  0.00  0.00    -0.308 N 
ATOM     22  C   UNL     1      -3.933 -11.901  16.480  0.00  0.00    +0.217 C 
ATOM     33  H   UNL     1      -3.137 -10.758  18.030  0.00  0.00    +0.149 HD
BRANCH   6  24
ATOM     24  C   UNL     1      -4.337 -12.268  18.905  0.00  0.00    +0.178 C 
BRANCH  24  26
ATOM      4  O   UNL     1      -6.702 -12.829  18.920  0.00  0.00    -0.466 OA
ATOM     26  C   UNL     1      -5.768 -11.860  19.107  0.00  0.00    +0.122 A 
ATOM     28  C   UNL     1      -6.367 -10.672  19.455  0.00  0.00    +0.046 A 
ATOM     29  C   UNL     1      -7.758 -10.927  19.484  0.00  0.00    +0.041 A 
ATOM     30  C   UNL     1      -7.911 -12.253  19.152  0.00  0.00    +0.195 A 
ENDBRANCH  24  26
ENDBRANCH   6  24
ENDBRANCH  19  22
ENDBRANCH  14  19
TORSDOF 7
ENDMDL
MODEL 2
REMARK VINA RESULT:      -6.8     19.066     22.267
REMARK  Name = 28963147
REMARK  11 active torsions:
REMARK  status: ('A' for Active; 'I' for Inactive)
REMARK    1  A    between atoms: O_1  and  C_11
REMARK    2  A    between atoms: N_5  and  C_15
REMARK    3  A    between atoms: N_6  and  C_24
REMARK    4  A    between atoms: N_7  and  C_25
REMARK    5  A    between atoms: C_8  and  C_18
REMARK    6  A    between atoms: C_10  and  C_20
REMARK    7  A    between atoms: C_14  and  C_19
REMARK    8  A    between atoms: C_19  and  C_21
REMARK    9  A    between atoms: C_19  and  C_22
REMARK   10  A    between atoms: C_24  and  C_26
REMARK   11  A    between atoms: C_25  and  C_27
REMARK                            x       y       z     vdW  Elec       q    Type
REMARK                         _______ _______ _______ _____ _____    ______ ____
ROOT
ATOM      8  C   UNL     1     -14.333   8.638  20.054  0.00  0.00    -0.027 C 
ATOM      9  C   UNL     1     -13.385   7.397  20.156  0.00  0.00    +0.028 C 
ATOM     10  C   UNL     1     -13.447   6.763  21.592  0.00  0.00    +0.012 C 
ATOM     11  C   UNL     1     -11.958   7.734  19.635  0.00  0.00    +0.122 C 
ATOM     12  C   UNL     1     -14.335   9.168  18.601  0.00  0.00    +0.007 C 
ATOM     13  C   UNL     1     -15.776   8.199  20.397  0.00  0.00    +0.009 C 
ATOM     14  C   UNL     1     -11.974   8.361  18.222  0.00  0.00    +0.029 C 
ATOM     15  C   UNL     1     -14.914   6.395  21.955  0.00  0.00    +0.078 C 
ATOM     16  C   UNL     1     -12.943   9.536  18.101  0.00  0.00    +0.007 C 
ATOM     17  C   UNL     1     -15.894   7.552  21.768  0.00  0.00    +0.023 C 
ATOM     18  C   UNL     1     -13.911   9.788  21.003  0.00  0.00    +0.011 C 
ATOM     20  C   UNL     1     -12.558   5.519  21.754  0.00  0.00    +0.010 C 
ENDROOT
BRANCH  15   5
ATOM      3  O   UNL     1     -15.929   3.836  22.818  0.00  0.00    -0.253 OA
ATOM      5  N   UNL     1     -15.024   5.915  23.316  0.00  0.00    -0.296 N 
ATOM      7  N   UNL     1     -15.523   4.456  25.017  0.00  0.00    -0.300 N 
ATOM     23  C   UNL     1     -15.529   4.660  23.640  0.00  0.00    +0.300 C 
ATOM     31  H   UNL     1     -14.795   6.552  24.073  0.00  0.00    +0.151 HD
ATOM     34  H   UNL     1     -15.161   5.190  25.618  0.00  0.00    +0.150 HD
BRANCH   7  25
ATOM     25  C   UNL     1     -15.994   3.235  25.630  0.00  0.00    +0.102 C 
ATOM     27  C   UNL     1     -16.191   3.404  27.121  0.00  0.00    +0.024 C 
ENDBRANCH   7  25
ENDBRANCH  15   5
BRANCH  11   1
ATOM      1  O   UNL     1     -11.189   6.534  19.541  0.00  0.00    -0.391 OA
ATOM     32  H   UNL     1     -11.675   5.828  20.001  0.00  0.00    +0.210 HD
ENDBRANCH  11   1
BRANCH  14  19
ATOM     19  C   UNL     1     -10.574   8.805  17.781  0.00  0.00    +0.077 C 
ATOM     21  C   UNL     1     -10.182  10.092  18.496  0.00  0.00    +0.017 C 
BRANCH  19  22
ATOM      2  O   UNL     1     -10.389  10.071  15.725  0.00  0.00    -0.276 OA
ATOM      6  N   UNL     1     -10.685   7.775  15.589  0.00  0.00    -0.308 N 
ATOM     22  C   UNL     1     -10.536   8.976  16.265  0.00  0.00    +0.217 C 
ATOM     33  H   UNL     1     -10.830   6.919  16.118  0.00  0.00    +0.149 HD
BRANCH   6  24
ATOM     24  C   UNL     1     -10.684   7.683  14.148  0.00  0.00    +0.178 C 
BRANCH  24  26
ATOM      4  O   UNL     1     -12.749   6.662  13.369  0.00  0.00    -0.466 OA
ATOM     26  C   UNL     1     -12.066   7.818  13.576  0.00  0.00    +0.122 A 
ATOM     28  C   UNL     1     -12.826   8.901  13.199  0.00  0.00    +0.046 A 
ATOM     29  C   UNL     1     -14.054   8.377  12.731  0.00  0.00    +0.041 A 
ATOM     30  C   UNL     1     -13.958   7.010  12.856  0.00  0.00    +0.195 A 
ENDBRANCH  24  26
ENDBRANCH   6  24
ENDBRANCH  19  22
ENDBRANCH  14  19
TORSDOF 7
ENDMDL
MODEL 3
REMARK VINA RESULT:      -6.8     20.201     21.547
REMARK  Name = 28963147
REMARK  11 active torsions:
REMARK  status: ('A' for Active; 'I' for Inactive)
REMARK    1  A    between atoms: O_1  and  C_11
REMARK    2  A    between atoms: N_5  and  C_15
REMARK    3  A    between atoms: N_6  and  C_24
REMARK    4  A    between atoms: N_7  and  C_25
REMARK    5  A    between atoms: C_8  and  C_18
REMARK    6  A    between atoms: C_10  and  C_20
REMARK    7  A    between atoms: C_14  and  C_19
REMARK    8  A    between atoms: C_19  and  C_21
REMARK    9  A    between atoms: C_19  and  C_22
REMARK   10  A    between atoms: C_24  and  C_26
REMARK   11  A    between atoms: C_25  and  C_27
REMARK                            x       y       z     vdW  Elec       q    Type
REMARK                         _______ _______ _______ _____ _____    ______ ____
ROOT
ATOM      8  C   UNL     1     -16.225   6.411  22.037  0.00  0.00    -0.027 C 
ATOM      9  C   UNL     1     -14.827   5.983  22.596  0.00  0.00    +0.028 C 
ATOM     10  C   UNL     1     -13.744   5.989  21.458  0.00  0.00    +0.012 C 
ATOM     11  C   UNL     1     -14.927   4.665  23.415  0.00  0.00    +0.122 C 
ATOM     12  C   UNL     1     -17.240   6.504  23.200  0.00  0.00    +0.007 C 
ATOM     13  C   UNL     1     -16.105   7.816  21.403  0.00  0.00    +0.009 C 
ATOM     14  C   UNL     1     -16.017   4.727  24.511  0.00  0.00    +0.029 C 
ATOM     15  C   UNL     1     -13.687   7.387  20.778  0.00  0.00    +0.078 C 
ATOM     16  C   UNL     1     -17.369   5.202  23.981  0.00  0.00    +0.007 C 
ATOM     17  C   UNL     1     -15.051   7.892  20.309  0.00  0.00    +0.023 C 
ATOM     18  C   UNL     1     -16.771   5.419  20.978  0.00  0.00    +0.011 C 
ATOM     20  C   UNL     1     -12.337   5.606  21.945  0.00  0.00    +0.010 C 
ENDROOT
BRANCH  15   5
ATOM      3  O   UNL     1     -11.766   9.433  20.105  0.00  0.00    -0.253 OA
ATOM      5  N   UNL     1     -12.781   7.396  19.648  0.00  0.00    -0.296 N 
ATOM      7  N   UNL     1     -11.138   8.185  18.253  0.00  0.00    -0.300 N 
ATOM     23  C   UNL     1     -11.885   8.430  19.401  0.00  0.00    +0.300 C 
ATOM     31  H   UNL     1     -12.858   6.651  18.962  0.00  0.00    +0.151 HD
ATOM     34  H   UNL     1     -11.296   7.322  17.742  0.00  0.00    +0.150 HD
BRANCH   7  25
ATOM     25  C   UNL     1     -10.131   9.098  17.764  0.00  0.00    +0.102 C 
ATOM     27  C   UNL     1     -10.506   9.666  16.412  0.00  0.00    +0.024 C 
ENDBRANCH   7  25
ENDBRANCH  15   5
BRANCH  11   1
ATOM      1  O   UNL     1     -13.689   4.423  24.085  0.00  0.00    -0.391 OA
ATOM     32  H   UNL     1     -13.105   3.942  23.473  0.00  0.00    +0.210 HD
ENDBRANCH  11   1
BRANCH  14  19
ATOM     19  C   UNL     1     -16.189   3.378  25.219  0.00  0.00    +0.077 C 
ATOM     21  C   UNL     1     -17.324   2.589  24.576  0.00  0.00    +0.017 C 
BRANCH  19  22
ATOM      2  O   UNL     1     -17.476   4.101  27.139  0.00  0.00    -0.276 OA
ATOM      6  N   UNL     1     -15.379   3.177  27.494  0.00  0.00    -0.308 N 
ATOM     22  C   UNL     1     -16.440   3.600  26.708  0.00  0.00    +0.217 C 
ATOM     33  H   UNL     1     -14.547   2.800  27.050  0.00  0.00    +0.149 HD
BRANCH   6  24
ATOM     24  C   UNL     1     -15.381   3.287  28.935  0.00  0.00    +0.178 C 
BRANCH  24  26
ATOM      4  O   UNL     1     -13.792   1.711  29.885  0.00  0.00    -0.466 OA
ATOM     26  C   UNL     1     -15.095   1.970  29.598  0.00  0.00    +0.122 A 
ATOM     28  C   UNL     1     -15.895   0.925  29.998  0.00  0.00    +0.046 A 
ATOM     29  C   UNL     1     -15.028  -0.039  30.566  0.00  0.00    +0.041 A 
ATOM     30  C   UNL     1     -13.760   0.487  30.474  0.00  0.00    +0.195 A 
ENDBRANCH  24  26
ENDBRANCH   6  24
ENDBRANCH  19  22
ENDBRANCH  14  19
TORSDOF 7
ENDMDL
MODEL 4
REMARK VINA RESULT:      -6.7      1.902      8.897
REMARK  Name = 28963147
REMARK  11 active torsions:
REMARK  status: ('A' for Active; 'I' for Inactive)
REMARK    1  A    between atoms: O_1  and  C_11
REMARK    2  A    between atoms: N_5  and  C_15
REMARK    3  A    between atoms: N_6  and  C_24
REMARK    4  A    between atoms: N_7  and  C_25
REMARK    5  A    between atoms: C_8  and  C_18
REMARK    6  A    between atoms: C_10  and  C_20
REMARK    7  A    between atoms: C_14  and  C_19
REMARK    8  A    between atoms: C_19  and  C_21
REMARK    9  A    between atoms: C_19  and  C_22
REMARK   10  A    between atoms: C_24  and  C_26
REMARK   11  A    between atoms: C_25  and  C_27
REMARK                            x       y       z     vdW  Elec       q    Type
REMARK                         _______ _______ _______ _____ _____    ______ ____
ROOT
ATOM      8  C   UNL     1      -3.552 -10.503  11.074  0.00  0.00    -0.027 C 
ATOM      9  C   UNL     1      -4.938 -10.276  11.765  0.00  0.00    +0.028 C 
ATOM     10  C   UNL     1      -5.044 -11.111  13.092  0.00  0.00    +0.012 C 
ATOM     11  C   UNL     1      -6.108 -10.468  10.758  0.00  0.00    +0.122 C 
ATOM     12  C   UNL     1      -3.436  -9.584   9.835  0.00  0.00    +0.007 C 
ATOM     13  C   UNL     1      -2.427 -10.112  12.059  0.00  0.00    +0.009 C 
ATOM     14  C   UNL     1      -5.933  -9.624   9.475  0.00  0.00    +0.029 C 
ATOM     15  C   UNL     1      -3.865 -10.762  14.043  0.00  0.00    +0.078 C 
ATOM     16  C   UNL     1      -4.559  -9.798   8.829  0.00  0.00    +0.007 C 
ATOM     17  C   UNL     1      -2.494 -10.870  13.376  0.00  0.00    +0.023 C 
ATOM     18  C   UNL     1      -3.347 -11.972  10.624  0.00  0.00    +0.011 C 
ATOM     20  C   UNL     1      -6.373 -10.911  13.839  0.00  0.00    +0.010 C 
ENDROOT
BRANCH  15   5
ATOM      3  O   UNL     1      -4.181  -9.900  16.778  0.00  0.00    -0.253 OA
ATOM      5  N   UNL     1      -3.867 -11.597  15.226  0.00  0.00    -0.296 N 
ATOM      7  N   UNL     1      -3.987 -12.109  17.461  0.00  0.00    -0.300 N 
ATOM     23  C   UNL     1      -4.025 -11.091  16.511  0.00  0.00    +0.300 C 
ATOM     31  H   UNL     1      -3.665 -12.586  15.119  0.00  0.00    +0.151 HD
ATOM     34  H   UNL     1      -3.868 -13.066  17.146  0.00  0.00    +0.150 HD
BRANCH   7  25
ATOM     25  C   UNL     1      -4.129 -11.864  18.877  0.00  0.00    +0.102 C 
ATOM     27  C   UNL     1      -5.584 -11.744  19.277  0.00  0.00    +0.024 C 
ENDBRANCH   7  25
ENDBRANCH  15   5
BRANCH  11   1
ATOM      1  O   UNL     1      -7.332 -10.045  11.362  0.00  0.00    -0.391 OA
ATOM     32  H   UNL     1      -7.673 -10.781  11.899  0.00  0.00    +0.210 HD
ENDBRANCH  11   1
BRANCH  14  19
ATOM     19  C   UNL     1      -7.026  -9.925   8.442  0.00  0.00    +0.077 C 
ATOM     21  C   UNL     1      -6.577 -11.049   7.515  0.00  0.00    +0.017 C 
BRANCH  19  22
ATOM      2  O   UNL     1      -7.484  -8.649   6.436  0.00  0.00    -0.276 OA
ATOM      6  N   UNL     1      -7.519  -7.552   8.479  0.00  0.00    -0.308 N 
ATOM     22  C   UNL     1      -7.366  -8.660   7.660  0.00  0.00    +0.217 C 
ATOM     33  H   UNL     1      -7.375  -7.648   9.480  0.00  0.00    +0.149 HD
BRANCH   6  24
ATOM     24  C   UNL     1      -7.840  -6.240   7.968  0.00  0.00    +0.178 C 
BRANCH  24  26
ATOM      4  O   UNL     1     -10.075  -6.676   8.822  0.00  0.00    -0.466 OA
ATOM     26  C   UNL     1      -9.149  -5.734   8.503  0.00  0.00    +0.122 A 
ATOM     28  C   UNL     1      -9.639  -4.472   8.751  0.00  0.00    +0.046 A 
ATOM     29  C   UNL     1     -10.949  -4.651   9.256  0.00  0.00    +0.041 A 
ATOM     30  C   UNL     1     -11.166  -6.010   9.280  0.00  0.00    +0.195 A 
ENDBRANCH  24  26
ENDBRANCH   6  24
ENDBRANCH  19  22
ENDBRANCH  14  19
TORSDOF 7
ENDMDL
MODEL 5
REMARK VINA RESULT:      -6.6     27.655     30.175
REMARK  Name = 28963147
REMARK  11 active torsions:
REMARK  status: ('A' for Active; 'I' for Inactive)
REMARK    1  A    between atoms: O_1  and  C_11
REMARK    2  A    between atoms: N_5  and  C_15
REMARK    3  A    between atoms: N_6  and  C_24
REMARK    4  A    between atoms: N_7  and  C_25
REMARK    5  A    between atoms: C_8  and  C_18
REMARK    6  A    between atoms: C_10  and  C_20
REMARK    7  A    between atoms: C_14  and  C_19
REMARK    8  A    between atoms: C_19  and  C_21
REMARK    9  A    between atoms: C_19  and  C_22
REMARK   10  A    between atoms: C_24  and  C_26
REMARK   11  A    between atoms: C_25  and  C_27
REMARK                            x       y       z     vdW  Elec       q    Type
REMARK                         _______ _______ _______ _____ _____    ______ ____
ROOT
ATOM      8  C   UNL     1      12.248   8.320  20.926  0.00  0.00    -0.027 C 
ATOM      9  C   UNL     1      13.431   8.911  21.764  0.00  0.00    +0.028 C 
ATOM     10  C   UNL     1      13.101  10.371  22.243  0.00  0.00    +0.012 C 
ATOM     11  C   UNL     1      14.787   8.741  21.023  0.00  0.00    +0.122 C 
ATOM     12  C   UNL     1      12.555   6.847  20.568  0.00  0.00    +0.007 C 
ATOM     13  C   UNL     1      10.963   8.337  21.786  0.00  0.00    +0.009 C 
ATOM     14  C   UNL     1      15.041   7.284  20.574  0.00  0.00    +0.029 C 
ATOM     15  C   UNL     1      11.767  10.386  23.042  0.00  0.00    +0.078 C 
ATOM     16  C   UNL     1      13.865   6.682  19.807  0.00  0.00    +0.007 C 
ATOM     17  C   UNL     1      10.607   9.723  22.302  0.00  0.00    +0.023 C 
ATOM     18  C   UNL     1      11.995   9.108  19.616  0.00  0.00    +0.011 C 
ATOM     20  C   UNL     1      14.211  11.003  23.098  0.00  0.00    +0.010 C 
ENDROOT
BRANCH  15   5
ATOM      3  O   UNL     1      11.159  11.376  25.683  0.00  0.00    -0.253 OA
ATOM      5  N   UNL     1      11.373  11.733  23.400  0.00  0.00    -0.296 N 
ATOM      7  N   UNL     1      10.743  13.467  24.766  0.00  0.00    -0.300 N 
ATOM     23  C   UNL     1      11.097  12.122  24.706  0.00  0.00    +0.300 C 
ATOM     31  H   UNL     1      11.215  12.404  22.654  0.00  0.00    +0.151 HD
ATOM     34  H   UNL     1      10.732  14.008  23.908  0.00  0.00    +0.150 HD
BRANCH   7  25
ATOM     25  C   UNL     1      10.406  14.133  26.003  0.00  0.00    +0.102 C 
ATOM     27  C   UNL     1      11.294  15.335  26.245  0.00  0.00    +0.024 C 
ENDBRANCH   7  25
ENDBRANCH  15   5
BRANCH  11   1
ATOM      1  O   UNL     1      15.858   9.091  21.900  0.00  0.00    -0.391 OA
ATOM     32  H   UNL     1      16.076  10.028  21.752  0.00  0.00    +0.210 HD
ENDBRANCH  11   1
BRANCH  14  19
ATOM     19  C   UNL     1      16.318   7.161  19.734  0.00  0.00    +0.077 C 
ATOM     21  C   UNL     1      16.032   6.382  18.455  0.00  0.00    +0.017 C 
BRANCH  19  22
ATOM      2  O   UNL     1      17.333   6.330  21.769  0.00  0.00    -0.276 OA
ATOM      6  N   UNL     1      18.506   6.119  19.780  0.00  0.00    -0.308 N 
ATOM     22  C   UNL     1      17.420   6.498  20.555  0.00  0.00    +0.217 C 
ATOM     33  H   UNL     1      18.505   6.324  18.785  0.00  0.00    +0.149 HD
BRANCH   6  24
ATOM     24  C   UNL     1      19.674   5.473  20.333  0.00  0.00    +0.178 C 
BRANCH  24  26
ATOM      4  O   UNL     1      21.520   7.043  20.138  0.00  0.00    -0.466 OA
ATOM     26  C   UNL     1      20.614   6.459  20.965  0.00  0.00    +0.122 A 
ATOM     28  C   UNL     1      20.765   6.921  22.252  0.00  0.00    +0.046 A 
ATOM     29  C   UNL     1      21.833   7.849  22.213  0.00  0.00    +0.041 A 
ATOM     30  C   UNL     1      22.258   7.888  20.905  0.00  0.00    +0.195 A 
ENDBRANCH  24  26
ENDBRANCH   6  24
ENDBRANCH  19  22
ENDBRANCH  14  19
TORSDOF 7
ENDMDL
MODEL 6
REMARK VINA RESULT:      -6.5      1.452      1.806
REMARK  Name = 28963147
REMARK  11 active torsions:
REMARK  status: ('A' for Active; 'I' for Inactive)
REMARK    1  A    between atoms: O_1  and  C_11
REMARK    2  A    between atoms: N_5  and  C_15
REMARK    3  A    between atoms: N_6  and  C_24
REMARK    4  A    between atoms: N_7  and  C_25
REMARK    5  A    between atoms: C_8  and  C_18
REMARK    6  A    between atoms: C_10  and  C_20
REMARK    7  A    between atoms: C_14  and  C_19
REMARK    8  A    between atoms: C_19  and  C_21
REMARK    9  A    between atoms: C_19  and  C_22
REMARK   10  A    between atoms: C_24  and  C_26
REMARK   11  A    between atoms: C_25  and  C_27
REMARK                            x       y       z     vdW  Elec       q    Type
REMARK                         _______ _______ _______ _____ _____    ______ ____
ROOT
ATOM      8  C   UNL     1      -3.385 -11.002  11.371  0.00  0.00    -0.027 C 
ATOM      9  C   UNL     1      -4.712 -10.424  11.967  0.00  0.00    +0.028 C 
ATOM     10  C   UNL     1      -5.320  -9.329  11.019  0.00  0.00    +0.012 C 
ATOM     11  C   UNL     1      -4.524  -9.995  13.450  0.00  0.00    +0.122 C 
ATOM     12  C   UNL     1      -2.873 -12.153  12.269  0.00  0.00    +0.007 C 
ATOM     13  C   UNL     1      -3.674 -11.590   9.971  0.00  0.00    +0.009 C 
ATOM     14  C   UNL     1      -3.914 -11.117  14.321  0.00  0.00    +0.029 C 
ATOM     15  C   UNL     1      -5.537  -9.912   9.593  0.00  0.00    +0.078 C 
ATOM     16  C   UNL     1      -2.651 -11.725  13.714  0.00  0.00    +0.007 C 
ATOM     17  C   UNL     1      -4.291 -10.581   9.014  0.00  0.00    +0.023 C 
ATOM     18  C   UNL     1      -2.271  -9.931  11.253  0.00  0.00    +0.011 C 
ATOM     20  C   UNL     1      -6.644  -8.739  11.531  0.00  0.00    +0.010 C 
ENDROOT
BRANCH  15   5
ATOM      3  O   UNL     1      -7.511 -10.218   7.512  0.00  0.00    -0.253 OA
ATOM      5  N   UNL     1      -5.988  -8.898   8.663  0.00  0.00    -0.296 N 
ATOM      7  N   UNL     1      -7.195  -7.993   6.932  0.00  0.00    -0.300 N 
ATOM     23  C   UNL     1      -6.949  -9.137   7.687  0.00  0.00    +0.300 C 
ATOM     31  H   UNL     1      -5.527  -7.994   8.674  0.00  0.00    +0.151 HD
ATOM     34  H   UNL     1      -6.691  -7.141   7.159  0.00  0.00    +0.150 HD
BRANCH   7  25
ATOM     25  C   UNL     1      -8.150  -7.960   5.850  0.00  0.00    +0.102 C 
ATOM     27  C   UNL     1      -7.500  -8.301   4.526  0.00  0.00    +0.024 C 
ENDBRANCH   7  25
ENDBRANCH  15   5
BRANCH  11   1
ATOM      1  O   UNL     1      -5.795  -9.679  14.021  0.00  0.00    -0.391 OA
ATOM     32  H   UNL     1      -6.087  -8.828  13.652  0.00  0.00    +0.210 HD
ENDBRANCH  11   1
BRANCH  14  19
ATOM     19  C   UNL     1      -3.616 -10.633  15.746  0.00  0.00    +0.077 C 
ATOM     21  C   UNL     1      -2.163 -10.921  16.104  0.00  0.00    +0.017 C 
BRANCH  19  22
ATOM      2  O   UNL     1      -4.512 -12.491  17.016  0.00  0.00    -0.276 OA
ATOM      6  N   UNL     1      -5.500 -10.406  17.254  0.00  0.00    -0.308 N 
ATOM     22  C   UNL     1      -4.574 -11.296  16.732  0.00  0.00    +0.217 C 
ATOM     33  H   UNL     1      -5.497  -9.440  16.940  0.00  0.00    +0.149 HD
BRANCH   6  24
ATOM     24  C   UNL     1      -6.513 -10.800  18.206  0.00  0.00    +0.178 C 
BRANCH  24  26
ATOM      4  O   UNL     1      -7.800  -9.070  17.083  0.00  0.00    -0.466 OA
ATOM     26  C   UNL     1      -7.827 -10.124  17.941  0.00  0.00    +0.122 A 
ATOM     28  C   UNL     1      -9.107 -10.346  18.393  0.00  0.00    +0.046 A 
ATOM     29  C   UNL     1      -9.919  -9.366  17.774  0.00  0.00    +0.041 A 
ATOM     30  C   UNL     1      -9.077  -8.615  16.987  0.00  0.00    +0.195 A 
ENDBRANCH  24  26
ENDBRANCH   6  24
ENDBRANCH  19  22
ENDBRANCH  14  19
TORSDOF 7
ENDMDL
MODEL 7
REMARK VINA RESULT:      -6.5     28.213     30.945
REMARK  Name = 28963147
REMARK  11 active torsions:
REMARK  status: ('A' for Active; 'I' for Inactive)
REMARK    1  A    between atoms: O_1  and  C_11
REMARK    2  A    between atoms: N_5  and  C_15
REMARK    3  A    between atoms: N_6  and  C_24
REMARK    4  A    between atoms: N_7  and  C_25
REMARK    5  A    between atoms: C_8  and  C_18
REMARK    6  A    between atoms: C_10  and  C_20
REMARK    7  A    between atoms: C_14  and  C_19
REMARK    8  A    between atoms: C_19  and  C_21
REMARK    9  A    between atoms: C_19  and  C_22
REMARK   10  A    between atoms: C_24  and  C_26
REMARK   11  A    between atoms: C_25  and  C_27
REMARK                            x       y       z     vdW  Elec       q    Type
REMARK                         _______ _______ _______ _____ _____    ______ ____
ROOT
ATOM      8  C   UNL     1      11.460  10.923  22.963  0.00  0.00    -0.027 C 
ATOM      9  C   UNL     1      12.998  10.639  22.906  0.00  0.00    +0.028 C 
ATOM     10  C   UNL     1      13.809  11.818  23.554  0.00  0.00    +0.012 C 
ATOM     11  C   UNL     1      13.442  10.230  21.473  0.00  0.00    +0.122 C 
ATOM     12  C   UNL     1      10.687   9.698  22.422  0.00  0.00    +0.007 C 
ATOM     13  C   UNL     1      11.040  11.132  24.437  0.00  0.00    +0.009 C 
ATOM     14  C   UNL     1      12.597   9.072  20.895  0.00  0.00    +0.029 C 
ATOM     15  C   UNL     1      13.325  12.067  25.011  0.00  0.00    +0.078 C 
ATOM     16  C   UNL     1      11.093   9.319  21.003  0.00  0.00    +0.007 C 
ATOM     17  C   UNL     1      11.811  12.246  25.127  0.00  0.00    +0.023 C 
ATOM     18  C   UNL     1      11.055  12.171  22.137  0.00  0.00    +0.011 C 
ATOM     20  C   UNL     1      15.329  11.590  23.558  0.00  0.00    +0.010 C 
ENDROOT
BRANCH  15   5
ATOM      3  O   UNL     1      14.408  12.282  27.676  0.00  0.00    -0.253 OA
ATOM      5  N   UNL     1      13.970  13.222  25.600  0.00  0.00    -0.296 N 
ATOM      7  N   UNL     1      15.032  14.468  27.209  0.00  0.00    -0.300 N 
ATOM     23  C   UNL     1      14.464  13.235  26.899  0.00  0.00    +0.300 C 
ATOM     31  H   UNL     1      13.994  14.086  25.067  0.00  0.00    +0.151 HD
ATOM     34  H   UNL     1      15.045  15.192  26.498  0.00  0.00    +0.150 HD
BRANCH   7  25
ATOM     25  C   UNL     1      15.623  14.757  28.495  0.00  0.00    +0.102 C 
ATOM     27  C   UNL     1      14.640  15.450  29.413  0.00  0.00    +0.024 C 
ENDBRANCH   7  25
ENDBRANCH  15   5
BRANCH  11   1
ATOM      1  O   UNL     1      14.795   9.773  21.504  0.00  0.00    -0.391 OA
ATOM     32  H   UNL     1      15.272  10.190  20.766  0.00  0.00    +0.210 HD
ENDBRANCH  11   1
BRANCH  14  19
ATOM     19  C   UNL     1      12.964   8.771  19.437  0.00  0.00    +0.077 C 
ATOM     21  C   UNL     1      11.707   8.751  18.573  0.00  0.00    +0.017 C 
BRANCH  19  22
ATOM      2  O   UNL     1      13.154   6.357  19.406  0.00  0.00    -0.276 OA
ATOM      6  N   UNL     1      15.087   7.624  19.210  0.00  0.00    -0.308 N 
ATOM     22  C   UNL     1      13.719   7.448  19.352  0.00  0.00    +0.217 C 
ATOM     33  H   UNL     1      15.471   8.564  19.204  0.00  0.00    +0.149 HD
BRANCH   6  24
ATOM     24  C   UNL     1      16.011   6.519  19.111  0.00  0.00    +0.178 C 
BRANCH  24  26
ATOM      4  O   UNL     1      17.197   7.786  20.813  0.00  0.00    -0.466 OA
ATOM     26  C   UNL     1      17.231   6.728  19.961  0.00  0.00    +0.122 A 
ATOM     28  C   UNL     1      18.426   6.057  20.073  0.00  0.00    +0.046 A 
ATOM     29  C   UNL     1      19.175   6.746  21.056  0.00  0.00    +0.041 A 
ATOM     30  C   UNL     1      18.383   7.790  21.477  0.00  0.00    +0.195 A 
ENDBRANCH  24  26
ENDBRANCH   6  24
ENDBRANCH  19  22
ENDBRANCH  14  19
TORSDOF 7
ENDMDL
MODEL 8
REMARK VINA RESULT:      -6.5     20.345     22.880
REMARK  Name = 28963147
REMARK  11 active torsions:
REMARK  status: ('A' for Active; 'I' for Inactive)
REMARK    1  A    between atoms: O_1  and  C_11
REMARK    2  A    between atoms: N_5  and  C_15
REMARK    3  A    between atoms: N_6  and  C_24
REMARK    4  A    between atoms: N_7  and  C_25
REMARK    5  A    between atoms: C_8  and  C_18
REMARK    6  A    between atoms: C_10  and  C_20
REMARK    7  A    between atoms: C_14  and  C_19
REMARK    8  A    between atoms: C_19  and  C_21
REMARK    9  A    between atoms: C_19  and  C_22
REMARK   10  A    between atoms: C_24  and  C_26
REMARK   11  A    between atoms: C_25  and  C_27
REMARK                            x       y       z     vdW  Elec       q    Type
REMARK                         _______ _______ _______ _____ _____    ______ ____
ROOT
ATOM      8  C   UNL     1     -15.319   7.357  20.237  0.00  0.00    -0.027 C 
ATOM      9  C   UNL     1     -14.171   6.488  20.849  0.00  0.00    +0.028 C 
ATOM     10  C   UNL     1     -14.625   5.837  22.205  0.00  0.00    +0.012 C 
ATOM     11  C   UNL     1     -12.833   7.278  20.902  0.00  0.00    +0.122 C 
ATOM     12  C   UNL     1     -14.881   7.889  18.852  0.00  0.00    +0.007 C 
ATOM     13  C   UNL     1     -16.567   6.468  20.027  0.00  0.00    +0.009 C 
ATOM     14  C   UNL     1     -12.452   7.897  19.537  0.00  0.00    +0.029 C 
ATOM     15  C   UNL     1     -15.924   5.007  21.995  0.00  0.00    +0.078 C 
ATOM     16  C   UNL     1     -13.591   8.698  18.907  0.00  0.00    +0.007 C 
ATOM     17  C   UNL     1     -17.039   5.789  21.303  0.00  0.00    +0.023 C 
ATOM     18  C   UNL     1     -15.697   8.562  21.136  0.00  0.00    +0.011 C 
ATOM     20  C   UNL     1     -13.552   4.944  22.849  0.00  0.00    +0.010 C 
ENDROOT
BRANCH  15   5
ATOM      3  O   UNL     1     -16.812   2.314  22.527  0.00  0.00    -0.253 OA
ATOM      5  N   UNL     1     -16.435   4.488  23.247  0.00  0.00    -0.296 N 
ATOM      7  N   UNL     1     -17.290   2.940  24.710  0.00  0.00    -0.300 N 
ATOM     23  C   UNL     1     -16.843   3.169  23.412  0.00  0.00    +0.300 C 
ATOM     31  H   UNL     1     -16.576   5.136  24.017  0.00  0.00    +0.151 HD
ATOM     34  H   UNL     1     -17.266   3.704  25.377  0.00  0.00    +0.150 HD
BRANCH   7  25
ATOM     25  C   UNL     1     -17.771   1.653  25.156  0.00  0.00    +0.102 C 
ATOM     27  C   UNL     1     -16.686   0.871  25.865  0.00  0.00    +0.024 C 
ENDBRANCH   7  25
ENDBRANCH  15   5
BRANCH  11   1
ATOM      1  O   UNL     1     -11.769   6.394  21.261  0.00  0.00    -0.391 OA
ATOM     32  H   UNL     1     -11.416   6.681  22.120  0.00  0.00    +0.210 HD
ENDBRANCH  11   1
BRANCH  14  19
ATOM     19  C   UNL     1     -11.202   8.778  19.640  0.00  0.00    +0.077 C 
ATOM     21  C   UNL     1     -11.535  10.079  20.361  0.00  0.00    +0.017 C 
BRANCH  19  22
ATOM      2  O   UNL     1     -10.468   8.150  17.419  0.00  0.00    -0.276 OA
ATOM      6  N   UNL     1     -10.341  10.382  18.039  0.00  0.00    -0.308 N 
ATOM     22  C   UNL     1     -10.636   9.043  18.248  0.00  0.00    +0.217 C 
ATOM     33  H   UNL     1     -10.485  11.048  18.792  0.00  0.00    +0.149 HD
BRANCH   6  24
ATOM     24  C   UNL     1      -9.792  10.877  16.798  0.00  0.00    +0.178 C 
BRANCH  24  26
ATOM      4  O   UNL     1     -10.112  13.091  17.751  0.00  0.00    -0.466 OA
ATOM     26  C   UNL     1      -9.386  12.319  16.900  0.00  0.00    +0.122 A 
ATOM     28  C   UNL     1      -8.398  13.063  16.297  0.00  0.00    +0.046 A 
ATOM     29  C   UNL     1      -8.525  14.376  16.809  0.00  0.00    +0.041 A 
ATOM     30  C   UNL     1      -9.582  14.341  17.690  0.00  0.00    +0.195 A 
ENDBRANCH  24  26
ENDBRANCH   6  24
ENDBRANCH  19  22
ENDBRANCH  14  19
TORSDOF 7
ENDMDL
MODEL 9
REMARK VINA RESULT:      -6.4      3.046      8.217
REMARK  Name = 28963147
REMARK  11 active torsions:
REMARK  status: ('A' for Active; 'I' for Inactive)
REMARK    1  A    between atoms: O_1  and  C_11
REMARK    2  A    between atoms: N_5  and  C_15
REMARK    3  A    between atoms: N_6  and  C_24
REMARK    4  A    between atoms: N_7  and  C_25
REMARK    5  A    between atoms: C_8  and  C_18
REMARK    6  A    between atoms: C_10  and  C_20
REMARK    7  A    between atoms: C_14  and  C_19
REMARK    8  A    between atoms: C_19  and  C_21
REMARK    9  A    between atoms: C_19  and  C_22
REMARK   10  A    between atoms: C_24  and  C_26
REMARK   11  A    between atoms: C_25  and  C_27
REMARK                            x       y       z     vdW  Elec       q    Type
REMARK                         _______ _______ _______ _____ _____    ______ ____
ROOT
ATOM      8  C   UNL     1      -4.706 -11.097  16.920  0.00  0.00    -0.027 C 
ATOM      9  C   UNL     1      -5.566 -10.660  15.688  0.00  0.00    +0.028 C 
ATOM     10  C   UNL     1      -7.087 -10.970  15.930  0.00  0.00    +0.012 C 
ATOM     11  C   UNL     1      -4.974 -11.215  14.361  0.00  0.00    +0.122 C 
ATOM     12  C   UNL     1      -3.234 -10.677  16.697  0.00  0.00    +0.007 C 
ATOM     13  C   UNL     1      -5.220 -10.364  18.180  0.00  0.00    +0.009 C 
ATOM     14  C   UNL     1      -3.474 -10.880  14.193  0.00  0.00    +0.029 C 
ATOM     15  C   UNL     1      -7.573 -10.287  17.240  0.00  0.00    +0.078 C 
ATOM     16  C   UNL     1      -2.639 -11.252  15.418  0.00  0.00    +0.007 C 
ATOM     17  C   UNL     1      -6.697 -10.605  18.452  0.00  0.00    +0.023 C 
ATOM     18  C   UNL     1      -4.754 -12.627  17.165  0.00  0.00    +0.011 C 
ATOM     20  C   UNL     1      -7.996 -10.537  14.768  0.00  0.00    +0.010 C 
ENDROOT
BRANCH  15   5
ATOM      3  O   UNL     1      -9.767  -8.488  17.761  0.00  0.00    -0.253 OA
ATOM      5  N   UNL     1      -8.940 -10.647  17.556  0.00  0.00    -0.296 N 
ATOM      7  N   UNL     1     -11.153 -10.322  18.073  0.00  0.00    -0.300 N 
ATOM     23  C   UNL     1      -9.936  -9.706  17.794  0.00  0.00    +0.300 C 
ATOM     31  H   UNL     1      -9.163 -11.629  17.686  0.00  0.00    +0.151 HD
ATOM     34  H   UNL     1     -11.200 -11.337  18.065  0.00  0.00    +0.150 HD
BRANCH   7  25
ATOM     25  C   UNL     1     -12.359  -9.581  18.358  0.00  0.00    +0.102 C 
ATOM     27  C   UNL     1     -12.779  -9.737  19.803  0.00  0.00    +0.024 C 
ENDBRANCH   7  25
ENDBRANCH  15   5
BRANCH  11   1
ATOM      1  O   UNL     1      -5.651 -10.623  13.251  0.00  0.00    -0.391 OA
ATOM     32  H   UNL     1      -4.995 -10.455  12.553  0.00  0.00    +0.210 HD
ENDBRANCH  11   1
BRANCH  14  19
ATOM     19  C   UNL     1      -2.878 -11.545  12.946  0.00  0.00    +0.077 C 
ATOM     21  C   UNL     1      -1.663 -12.383  13.328  0.00  0.00    +0.017 C 
BRANCH  19  22
ATOM      2  O   UNL     1      -1.420  -9.933  11.879  0.00  0.00    -0.276 OA
ATOM      6  N   UNL     1      -3.561 -10.221  11.034  0.00  0.00    -0.308 N 
ATOM     22  C   UNL     1      -2.519 -10.483  11.911  0.00  0.00    +0.217 C 
ATOM     33  H   UNL     1      -4.447 -10.703  11.153  0.00  0.00    +0.149 HD
BRANCH   6  24
ATOM     24  C   UNL     1      -3.460  -9.252   9.968  0.00  0.00    +0.178 C 
BRANCH  24  26
ATOM      4  O   UNL     1      -5.689  -8.338   9.636  0.00  0.00    -0.466 OA
ATOM     26  C   UNL     1      -4.724  -9.170   9.162  0.00  0.00    +0.122 A 
ATOM     28  C   UNL     1      -5.139  -9.777   7.999  0.00  0.00    +0.046 A 
ATOM     29  C   UNL     1      -6.441  -9.287   7.742  0.00  0.00    +0.041 A 
ATOM     30  C   UNL     1      -6.730  -8.415   8.766  0.00  0.00    +0.195 A 
ENDBRANCH  24  26
ENDBRANCH   6  24
ENDBRANCH  19  22
ENDBRANCH  14  19
TORSDOF 7
ENDMDL
MODEL 10
REMARK VINA RESULT:      -6.2     30.903     32.550
REMARK  Name = 28963147
REMARK  11 active torsions:
REMARK  status: ('A' for Active; 'I' for Inactive)
REMARK    1  A    between atoms: O_1  and  C_11
REMARK    2  A    between atoms: N_5  and  C_15
REMARK    3  A    between atoms: N_6  and  C_24
REMARK    4  A    between atoms: N_7  and  C_25
REMARK    5  A    between atoms: C_8  and  C_18
REMARK    6  A    between atoms: C_10  and  C_20
REMARK    7  A    between atoms: C_14  and  C_19
REMARK    8  A    between atoms: C_19  and  C_21
REMARK    9  A    between atoms: C_19  and  C_22
REMARK   10  A    between atoms: C_24  and  C_26
REMARK   11  A    between atoms: C_25  and  C_27
REMARK                            x       y       z     vdW  Elec       q    Type
REMARK                         _______ _______ _______ _____ _____    ______ ____
ROOT
ATOM      8  C   UNL     1      -1.469   6.740  39.493  0.00  0.00    -0.027 C 
ATOM      9  C   UNL     1      -2.932   7.242  39.733  0.00  0.00    +0.028 C 
ATOM     10  C   UNL     1      -3.118   8.703  39.186  0.00  0.00    +0.012 C 
ATOM     11  C   UNL     1      -3.369   7.019  41.209  0.00  0.00    +0.122 C 
ATOM     12  C   UNL     1      -1.350   5.263  39.938  0.00  0.00    +0.007 C 
ATOM     13  C   UNL     1      -1.156   6.802  37.980  0.00  0.00    +0.009 C 
ATOM     14  C   UNL     1      -3.150   5.563  41.681  0.00  0.00    +0.029 C 
ATOM     15  C   UNL     1      -2.728   8.768  37.682  0.00  0.00    +0.078 C 
ATOM     16  C   UNL     1      -1.740   5.049  41.395  0.00  0.00    +0.007 C 
ATOM     17  C   UNL     1      -1.344   8.190  37.387  0.00  0.00    +0.023 C 
ATOM     18  C   UNL     1      -0.419   7.578  40.266  0.00  0.00    +0.011 C 
ATOM     20  C   UNL     1      -4.544   9.249  39.364  0.00  0.00    +0.010 C 
ENDROOT
BRANCH  15   5
ATOM      3  O   UNL     1      -4.540   9.818  35.697  0.00  0.00    -0.253 OA
ATOM      5  N   UNL     1      -2.777  10.124  37.175  0.00  0.00    -0.296 N 
ATOM      7  N   UNL     1      -3.516  11.889  35.907  0.00  0.00    -0.300 N 
ATOM     23  C   UNL     1      -3.689  10.542  36.213  0.00  0.00    +0.300 C 
ATOM     31  H   UNL     1      -2.063  10.779  37.479  0.00  0.00    +0.151 HD
ATOM     34  H   UNL     1      -2.794  12.412  36.394  0.00  0.00    +0.150 HD
BRANCH   7  25
ATOM     25  C   UNL     1      -4.331  12.583  34.938  0.00  0.00    +0.102 C 
ATOM     27  C   UNL     1      -3.497  13.126  33.798  0.00  0.00    +0.024 C 
ENDBRANCH   7  25
ENDBRANCH  15   5
BRANCH  11   1
ATOM      1  O   UNL     1      -4.767   7.285  41.338  0.00  0.00    -0.391 OA
ATOM     32  H   UNL     1      -5.118   6.712  42.041  0.00  0.00    +0.210 HD
ENDBRANCH  11   1
BRANCH  14  19
ATOM     19  C   UNL     1      -3.464   5.395  43.172  0.00  0.00    +0.077 C 
ATOM     21  C   UNL     1      -2.364   4.589  43.853  0.00  0.00    +0.017 C 
BRANCH  19  22
ATOM      2  O   UNL     1      -4.982   3.513  43.308  0.00  0.00    -0.276 OA
ATOM      6  N   UNL     1      -5.845   5.653  43.545  0.00  0.00    -0.308 N 
ATOM     22  C   UNL     1      -4.828   4.732  43.346  0.00  0.00    +0.217 C 
ATOM     33  H   UNL     1      -5.631   6.646  43.533  0.00  0.00    +0.149 HD
BRANCH   6  24
ATOM     24  C   UNL     1      -7.224   5.266  43.733  0.00  0.00    +0.178 C 
BRANCH  24  26
ATOM      4  O   UNL     1      -7.606   7.166  42.265  0.00  0.00    -0.466 OA
ATOM     26  C   UNL     1      -8.161   6.112  42.919  0.00  0.00    +0.122 A 
ATOM     28  C   UNL     1      -9.514   6.053  42.680  0.00  0.00    +0.046 A 
ATOM     29  C   UNL     1      -9.810   7.140  41.823  0.00  0.00    +0.041 A 
ATOM     30  C   UNL     1      -8.616   7.786  41.600  0.00  0.00    +0.195 A 
ENDBRANCH  24  26
ENDBRANCH   6  24
ENDBRANCH  19  22
ENDBRANCH  14  19
TORSDOF 7
ENDMDL
