MODEL 1
REMARK VINA RESULT:      -7.3      0.000      0.000
REMARK  Name = 26762949
REMARK  5 active torsions:
REMARK  status: ('A' for Active; 'I' for Inactive)
REMARK    1  A    between atoms: N_6  and  C_11
REMARK    2  A    between atoms: N_8  and  C_25
REMARK    3  A    between atoms: C_10  and  C_15
REMARK    4  A    between atoms: C_15  and  C_17
REMARK    5  A    between atoms: C_17  and  C_18
REMARK                            x       y       z     vdW  Elec       q    Type
REMARK                         _______ _______ _______ _____ _____    ______ ____
ROOT
ATOM      1  O   UNL     1      12.132   8.242  16.948  0.00  0.00    -0.274 OA
ATOM      4  N   UNL     1      13.571   8.305  20.066  0.00  0.00    -0.285 NA
ATOM      5  N   UNL     1      14.243   7.536  17.569  0.00  0.00    -0.313 N 
ATOM      9  C   UNL     1      12.533   7.657  19.266  0.00  0.00    +0.145 C 
ATOM     10  C   UNL     1      14.876   7.643  19.982  0.00  0.00    +0.075 C 
ATOM     11  C   UNL     1      11.589   8.904  21.120  0.00  0.00    +0.090 C 
ATOM     12  C   UNL     1      11.259   8.356  19.724  0.00  0.00    +0.052 C 
ATOM     13  C   UNL     1      13.014   8.430  21.409  0.00  0.00    +0.107 C 
ATOM     14  C   UNL     1      15.073   6.956  18.611  0.00  0.00    +0.123 C 
ATOM     16  C   UNL     1      12.916   7.865  17.813  0.00  0.00    +0.230 C 
ATOM     31  H   UNL     1      14.605   7.606  16.624  0.00  0.00    +0.149 HD
ENDROOT
BRANCH  11   6
ATOM      3  O   UNL     1      10.816  10.519  23.358  0.00  0.00    -0.253 OA
ATOM      6  N   UNL     1      11.490  10.345  21.153  0.00  0.00    -0.295 N 
ATOM      8  N   UNL     1      11.100  12.432  22.028  0.00  0.00    -0.269 N 
ATOM     19  C   UNL     1      11.104  11.061  22.293  0.00  0.00    +0.304 C 
ATOM     32  H   UNL     1      11.796  10.869  20.339  0.00  0.00    +0.151 HD
ATOM     33  H   UNL     1      11.364  12.716  21.088  0.00  0.00    +0.156 HD
BRANCH   8  25
ATOM     25  C   UNL     1      10.770  13.487  22.912  0.00  0.00    +0.035 A 
ATOM     26  C   UNL     1       9.743  14.373  22.587  0.00  0.00    +0.023 A 
ATOM     27  C   UNL     1      11.470  13.640  24.109  0.00  0.00    +0.023 A 
ATOM     28  C   UNL     1       9.417  15.412  23.458  0.00  0.00    +0.002 A 
ATOM     29  C   UNL     1      11.144  14.679  24.981  0.00  0.00    +0.002 A 
ATOM     30  C   UNL     1      10.118  15.565  24.654  0.00  0.00    +0.000 A 
ENDBRANCH   8  25
ENDBRANCH  11   6
BRANCH  10  15
ATOM     15  C   UNL     1      15.970   8.689  20.212  0.00  0.00    +0.029 C 
BRANCH  15  17
ATOM     17  C   UNL     1      16.576   8.597  21.605  0.00  0.00    +0.097 C 
BRANCH  17  18
ATOM      2  O   UNL     1      18.166  10.353  21.589  0.00  0.00    -0.276 OA
ATOM      7  N   UNL     1      19.012   8.191  21.666  0.00  0.00    -0.301 N 
ATOM     18  C   UNL     1      17.985   9.133  21.619  0.00  0.00    +0.216 C 
ATOM     20  C   UNL     1      20.409   8.633  21.681  0.00  0.00    +0.108 C 
ATOM     21  C   UNL     1      18.827   6.736  21.748  0.00  0.00    +0.108 C 
ATOM     22  C   UNL     1      21.205   7.962  20.565  0.00  0.00    +0.019 C 
ATOM     23  C   UNL     1      19.595   6.029  20.633  0.00  0.00    +0.019 C 
ATOM     24  C   UNL     1      21.066   6.442  20.622  0.00  0.00    +0.003 C 
ENDBRANCH  17  18
ENDBRANCH  15  17
ENDBRANCH  10  15
TORSDOF 5
ENDMDL
MODEL 2
REMARK VINA RESULT:      -7.1     14.896     18.413
REMARK  Name = 26762949
REMARK  5 active torsions:
REMARK  status: ('A' for Active; 'I' for Inactive)
REMARK    1  A    between atoms: N_6  and  C_11
REMARK    2  A    between atoms: N_8  and  C_25
REMARK    3  A    between atoms: C_10  and  C_15
REMARK    4  A    between atoms: C_15  and  C_17
REMARK    5  A    between atoms: C_17  and  C_18
REMARK                            x       y       z     vdW  Elec       q    Type
REMARK                         _______ _______ _______ _____ _____    ______ ____
ROOT
ATOM      1  O   UNL     1       9.976   4.329   7.982  0.00  0.00    -0.274 OA
ATOM      4  N   UNL     1       9.952   6.859   5.658  0.00  0.00    -0.285 NA
ATOM      5  N   UNL     1       9.418   6.552   8.284  0.00  0.00    -0.313 N 
ATOM      9  C   UNL     1       9.271   5.630   6.060  0.00  0.00    +0.145 C 
ATOM     10  C   UNL     1       9.416   8.064   6.297  0.00  0.00    +0.075 C 
ATOM     11  C   UNL     1      10.301   5.411   3.875  0.00  0.00    +0.090 C 
ATOM     12  C   UNL     1       9.822   4.597   5.086  0.00  0.00    +0.052 C 
ATOM     13  C   UNL     1       9.935   6.860   4.199  0.00  0.00    +0.107 C 
ATOM     14  C   UNL     1       8.844   7.751   7.700  0.00  0.00    +0.123 C 
ATOM     16  C   UNL     1       9.612   5.408   7.522  0.00  0.00    +0.230 C 
ATOM     31  H   UNL     1       9.585   6.515   9.285  0.00  0.00    +0.149 HD
ENDROOT
BRANCH  11   6
ATOM      3  O   UNL     1      11.702   5.625   1.384  0.00  0.00    -0.253 OA
ATOM      6  N   UNL     1      11.721   5.254   3.667  0.00  0.00    -0.295 N 
ATOM      8  N   UNL     1      13.708   5.174   2.517  0.00  0.00    -0.269 N 
ATOM     19  C   UNL     1      12.330   5.376   2.412  0.00  0.00    +0.304 C 
ATOM     32  H   UNL     1      12.319   5.134   4.479  0.00  0.00    +0.151 HD
ATOM     33  H   UNL     1      14.070   4.974   3.446  0.00  0.00    +0.156 HD
BRANCH   8  25
ATOM     25  C   UNL     1      14.673   5.212   1.483  0.00  0.00    +0.035 A 
ATOM     26  C   UNL     1      15.311   6.412   1.169  0.00  0.00    +0.023 A 
ATOM     27  C   UNL     1      14.988   4.051   0.778  0.00  0.00    +0.023 A 
ATOM     28  C   UNL     1      16.263   6.450   0.150  0.00  0.00    +0.002 A 
ATOM     29  C   UNL     1      15.939   4.088  -0.240  0.00  0.00    +0.002 A 
ATOM     30  C   UNL     1      16.577   5.289  -0.555  0.00  0.00    +0.000 A 
ENDBRANCH   8  25
ENDBRANCH  11   6
BRANCH  10  15
ATOM     15  C   UNL     1      10.536   9.102   6.401  0.00  0.00    +0.029 C 
BRANCH  15  17
ATOM     17  C   UNL     1      11.812   8.522   6.992  0.00  0.00    +0.097 C 
BRANCH  17  18
ATOM      2  O   UNL     1      12.748  10.696   7.084  0.00  0.00    -0.276 OA
ATOM      7  N   UNL     1      14.198   8.966   6.536  0.00  0.00    -0.301 N 
ATOM     18  C   UNL     1      12.956   9.497   6.877  0.00  0.00    +0.216 C 
ATOM     20  C   UNL     1      15.359   9.850   6.404  0.00  0.00    +0.108 C 
ATOM     21  C   UNL     1      14.485   7.540   6.329  0.00  0.00    +0.108 C 
ATOM     22  C   UNL     1      16.032   9.666   5.046  0.00  0.00    +0.019 C 
ATOM     23  C   UNL     1      15.144   7.313   4.970  0.00  0.00    +0.019 C 
ATOM     24  C   UNL     1      16.376   8.199   4.793  0.00  0.00    +0.003 C 
ENDBRANCH  17  18
ENDBRANCH  15  17
ENDBRANCH  10  15
TORSDOF 5
ENDMDL
MODEL 3
REMARK VINA RESULT:      -7.0      2.245      3.221
REMARK  Name = 26762949
REMARK  5 active torsions:
REMARK  status: ('A' for Active; 'I' for Inactive)
REMARK    1  A    between atoms: N_6  and  C_11
REMARK    2  A    between atoms: N_8  and  C_25
REMARK    3  A    between atoms: C_10  and  C_15
REMARK    4  A    between atoms: C_15  and  C_17
REMARK    5  A    between atoms: C_17  and  C_18
REMARK                            x       y       z     vdW  Elec       q    Type
REMARK                         _______ _______ _______ _____ _____    ______ ____
ROOT
ATOM      1  O   UNL     1      12.265   8.291  17.060  0.00  0.00    -0.274 OA
ATOM      4  N   UNL     1      13.503   8.270  20.264  0.00  0.00    -0.285 NA
ATOM      5  N   UNL     1      14.335   7.572  17.795  0.00  0.00    -0.313 N 
ATOM      9  C   UNL     1      12.520   7.642  19.382  0.00  0.00    +0.145 C 
ATOM     10  C   UNL     1      14.812   7.613  20.246  0.00  0.00    +0.075 C 
ATOM     11  C   UNL     1      11.455   8.836  21.206  0.00  0.00    +0.090 C 
ATOM     12  C   UNL     1      11.217   8.326  19.777  0.00  0.00    +0.052 C 
ATOM     13  C   UNL     1      12.860   8.356  21.572  0.00  0.00    +0.107 C 
ATOM     14  C   UNL     1      15.098   6.965  18.872  0.00  0.00    +0.123 C 
ATOM     16  C   UNL     1      12.994   7.891  17.963  0.00  0.00    +0.230 C 
ATOM     31  H   UNL     1      14.757   7.669  16.877  0.00  0.00    +0.149 HD
ENDROOT
BRANCH  11   6
ATOM      3  O   UNL     1      10.878  10.407  23.532  0.00  0.00    -0.253 OA
ATOM      6  N   UNL     1      11.350  10.275  21.272  0.00  0.00    -0.295 N 
ATOM      8  N   UNL     1      11.026  12.345  22.215  0.00  0.00    -0.269 N 
ATOM     19  C   UNL     1      11.064  10.969  22.454  0.00  0.00    +0.304 C 
ATOM     32  H   UNL     1      11.576  10.815  20.443  0.00  0.00    +0.151 HD
ATOM     33  H   UNL     1      11.201  12.646  21.260  0.00  0.00    +0.156 HD
BRANCH   8  25
ATOM     25  C   UNL     1      10.770  13.381  23.143  0.00  0.00    +0.035 A 
ATOM     26  C   UNL     1       9.743  14.293  22.904  0.00  0.00    +0.023 A 
ATOM     27  C   UNL     1      11.544  13.491  24.299  0.00  0.00    +0.023 A 
ATOM     28  C   UNL     1       9.490  15.315  23.819  0.00  0.00    +0.002 A 
ATOM     29  C   UNL     1      11.292  14.512  25.214  0.00  0.00    +0.002 A 
ATOM     30  C   UNL     1      10.265  15.425  24.973  0.00  0.00    +0.000 A 
ENDBRANCH   8  25
ENDBRANCH  11   6
BRANCH  10  15
ATOM     15  C   UNL     1      15.886   8.654  20.574  0.00  0.00    +0.029 C 
BRANCH  15  17
ATOM     17  C   UNL     1      15.569  10.020  19.984  0.00  0.00    +0.097 C 
BRANCH  17  18
ATOM      2  O   UNL     1      17.576  11.271  20.108  0.00  0.00    -0.276 OA
ATOM      7  N   UNL     1      15.925  11.807  21.651  0.00  0.00    -0.301 N 
ATOM     18  C   UNL     1      16.452  11.087  20.580  0.00  0.00    +0.216 C 
ATOM     20  C   UNL     1      16.723  12.859  22.286  0.00  0.00    +0.108 C 
ATOM     21  C   UNL     1      14.575  11.641  22.205  0.00  0.00    +0.108 C 
ATOM     22  C   UNL     1      16.823  12.634  23.792  0.00  0.00    +0.019 C 
ATOM     23  C   UNL     1      14.635  11.393  23.711  0.00  0.00    +0.019 C 
ATOM     24  C   UNL     1      15.440  12.480  24.422  0.00  0.00    +0.003 C 
ENDBRANCH  17  18
ENDBRANCH  15  17
ENDBRANCH  10  15
TORSDOF 5
ENDMDL
MODEL 4
REMARK VINA RESULT:      -7.0     27.598     29.426
REMARK  Name = 26762949
REMARK  5 active torsions:
REMARK  status: ('A' for Active; 'I' for Inactive)
REMARK    1  A    between atoms: N_6  and  C_11
REMARK    2  A    between atoms: N_8  and  C_25
REMARK    3  A    between atoms: C_10  and  C_15
REMARK    4  A    between atoms: C_15  and  C_17
REMARK    5  A    between atoms: C_17  and  C_18
REMARK                            x       y       z     vdW  Elec       q    Type
REMARK                         _______ _______ _______ _____ _____    ______ ____
ROOT
ATOM      1  O   UNL     1      -5.543 -14.101  14.602  0.00  0.00    -0.274 OA
ATOM      4  N   UNL     1      -3.862 -11.230  15.459  0.00  0.00    -0.285 NA
ATOM      5  N   UNL     1      -3.390 -13.474  14.038  0.00  0.00    -0.313 N 
ATOM      9  C   UNL     1      -4.394 -12.482  15.995  0.00  0.00    +0.145 C 
ATOM     10  C   UNL     1      -2.486 -11.340  14.966  0.00  0.00    +0.075 C 
ATOM     11  C   UNL     1      -5.504 -10.551  16.956  0.00  0.00    +0.090 C 
ATOM     12  C   UNL     1      -5.692 -12.046  16.661  0.00  0.00    +0.052 C 
ATOM     13  C   UNL     1      -4.079 -10.231  16.500  0.00  0.00    +0.107 C 
ATOM     14  C   UNL     1      -2.189 -12.761  14.436  0.00  0.00    +0.123 C 
ATOM     16  C   UNL     1      -4.539 -13.427  14.817  0.00  0.00    +0.230 C 
ATOM     31  H   UNL     1      -3.359 -14.097  13.238  0.00  0.00    +0.149 HD
ENDROOT
BRANCH  11   6
ATOM      3  O   UNL     1      -8.161  -9.931  17.830  0.00  0.00    -0.253 OA
ATOM      6  N   UNL     1      -6.479  -9.751  16.253  0.00  0.00    -0.295 N 
ATOM      8  N   UNL     1      -8.481  -8.695  15.860  0.00  0.00    -0.269 N 
ATOM     19  C   UNL     1      -7.762  -9.494  16.752  0.00  0.00    +0.304 C 
ATOM     32  H   UNL     1      -6.196  -9.283  15.398  0.00  0.00    +0.151 HD
ATOM     33  H   UNL     1      -8.002  -8.421  15.006  0.00  0.00    +0.156 HD
BRANCH   8  25
ATOM     25  C   UNL     1      -9.806  -8.218  15.995  0.00  0.00    +0.035 A 
ATOM     26  C   UNL     1     -10.844  -9.109  16.264  0.00  0.00    +0.023 A 
ATOM     27  C   UNL     1     -10.075  -6.855  15.860  0.00  0.00    +0.023 A 
ATOM     28  C   UNL     1     -12.151  -8.639  16.397  0.00  0.00    +0.002 A 
ATOM     29  C   UNL     1     -11.380  -6.385  15.994  0.00  0.00    +0.002 A 
ATOM     30  C   UNL     1     -12.419  -7.277  16.262  0.00  0.00    +0.000 A 
ENDBRANCH   8  25
ENDBRANCH  11   6
BRANCH  10  15
ATOM     15  C   UNL     1      -2.281 -10.307  13.855  0.00  0.00    +0.029 C 
BRANCH  15  17
ATOM     17  C   UNL     1      -1.926 -10.951  12.523  0.00  0.00    +0.097 C 
BRANCH  17  18
ATOM      2  O   UNL     1      -1.230  -9.252  11.025  0.00  0.00    -0.276 OA
ATOM      7  N   UNL     1      -3.414 -10.010  10.790  0.00  0.00    -0.301 N 
ATOM     18  C   UNL     1      -2.151  -9.993  11.380  0.00  0.00    +0.216 C 
ATOM     20  C   UNL     1      -3.710  -9.107   9.675  0.00  0.00    +0.108 C 
ATOM     21  C   UNL     1      -4.512 -10.911  11.161  0.00  0.00    +0.108 C 
ATOM     22  C   UNL     1      -4.961  -8.281   9.961  0.00  0.00    +0.019 C 
ATOM     23  C   UNL     1      -5.780 -10.119  11.474  0.00  0.00    +0.019 C 
ATOM     24  C   UNL     1      -6.144  -9.176  10.327  0.00  0.00    +0.003 C 
ENDBRANCH  17  18
ENDBRANCH  15  17
ENDBRANCH  10  15
TORSDOF 5
ENDMDL
MODEL 5
REMARK VINA RESULT:      -6.9     28.039     29.930
REMARK  Name = 26762949
REMARK  5 active torsions:
REMARK  status: ('A' for Active; 'I' for Inactive)
REMARK    1  A    between atoms: N_6  and  C_11
REMARK    2  A    between atoms: N_8  and  C_25
REMARK    3  A    between atoms: C_10  and  C_15
REMARK    4  A    between atoms: C_15  and  C_17
REMARK    5  A    between atoms: C_17  and  C_18
REMARK                            x       y       z     vdW  Elec       q    Type
REMARK                         _______ _______ _______ _____ _____    ______ ____
ROOT
ATOM      1  O   UNL     1      -5.344 -13.345  11.084  0.00  0.00    -0.274 OA
ATOM      4  N   UNL     1      -3.544 -10.434  10.786  0.00  0.00    -0.285 NA
ATOM      5  N   UNL     1      -5.335 -11.835   9.334  0.00  0.00    -0.313 N 
ATOM      9  C   UNL     1      -3.424 -11.891  10.805  0.00  0.00    +0.145 C 
ATOM     10  C   UNL     1      -3.784  -9.882   9.450  0.00  0.00    +0.075 C 
ATOM     11  C   UNL     1      -2.263 -10.871  12.675  0.00  0.00    +0.090 C 
ATOM     12  C   UNL     1      -2.928 -12.177  12.217  0.00  0.00    +0.052 C 
ATOM     13  C   UNL     1      -2.358  -9.931  11.471  0.00  0.00    +0.107 C 
ATOM     14  C   UNL     1      -4.566 -10.876   8.561  0.00  0.00    +0.123 C 
ATOM     16  C   UNL     1      -4.795 -12.441  10.461  0.00  0.00    +0.230 C 
ATOM     31  H   UNL     1      -6.238 -12.144   8.990  0.00  0.00    +0.149 HD
ENDROOT
BRANCH  11   6
ATOM      3  O   UNL     1      -3.121 -12.308  15.000  0.00  0.00    -0.253 OA
ATOM      6  N   UNL     1      -2.929 -10.322  13.832  0.00  0.00    -0.295 N 
ATOM      8  N   UNL     1      -3.936 -10.298  15.897  0.00  0.00    -0.269 N 
ATOM     19  C   UNL     1      -3.317 -11.097  14.933  0.00  0.00    +0.304 C 
ATOM     32  H   UNL     1      -3.048  -9.315  13.891  0.00  0.00    +0.151 HD
ATOM     33  H   UNL     1      -4.022  -9.307  15.683  0.00  0.00    +0.156 HD
BRANCH   8  25
ATOM     25  C   UNL     1      -4.467 -10.698  17.146  0.00  0.00    +0.035 A 
ATOM     26  C   UNL     1      -5.756 -10.312  17.511  0.00  0.00    +0.023 A 
ATOM     27  C   UNL     1      -3.701 -11.479  18.013  0.00  0.00    +0.023 A 
ATOM     28  C   UNL     1      -6.280 -10.707  18.742  0.00  0.00    +0.002 A 
ATOM     29  C   UNL     1      -4.225 -11.874  19.243  0.00  0.00    +0.002 A 
ATOM     30  C   UNL     1      -5.514 -11.487  19.608  0.00  0.00    +0.000 A 
ENDBRANCH   8  25
ENDBRANCH  11   6
BRANCH  10  15
ATOM     15  C   UNL     1      -4.566  -8.573   9.595  0.00  0.00    +0.029 C 
BRANCH  15  17
ATOM     17  C   UNL     1      -5.314  -8.488  10.916  0.00  0.00    +0.097 C 
BRANCH  17  18
ATOM      2  O   UNL     1      -7.398  -8.529   9.790  0.00  0.00    -0.276 OA
ATOM      7  N   UNL     1      -7.249  -9.784  11.740  0.00  0.00    -0.301 N 
ATOM     18  C   UNL     1      -6.747  -8.931  10.758  0.00  0.00    +0.216 C 
ATOM     20  C   UNL     1      -8.634 -10.256  11.657  0.00  0.00    +0.108 C 
ATOM     21  C   UNL     1      -6.486 -10.314  12.877  0.00  0.00    +0.108 C 
ATOM     22  C   UNL     1      -9.389  -9.961  12.950  0.00  0.00    +0.019 C 
ATOM     23  C   UNL     1      -7.202 -10.021  14.194  0.00  0.00    +0.019 C 
ATOM     24  C   UNL     1      -8.647 -10.517  14.164  0.00  0.00    +0.003 C 
ENDBRANCH  17  18
ENDBRANCH  15  17
ENDBRANCH  10  15
TORSDOF 5
ENDMDL
MODEL 6
REMARK VINA RESULT:      -6.8     27.843     29.716
REMARK  Name = 26762949
REMARK  5 active torsions:
REMARK  status: ('A' for Active; 'I' for Inactive)
REMARK    1  A    between atoms: N_6  and  C_11
REMARK    2  A    between atoms: N_8  and  C_25
REMARK    3  A    between atoms: C_10  and  C_15
REMARK    4  A    between atoms: C_15  and  C_17
REMARK    5  A    between atoms: C_17  and  C_18
REMARK                            x       y       z     vdW  Elec       q    Type
REMARK                         _______ _______ _______ _____ _____    ______ ____
ROOT
ATOM      1  O   UNL     1      -7.441 -14.028  16.780  0.00  0.00    -0.274 OA
ATOM      4  N   UNL     1      -5.839 -11.447  18.385  0.00  0.00    -0.285 NA
ATOM      5  N   UNL     1      -5.230 -13.901  17.443  0.00  0.00    -0.313 N 
ATOM      9  C   UNL     1      -6.841 -12.497  18.562  0.00  0.00    +0.145 C 
ATOM     10  C   UNL     1      -4.474 -11.879  18.699  0.00  0.00    +0.075 C 
ATOM     11  C   UNL     1      -7.812 -10.284  18.777  0.00  0.00    +0.090 C 
ATOM     12  C   UNL     1      -8.157 -11.741  18.435  0.00  0.00    +0.052 C 
ATOM     13  C   UNL     1      -6.328 -10.303  19.146  0.00  0.00    +0.107 C 
ATOM     14  C   UNL     1      -4.280 -13.387  18.415  0.00  0.00    +0.123 C 
ATOM     16  C   UNL     1      -6.569 -13.537  17.492  0.00  0.00    +0.230 C 
ATOM     31  H   UNL     1      -4.933 -14.614  16.785  0.00  0.00    +0.149 HD
ENDROOT
BRANCH  11   6
ATOM      3  O   UNL     1     -10.376  -9.404  17.849  0.00  0.00    -0.253 OA
ATOM      6  N   UNL     1      -8.072  -9.408  17.659  0.00  0.00    -0.295 N 
ATOM      8  N   UNL     1      -9.302  -8.175  16.162  0.00  0.00    -0.269 N 
ATOM     19  C   UNL     1      -9.361  -9.024  17.270  0.00  0.00    +0.304 C 
ATOM     32  H   UNL     1      -7.282  -8.982  17.185  0.00  0.00    +0.151 HD
ATOM     33  H   UNL     1      -8.376  -7.959  15.801  0.00  0.00    +0.156 HD
BRANCH   8  25
ATOM     25  C   UNL     1     -10.380  -7.573  15.471  0.00  0.00    +0.035 A 
ATOM     26  C   UNL     1     -11.054  -8.282  14.477  0.00  0.00    +0.023 A 
ATOM     27  C   UNL     1     -10.770  -6.270  15.784  0.00  0.00    +0.023 A 
ATOM     28  C   UNL     1     -12.117  -7.689  13.795  0.00  0.00    +0.002 A 
ATOM     29  C   UNL     1     -11.833  -5.677  15.104  0.00  0.00    +0.002 A 
ATOM     30  C   UNL     1     -12.506  -6.387  14.108  0.00  0.00    +0.000 A 
ENDBRANCH   8  25
ENDBRANCH  11   6
BRANCH  10  15
ATOM     15  C   UNL     1      -3.495 -11.052  17.861  0.00  0.00    +0.029 C 
BRANCH  15  17
ATOM     17  C   UNL     1      -3.938 -10.922  16.412  0.00  0.00    +0.097 C 
BRANCH  17  18
ATOM      2  O   UNL     1      -1.624 -11.065  15.926  0.00  0.00    -0.276 OA
ATOM      7  N   UNL     1      -3.074 -11.234  14.119  0.00  0.00    -0.301 N 
ATOM     18  C   UNL     1      -2.771 -11.080  15.471  0.00  0.00    +0.216 C 
ATOM     20  C   UNL     1      -1.994 -11.391  13.142  0.00  0.00    +0.108 C 
ATOM     21  C   UNL     1      -4.428 -11.300  13.554  0.00  0.00    +0.108 C 
ATOM     22  C   UNL     1      -2.120 -10.365  12.020  0.00  0.00    +0.019 C 
ATOM     23  C   UNL     1      -4.600 -10.272  12.438  0.00  0.00    +0.019 C 
ATOM     24  C   UNL     1      -3.506 -10.411  11.380  0.00  0.00    +0.003 C 
ENDBRANCH  17  18
ENDBRANCH  15  17
ENDBRANCH  10  15
TORSDOF 5
ENDMDL
MODEL 7
REMARK VINA RESULT:      -6.5     29.011     31.900
REMARK  Name = 26762949
REMARK  5 active torsions:
REMARK  status: ('A' for Active; 'I' for Inactive)
REMARK    1  A    between atoms: N_6  and  C_11
REMARK    2  A    between atoms: N_8  and  C_25
REMARK    3  A    between atoms: C_10  and  C_15
REMARK    4  A    between atoms: C_15  and  C_17
REMARK    5  A    between atoms: C_17  and  C_18
REMARK                            x       y       z     vdW  Elec       q    Type
REMARK                         _______ _______ _______ _____ _____    ______ ____
ROOT
ATOM      1  O   UNL     1      -7.732 -11.397  19.693  0.00  0.00    -0.274 OA
ATOM      4  N   UNL     1      -9.682 -10.312  17.080  0.00  0.00    -0.285 NA
ATOM      5  N   UNL     1      -9.703 -10.191  19.775  0.00  0.00    -0.313 N 
ATOM      9  C   UNL     1      -9.250 -11.506  17.804  0.00  0.00    +0.145 C 
ATOM     10  C   UNL     1     -10.889  -9.694  17.635  0.00  0.00    +0.075 C 
ATOM     11  C   UNL     1      -8.485 -11.528  15.502  0.00  0.00    +0.090 C 
ATOM     12  C   UNL     1      -8.172 -12.087  16.898  0.00  0.00    +0.052 C 
ATOM     13  C   UNL     1      -9.765 -10.709  15.679  0.00  0.00    +0.107 C 
ATOM     14  C   UNL     1     -10.992  -9.926  19.160  0.00  0.00    +0.123 C 
ATOM     16  C   UNL     1      -8.783 -11.037  19.170  0.00  0.00    +0.230 C 
ATOM     31  H   UNL     1      -9.513  -9.838  20.707  0.00  0.00    +0.149 HD
ENDROOT
BRANCH  11   6
ATOM      3  O   UNL     1      -7.408 -11.536  12.847  0.00  0.00    -0.253 OA
ATOM      6  N   UNL     1      -7.398 -10.715  15.009  0.00  0.00    -0.295 N 
ATOM      8  N   UNL     1      -5.877  -9.882  13.502  0.00  0.00    -0.269 N 
ATOM     19  C   UNL     1      -6.931 -10.780  13.690  0.00  0.00    +0.304 C 
ATOM     32  H   UNL     1      -7.009 -10.004  15.619  0.00  0.00    +0.151 HD
ATOM     33  H   UNL     1      -5.600  -9.328  14.309  0.00  0.00    +0.156 HD
BRANCH   8  25
ATOM     25  C   UNL     1      -5.137  -9.647  12.320  0.00  0.00    +0.035 A 
ATOM     26  C   UNL     1      -5.636  -8.781  11.346  0.00  0.00    +0.023 A 
ATOM     27  C   UNL     1      -3.908 -10.279  12.126  0.00  0.00    +0.023 A 
ATOM     28  C   UNL     1      -4.907  -8.548  10.180  0.00  0.00    +0.002 A 
ATOM     29  C   UNL     1      -3.179 -10.046  10.961  0.00  0.00    +0.002 A 
ATOM     30  C   UNL     1      -3.679  -9.181   9.987  0.00  0.00    +0.000 A 
ENDBRANCH   8  25
ENDBRANCH  11   6
BRANCH  10  15
ATOM     15  C   UNL     1     -10.855  -8.194  17.329  0.00  0.00    +0.029 C 
BRANCH  15  17
ATOM     17  C   UNL     1     -12.021  -7.754  16.457  0.00  0.00    +0.097 C 
BRANCH  17  18
ATOM      2  O   UNL     1     -10.495  -6.146  15.622  0.00  0.00    -0.276 OA
ATOM      7  N   UNL     1     -12.498  -6.371  14.467  0.00  0.00    -0.301 N 
ATOM     18  C   UNL     1     -11.596  -6.685  15.482  0.00  0.00    +0.216 C 
ATOM     20  C   UNL     1     -12.158  -5.340  13.482  0.00  0.00    +0.108 C 
ATOM     21  C   UNL     1     -13.794  -7.026  14.249  0.00  0.00    +0.108 C 
ATOM     22  C   UNL     1     -13.251  -4.278  13.406  0.00  0.00    +0.019 C 
ATOM     23  C   UNL     1     -14.919  -5.993  14.186  0.00  0.00    +0.019 C 
ATOM     24  C   UNL     1     -14.620  -4.907  13.153  0.00  0.00    +0.003 C 
ENDBRANCH  17  18
ENDBRANCH  15  17
ENDBRANCH  10  15
TORSDOF 5
ENDMDL
MODEL 8
REMARK VINA RESULT:      -6.5     27.005     29.113
REMARK  Name = 26762949
REMARK  5 active torsions:
REMARK  status: ('A' for Active; 'I' for Inactive)
REMARK    1  A    between atoms: N_6  and  C_11
REMARK    2  A    between atoms: N_8  and  C_25
REMARK    3  A    between atoms: C_10  and  C_15
REMARK    4  A    between atoms: C_15  and  C_17
REMARK    5  A    between atoms: C_17  and  C_18
REMARK                            x       y       z     vdW  Elec       q    Type
REMARK                         _______ _______ _______ _____ _____    ______ ____
ROOT
ATOM      1  O   UNL     1      22.267  -7.363  -3.003  0.00  0.00    -0.274 OA
ATOM      4  N   UNL     1      20.586  -5.502  -0.656  0.00  0.00    -0.285 NA
ATOM      5  N   UNL     1      21.571  -5.163  -3.144  0.00  0.00    -0.313 N 
ATOM      9  C   UNL     1      21.873  -6.128  -0.954  0.00  0.00    +0.145 C 
ATOM     10  C   UNL     1      20.471  -4.129  -1.156  0.00  0.00    +0.075 C 
ATOM     11  C   UNL     1      20.825  -7.117   0.997  0.00  0.00    +0.090 C 
ATOM     12  C   UNL     1      21.835  -7.404  -0.123  0.00  0.00    +0.052 C 
ATOM     13  C   UNL     1      20.391  -5.667   0.781  0.00  0.00    +0.107 C 
ATOM     14  C   UNL     1      21.315  -3.922  -2.435  0.00  0.00    +0.123 C 
ATOM     16  C   UNL     1      21.921  -6.319  -2.458  0.00  0.00    +0.230 C 
ATOM     31  H   UNL     1      21.597  -5.162  -4.159  0.00  0.00    +0.149 HD
ENDROOT
BRANCH  11   6
ATOM      3  O   UNL     1      20.203  -9.207   2.857  0.00  0.00    -0.253 OA
ATOM      6  N   UNL     1      19.702  -8.024   0.934  0.00  0.00    -0.295 N 
ATOM      8  N   UNL     1      18.314  -9.740   1.569  0.00  0.00    -0.269 N 
ATOM     19  C   UNL     1      19.469  -9.021   1.888  0.00  0.00    +0.304 C 
ATOM     32  H   UNL     1      19.003  -7.878   0.213  0.00  0.00    +0.151 HD
ATOM     33  H   UNL     1      17.820  -9.458   0.726  0.00  0.00    +0.156 HD
BRANCH   8  25
ATOM     25  C   UNL     1      17.741 -10.822   2.278  0.00  0.00    +0.035 A 
ATOM     26  C   UNL     1      16.516 -10.661   2.925  0.00  0.00    +0.023 A 
ATOM     27  C   UNL     1      18.399 -12.051   2.329  0.00  0.00    +0.023 A 
ATOM     28  C   UNL     1      15.950 -11.728   3.624  0.00  0.00    +0.002 A 
ATOM     29  C   UNL     1      17.834 -13.118   3.026  0.00  0.00    +0.002 A 
ATOM     30  C   UNL     1      16.609 -12.955   3.675  0.00  0.00    +0.000 A 
ENDBRANCH   8  25
ENDBRANCH  11   6
BRANCH  10  15
ATOM     15  C   UNL     1      18.997  -3.834  -1.441  0.00  0.00    +0.029 C 
BRANCH  15  17
ATOM     17  C   UNL     1      18.286  -5.010  -2.094  0.00  0.00    +0.097 C 
BRANCH  17  18
ATOM      2  O   UNL     1      16.618  -3.407  -2.602  0.00  0.00    -0.276 OA
ATOM      7  N   UNL     1      16.292  -5.545  -3.449  0.00  0.00    -0.301 N 
ATOM     18  C   UNL     1      16.993  -4.575  -2.735  0.00  0.00    +0.216 C 
ATOM     20  C   UNL     1      15.024  -5.200  -4.099  0.00  0.00    +0.108 C 
ATOM     21  C   UNL     1      16.734  -6.929  -3.662  0.00  0.00    +0.108 C 
ATOM     22  C   UNL     1      13.914  -6.154  -3.668  0.00  0.00    +0.019 C 
ATOM     23  C   UNL     1      15.654  -7.917  -3.224  0.00  0.00    +0.019 C 
ATOM     24  C   UNL     1      14.315  -7.610  -3.895  0.00  0.00    +0.003 C 
ENDBRANCH  17  18
ENDBRANCH  15  17
ENDBRANCH  10  15
TORSDOF 5
ENDMDL
MODEL 9
REMARK VINA RESULT:      -6.5     28.127     30.218
REMARK  Name = 26762949
REMARK  5 active torsions:
REMARK  status: ('A' for Active; 'I' for Inactive)
REMARK    1  A    between atoms: N_6  and  C_11
REMARK    2  A    between atoms: N_8  and  C_25
REMARK    3  A    between atoms: C_10  and  C_15
REMARK    4  A    between atoms: C_15  and  C_17
REMARK    5  A    between atoms: C_17  and  C_18
REMARK                            x       y       z     vdW  Elec       q    Type
REMARK                         _______ _______ _______ _____ _____    ______ ____
ROOT
ATOM      1  O   UNL     1      -8.718 -13.684  17.453  0.00  0.00    -0.274 OA
ATOM      4  N   UNL     1      -6.653 -10.959  17.113  0.00  0.00    -0.285 NA
ATOM      5  N   UNL     1      -7.124 -12.896  18.930  0.00  0.00    -0.313 N 
ATOM      9  C   UNL     1      -8.045 -11.358  17.317  0.00  0.00    +0.145 C 
ATOM     10  C   UNL     1      -5.900 -10.796  18.360  0.00  0.00    +0.075 C 
ATOM     11  C   UNL     1      -7.744 -10.197  15.208  0.00  0.00    +0.090 C 
ATOM     12  C   UNL     1      -8.654 -11.202  15.929  0.00  0.00    +0.052 C 
ATOM     13  C   UNL     1      -6.702  -9.784  16.249  0.00  0.00    +0.107 C 
ATOM     14  C   UNL     1      -6.430 -11.738  19.465  0.00  0.00    +0.123 C 
ATOM     16  C   UNL     1      -8.011 -12.770  17.870  0.00  0.00    +0.230 C 
ATOM     31  H   UNL     1      -7.039 -13.791  19.402  0.00  0.00    +0.149 HD
ENDROOT
BRANCH  11   6
ATOM      3  O   UNL     1      -7.031  -8.859  12.776  0.00  0.00    -0.253 OA
ATOM      6  N   UNL     1      -7.128 -10.790  14.044  0.00  0.00    -0.295 N 
ATOM      8  N   UNL     1      -6.225 -10.897  11.934  0.00  0.00    -0.269 N 
ATOM     19  C   UNL     1      -6.810 -10.063  12.891  0.00  0.00    +0.304 C 
ATOM     32  H   UNL     1      -6.834 -11.761  14.094  0.00  0.00    +0.151 HD
ATOM     33  H   UNL     1      -6.115 -11.875  12.189  0.00  0.00    +0.156 HD
BRANCH   8  25
ATOM     25  C   UNL     1      -5.765 -10.548  10.643  0.00  0.00    +0.035 A 
ATOM     26  C   UNL     1      -4.637  -9.741  10.499  0.00  0.00    +0.023 A 
ATOM     27  C   UNL     1      -6.439 -11.011   9.512  0.00  0.00    +0.023 A 
ATOM     28  C   UNL     1      -4.183  -9.397   9.226  0.00  0.00    +0.002 A 
ATOM     29  C   UNL     1      -5.985 -10.668   8.239  0.00  0.00    +0.002 A 
ATOM     30  C   UNL     1      -4.857  -9.860   8.096  0.00  0.00    +0.000 A 
ENDBRANCH   8  25
ENDBRANCH  11   6
BRANCH  10  15
ATOM     15  C   UNL     1      -4.423 -11.084  18.080  0.00  0.00    +0.029 C 
BRANCH  15  17
ATOM     17  C   UNL     1      -4.226 -11.972  16.860  0.00  0.00    +0.097 C 
BRANCH  17  18
ATOM      2  O   UNL     1      -2.582 -10.373  16.268  0.00  0.00    -0.276 OA
ATOM      7  N   UNL     1      -2.837 -12.178  14.829  0.00  0.00    -0.301 N 
ATOM     18  C   UNL     1      -3.141 -11.430  15.965  0.00  0.00    +0.216 C 
ATOM     20  C   UNL     1      -1.795 -11.716  13.908  0.00  0.00    +0.108 C 
ATOM     21  C   UNL     1      -3.454 -13.461  14.466  0.00  0.00    +0.108 C 
ATOM     22  C   UNL     1      -2.328 -11.631  12.480  0.00  0.00    +0.019 C 
ATOM     23  C   UNL     1      -4.017 -13.409  13.047  0.00  0.00    +0.019 C 
ATOM     24  C   UNL     1      -2.958 -12.953  12.044  0.00  0.00    +0.003 C 
ENDBRANCH  17  18
ENDBRANCH  15  17
ENDBRANCH  10  15
TORSDOF 5
ENDMDL
MODEL 10
REMARK VINA RESULT:      -6.3     16.518     20.601
REMARK  Name = 26762949
REMARK  5 active torsions:
REMARK  status: ('A' for Active; 'I' for Inactive)
REMARK    1  A    between atoms: N_6  and  C_11
REMARK    2  A    between atoms: N_8  and  C_25
REMARK    3  A    between atoms: C_10  and  C_15
REMARK    4  A    between atoms: C_15  and  C_17
REMARK    5  A    between atoms: C_17  and  C_18
REMARK                            x       y       z     vdW  Elec       q    Type
REMARK                         _______ _______ _______ _____ _____    ______ ____
ROOT
ATOM      1  O   UNL     1      18.331   7.921   1.587  0.00  0.00    -0.274 OA
ATOM      4  N   UNL     1      15.376   6.865   0.187  0.00  0.00    -0.285 NA
ATOM      5  N   UNL     1      18.015   6.693  -0.346  0.00  0.00    -0.313 N 
ATOM      9  C   UNL     1      16.189   8.050   0.456  0.00  0.00    +0.145 C 
ATOM     10  C   UNL     1      15.680   6.223  -1.095  0.00  0.00    +0.075 C 
ATOM     11  C   UNL     1      14.077   8.124   1.645  0.00  0.00    +0.090 C 
ATOM     12  C   UNL     1      15.515   8.660   1.678  0.00  0.00    +0.052 C 
ATOM     13  C   UNL     1      13.992   7.288   0.367  0.00  0.00    +0.107 C 
ATOM     14  C   UNL     1      17.161   6.426  -1.490  0.00  0.00    +0.123 C 
ATOM     16  C   UNL     1      17.610   7.560   0.660  0.00  0.00    +0.230 C 
ATOM     31  H   UNL     1      18.960   6.323  -0.332  0.00  0.00    +0.149 HD
ENDROOT
BRANCH  11   6
ATOM      3  O   UNL     1      11.612   8.067   3.106  0.00  0.00    -0.253 OA
ATOM      6  N   UNL     1      13.786   7.333   2.818  0.00  0.00    -0.295 N 
ATOM      8  N   UNL     1      12.560   6.497   4.572  0.00  0.00    -0.269 N 
ATOM     19  C   UNL     1      12.549   7.362   3.475  0.00  0.00    +0.304 C 
ATOM     32  H   UNL     1      14.478   6.661   3.132  0.00  0.00    +0.151 HD
ATOM     33  H   UNL     1      13.423   5.986   4.741  0.00  0.00    +0.156 HD
BRANCH   8  25
ATOM     25  C   UNL     1      11.511   6.242   5.487  0.00  0.00    +0.035 A 
ATOM     26  C   UNL     1      10.405   5.492   5.088  0.00  0.00    +0.023 A 
ATOM     27  C   UNL     1      11.583   6.739   6.788  0.00  0.00    +0.023 A 
ATOM     28  C   UNL     1       9.371   5.240   5.989  0.00  0.00    +0.002 A 
ATOM     29  C   UNL     1      10.550   6.487   7.690  0.00  0.00    +0.002 A 
ATOM     30  C   UNL     1       9.443   5.738   7.290  0.00  0.00    +0.000 A 
ENDBRANCH   8  25
ENDBRANCH  11   6
BRANCH  10  15
ATOM     15  C   UNL     1      15.361   4.730  -0.982  0.00  0.00    +0.029 C 
BRANCH  15  17
ATOM     17  C   UNL     1      14.378   4.265  -2.045  0.00  0.00    +0.097 C 
BRANCH  17  18
ATOM      2  O   UNL     1      12.435   5.571  -2.412  0.00  0.00    -0.276 OA
ATOM      7  N   UNL     1      12.367   4.092  -0.621  0.00  0.00    -0.301 N 
ATOM     18  C   UNL     1      12.974   4.706  -1.716  0.00  0.00    +0.216 C 
ATOM     20  C   UNL     1      11.004   4.468  -0.237  0.00  0.00    +0.108 C 
ATOM     21  C   UNL     1      12.966   3.029   0.197  0.00  0.00    +0.108 C 
ATOM     22  C   UNL     1      10.945   4.873   1.233  0.00  0.00    +0.019 C 
ATOM     23  C   UNL     1      12.942   3.407   1.677  0.00  0.00    +0.019 C 
ATOM     24  C   UNL     1      11.533   3.786   2.132  0.00  0.00    +0.003 C 
ENDBRANCH  17  18
ENDBRANCH  15  17
ENDBRANCH  10  15
TORSDOF 5
ENDMDL
