MODEL 1
REMARK VINA RESULT:      -7.1      0.000      0.000
REMARK  Name = 45361411
REMARK  14 active torsions:
REMARK  status: ('A' for Active; 'I' for Inactive)
REMARK    1  A    between atoms: O_1  and  C_9
REMARK    2  A    between atoms: N_4  and  C_13
REMARK    3  A    between atoms: N_5  and  C_24
REMARK    4  A    between atoms: C_6  and  C_16
REMARK    5  A    between atoms: C_8  and  C_18
REMARK    6  A    between atoms: C_12  and  C_17
REMARK    7  A    between atoms: C_17  and  C_19
REMARK    8  A    between atoms: C_17  and  C_20
REMARK    9  A    between atoms: C_21  and  C_22
REMARK   10  A    between atoms: C_22  and  C_23
REMARK   11  A    between atoms: C_23  and  C_25
REMARK   12  A    between atoms: C_23  and  C_26
REMARK   13  A    between atoms: C_23  and  C_27
REMARK   14  A    between atoms: C_24  and  C_28
REMARK                            x       y       z     vdW  Elec       q    Type
REMARK                         _______ _______ _______ _____ _____    ______ ____
ROOT
ATOM      6  C   UNL     1     -17.956   4.829  22.459  0.00  0.00    -0.027 C 
ATOM      7  C   UNL     1     -16.501   4.641  23.005  0.00  0.00    +0.028 C 
ATOM      8  C   UNL     1     -15.442   5.135  21.955  0.00  0.00    +0.012 C 
ATOM      9  C   UNL     1     -16.285   3.198  23.545  0.00  0.00    +0.122 C 
ATOM     10  C   UNL     1     -18.974   4.441  23.556  0.00  0.00    +0.007 C 
ATOM     11  C   UNL     1     -18.177   6.322  22.120  0.00  0.00    +0.009 C 
ATOM     12  C   UNL     1     -17.368   2.777  24.566  0.00  0.00    +0.029 C 
ATOM     13  C   UNL     1     -15.720   6.613  21.565  0.00  0.00    +0.076 C 
ATOM     14  C   UNL     1     -18.790   3.016  24.059  0.00  0.00    +0.007 C 
ATOM     15  C   UNL     1     -17.162   6.866  21.125  0.00  0.00    +0.023 C 
ATOM     16  C   UNL     1     -18.233   3.973  21.197  0.00  0.00    +0.011 C 
ATOM     18  C   UNL     1     -13.988   5.004  22.440  0.00  0.00    +0.010 C 
ENDROOT
BRANCH  13   4
ATOM      3  O   UNL     1     -14.119   9.027  21.536  0.00  0.00    -0.276 OA
ATOM      4  N   UNL     1     -14.833   7.066  20.514  0.00  0.00    -0.312 N 
ATOM     21  C   UNL     1     -14.106   8.240  20.591  0.00  0.00    +0.214 C 
ATOM     34  H   UNL     1     -14.779   6.504  19.670  0.00  0.00    +0.149 HD
BRANCH  21  22
ATOM     22  C   UNL     1     -13.258   8.494  19.356  0.00  0.00    +0.102 C 
BRANCH  22  23
ATOM     23  C   UNL     1     -11.754   8.171  19.526  0.00  0.00    -0.029 C 
ATOM     25  C   UNL     1     -11.520   7.164  20.664  0.00  0.00    +0.011 C 
ATOM     26  C   UNL     1     -11.022   9.481  19.877  0.00  0.00    +0.011 C 
ATOM     27  C   UNL     1     -11.156   7.614  18.224  0.00  0.00    +0.011 C 
ENDBRANCH  22  23
ENDBRANCH  21  22
ENDBRANCH  13   4
BRANCH   9   1
ATOM      1  O   UNL     1     -15.032   3.126  24.226  0.00  0.00    -0.391 OA
ATOM     35  H   UNL     1     -14.421   2.600  23.683  0.00  0.00    +0.210 HD
ENDBRANCH   9   1
BRANCH  12  17
ATOM     17  C   UNL     1     -17.213   1.310  24.987  0.00  0.00    +0.077 C 
ATOM     19  C   UNL     1     -18.139   0.426  24.158  0.00  0.00    +0.017 C 
BRANCH  17  20
ATOM      2  O   UNL     1     -18.009   0.159  26.963  0.00  0.00    -0.276 OA
ATOM      5  N   UNL     1     -17.107   2.282  27.204  0.00  0.00    -0.311 N 
ATOM     20  C   UNL     1     -17.494   1.164  26.479  0.00  0.00    +0.216 C 
ATOM     36  H   UNL     1     -16.640   3.053  26.737  0.00  0.00    +0.149 HD
BRANCH   5  24
ATOM     24  C   UNL     1     -17.274   2.381  28.635  0.00  0.00    +0.139 C 
BRANCH  24  28
ATOM     28  C   UNL     1     -16.043   1.945  29.377  0.00  0.00    -0.030 A 
ATOM     29  C   UNL     1     -15.933   0.633  29.837  0.00  0.00    +0.005 A 
ATOM     30  C   UNL     1     -15.009   2.852  29.606  0.00  0.00    +0.005 A 
ATOM     31  C   UNL     1     -14.790   0.228  30.525  0.00  0.00    +0.000 A 
ATOM     32  C   UNL     1     -13.865   2.448  30.294  0.00  0.00    +0.000 A 
ATOM     33  C   UNL     1     -13.757   1.136  30.755  0.00  0.00    +0.000 A 
ENDBRANCH  24  28
ENDBRANCH   5  24
ENDBRANCH  17  20
ENDBRANCH  12  17
TORSDOF 8
ENDMDL
MODEL 2
REMARK VINA RESULT:      -6.9      1.782      2.817
REMARK  Name = 45361411
REMARK  14 active torsions:
REMARK  status: ('A' for Active; 'I' for Inactive)
REMARK    1  A    between atoms: O_1  and  C_9
REMARK    2  A    between atoms: N_4  and  C_13
REMARK    3  A    between atoms: N_5  and  C_24
REMARK    4  A    between atoms: C_6  and  C_16
REMARK    5  A    between atoms: C_8  and  C_18
REMARK    6  A    between atoms: C_12  and  C_17
REMARK    7  A    between atoms: C_17  and  C_19
REMARK    8  A    between atoms: C_17  and  C_20
REMARK    9  A    between atoms: C_21  and  C_22
REMARK   10  A    between atoms: C_22  and  C_23
REMARK   11  A    between atoms: C_23  and  C_25
REMARK   12  A    between atoms: C_23  and  C_26
REMARK   13  A    between atoms: C_23  and  C_27
REMARK   14  A    between atoms: C_24  and  C_28
REMARK                            x       y       z     vdW  Elec       q    Type
REMARK                         _______ _______ _______ _____ _____    ______ ____
ROOT
ATOM      6  C   UNL     1     -15.809   7.083  22.114  0.00  0.00    -0.027 C 
ATOM      7  C   UNL     1     -14.446   6.383  22.434  0.00  0.00    +0.028 C 
ATOM      8  C   UNL     1     -13.430   6.571  21.251  0.00  0.00    +0.012 C 
ATOM      9  C   UNL     1     -14.662   4.915  22.903  0.00  0.00    +0.122 C 
ATOM     10  C   UNL     1     -16.744   6.977  23.342  0.00  0.00    +0.007 C 
ATOM     11  C   UNL     1     -15.553   8.584  21.847  0.00  0.00    +0.009 C 
ATOM     12  C   UNL     1     -15.679   4.805  24.064  0.00  0.00    +0.029 C 
ATOM     13  C   UNL     1     -13.239   8.081  20.941  0.00  0.00    +0.076 C 
ATOM     14  C   UNL     1     -16.990   5.539  23.779  0.00  0.00    +0.007 C 
ATOM     15  C   UNL     1     -14.554   8.830  20.725  0.00  0.00    +0.023 C 
ATOM     16  C   UNL     1     -16.523   6.460  20.889  0.00  0.00    +0.011 C 
ATOM     18  C   UNL     1     -12.056   5.930  21.511  0.00  0.00    +0.010 C 
ENDROOT
BRANCH  13   4
ATOM      3  O   UNL     1     -11.468  10.316  20.430  0.00  0.00    -0.276 OA
ATOM      4  N   UNL     1     -12.398   8.288  19.780  0.00  0.00    -0.312 N 
ATOM     21  C   UNL     1     -11.581   9.394  19.625  0.00  0.00    +0.214 C 
ATOM     34  H   UNL     1     -12.447   7.599  19.035  0.00  0.00    +0.149 HD
BRANCH  21  22
ATOM     22  C   UNL     1     -10.807   9.379  18.317  0.00  0.00    +0.102 C 
BRANCH  22  23
ATOM     23  C   UNL     1     -11.624   9.817  17.077  0.00  0.00    -0.029 C 
ATOM     25  C   UNL     1     -12.708   8.785  16.725  0.00  0.00    +0.011 C 
ATOM     26  C   UNL     1     -10.656   9.933  15.884  0.00  0.00    +0.011 C 
ATOM     27  C   UNL     1     -12.283  11.187  17.304  0.00  0.00    +0.011 C 
ENDBRANCH  22  23
ENDBRANCH  21  22
ENDBRANCH  13   4
BRANCH   9   1
ATOM      1  O   UNL     1     -13.429   4.383  23.389  0.00  0.00    -0.391 OA
ATOM     35  H   UNL     1     -13.156   4.907  24.161  0.00  0.00    +0.210 HD
ENDBRANCH   9   1
BRANCH  12  17
ATOM     17  C   UNL     1     -15.976   3.344  24.423  0.00  0.00    +0.077 C 
ATOM     19  C   UNL     1     -16.837   2.703  23.339  0.00  0.00    +0.017 C 
BRANCH  17  20
ATOM      2  O   UNL     1     -17.823   2.915  25.930  0.00  0.00    -0.276 OA
ATOM      5  N   UNL     1     -15.811   3.650  26.821  0.00  0.00    -0.311 N 
ATOM     20  C   UNL     1     -16.656   3.272  25.787  0.00  0.00    +0.216 C 
ATOM     36  H   UNL     1     -14.843   3.883  26.626  0.00  0.00    +0.149 HD
BRANCH   5  24
ATOM     24  C   UNL     1     -16.229   3.666  28.204  0.00  0.00    +0.139 C 
BRANCH  24  28
ATOM     28  C   UNL     1     -15.450   2.690  29.038  0.00  0.00    -0.030 A 
ATOM     29  C   UNL     1     -14.402   3.139  29.841  0.00  0.00    +0.005 A 
ATOM     30  C   UNL     1     -15.775   1.334  29.010  0.00  0.00    +0.005 A 
ATOM     31  C   UNL     1     -13.679   2.233  30.616  0.00  0.00    +0.000 A 
ATOM     32  C   UNL     1     -15.052   0.427  29.785  0.00  0.00    +0.000 A 
ATOM     33  C   UNL     1     -14.003   0.877  30.587  0.00  0.00    +0.000 A 
ENDBRANCH  24  28
ENDBRANCH   5  24
ENDBRANCH  17  20
ENDBRANCH  12  17
TORSDOF 8
ENDMDL
MODEL 3
REMARK VINA RESULT:      -6.8     30.903     36.577
REMARK  Name = 45361411
REMARK  14 active torsions:
REMARK  status: ('A' for Active; 'I' for Inactive)
REMARK    1  A    between atoms: O_1  and  C_9
REMARK    2  A    between atoms: N_4  and  C_13
REMARK    3  A    between atoms: N_5  and  C_24
REMARK    4  A    between atoms: C_6  and  C_16
REMARK    5  A    between atoms: C_8  and  C_18
REMARK    6  A    between atoms: C_12  and  C_17
REMARK    7  A    between atoms: C_17  and  C_19
REMARK    8  A    between atoms: C_17  and  C_20
REMARK    9  A    between atoms: C_21  and  C_22
REMARK   10  A    between atoms: C_22  and  C_23
REMARK   11  A    between atoms: C_23  and  C_25
REMARK   12  A    between atoms: C_23  and  C_26
REMARK   13  A    between atoms: C_23  and  C_27
REMARK   14  A    between atoms: C_24  and  C_28
REMARK                            x       y       z     vdW  Elec       q    Type
REMARK                         _______ _______ _______ _____ _____    ______ ____
ROOT
ATOM      6  C   UNL     1      13.947   4.972   0.435  0.00  0.00    -0.027 C 
ATOM      7  C   UNL     1      12.390   4.818   0.487  0.00  0.00    +0.028 C 
ATOM      8  C   UNL     1      11.886   4.736   1.972  0.00  0.00    +0.012 C 
ATOM      9  C   UNL     1      11.905   3.672  -0.449  0.00  0.00    +0.122 C 
ATOM     10  C   UNL     1      14.398   5.164  -1.032  0.00  0.00    +0.007 C 
ATOM     11  C   UNL     1      14.354   6.240   1.221  0.00  0.00    +0.009 C 
ATOM     12  C   UNL     1      12.445   3.814  -1.891  0.00  0.00    +0.029 C 
ATOM     13  C   UNL     1      12.365   5.978   2.773  0.00  0.00    +0.076 C 
ATOM     14  C   UNL     1      13.959   4.025  -1.942  0.00  0.00    +0.007 C 
ATOM     15  C   UNL     1      13.869   6.229   2.664  0.00  0.00    +0.023 C 
ATOM     16  C   UNL     1      14.685   3.745   1.026  0.00  0.00    +0.011 C 
ATOM     18  C   UNL     1      10.358   4.611   2.098  0.00  0.00    +0.010 C 
ENDROOT
BRANCH  13   4
ATOM      3  O   UNL     1      10.982   7.950   4.382  0.00  0.00    -0.276 OA
ATOM      4  N   UNL     1      12.016   5.880   4.175  0.00  0.00    -0.312 N 
ATOM     21  C   UNL     1      11.352   6.880   4.861  0.00  0.00    +0.214 C 
ATOM     34  H   UNL     1      12.312   5.047   4.675  0.00  0.00    +0.149 HD
BRANCH  21  22
ATOM     22  C   UNL     1      11.112   6.537   6.323  0.00  0.00    +0.102 C 
BRANCH  22  23
ATOM     23  C   UNL     1       9.663   6.109   6.657  0.00  0.00    -0.029 C 
ATOM     25  C   UNL     1       8.840   7.287   7.202  0.00  0.00    +0.011 C 
ATOM     26  C   UNL     1       9.726   5.015   7.740  0.00  0.00    +0.011 C 
ATOM     27  C   UNL     1       8.959   5.528   5.420  0.00  0.00    +0.011 C 
ENDBRANCH  22  23
ENDBRANCH  21  22
ENDBRANCH  13   4
BRANCH   9   1
ATOM      1  O   UNL     1      10.480   3.703  -0.542  0.00  0.00    -0.391 OA
ATOM     35  H   UNL     1      10.181   4.597  -0.303  0.00  0.00    +0.210 HD
ENDBRANCH   9   1
BRANCH  12  17
ATOM     17  C   UNL     1      12.066   2.610  -2.761  0.00  0.00    +0.077 C 
ATOM     19  C   UNL     1      12.887   2.611  -4.046  0.00  0.00    +0.017 C 
BRANCH  17  20
ATOM      2  O   UNL     1       9.828   1.684  -2.812  0.00  0.00    -0.276 OA
ATOM      5  N   UNL     1      10.160   3.829  -3.628  0.00  0.00    -0.311 N 
ATOM     20  C   UNL     1      10.569   2.632  -3.058  0.00  0.00    +0.216 C 
ATOM     36  H   UNL     1      10.825   4.586  -3.753  0.00  0.00    +0.149 HD
BRANCH   5  24
ATOM     24  C   UNL     1       8.788   4.087  -4.001  0.00  0.00    +0.139 C 
BRANCH  24  28
ATOM     28  C   UNL     1       8.317   5.429  -3.519  0.00  0.00    -0.030 A 
ATOM     29  C   UNL     1       9.014   6.092  -2.509  0.00  0.00    +0.005 A 
ATOM     30  C   UNL     1       7.183   6.013  -4.082  0.00  0.00    +0.005 A 
ATOM     31  C   UNL     1       8.578   7.338  -2.062  0.00  0.00    +0.000 A 
ATOM     32  C   UNL     1       6.745   7.260  -3.635  0.00  0.00    +0.000 A 
ATOM     33  C   UNL     1       7.442   7.922  -2.624  0.00  0.00    +0.000 A 
ENDBRANCH  24  28
ENDBRANCH   5  24
ENDBRANCH  17  20
ENDBRANCH  12  17
TORSDOF 8
ENDMDL
MODEL 4
REMARK VINA RESULT:      -6.8     18.693     21.908
REMARK  Name = 45361411
REMARK  14 active torsions:
REMARK  status: ('A' for Active; 'I' for Inactive)
REMARK    1  A    between atoms: O_1  and  C_9
REMARK    2  A    between atoms: N_4  and  C_13
REMARK    3  A    between atoms: N_5  and  C_24
REMARK    4  A    between atoms: C_6  and  C_16
REMARK    5  A    between atoms: C_8  and  C_18
REMARK    6  A    between atoms: C_12  and  C_17
REMARK    7  A    between atoms: C_17  and  C_19
REMARK    8  A    between atoms: C_17  and  C_20
REMARK    9  A    between atoms: C_21  and  C_22
REMARK   10  A    between atoms: C_22  and  C_23
REMARK   11  A    between atoms: C_23  and  C_25
REMARK   12  A    between atoms: C_23  and  C_26
REMARK   13  A    between atoms: C_23  and  C_27
REMARK   14  A    between atoms: C_24  and  C_28
REMARK                            x       y       z     vdW  Elec       q    Type
REMARK                         _______ _______ _______ _____ _____    ______ ____
ROOT
ATOM      6  C   UNL     1      -4.836 -11.041  16.807  0.00  0.00    -0.027 C 
ATOM      7  C   UNL     1      -5.571 -10.444  15.560  0.00  0.00    +0.028 C 
ATOM      8  C   UNL     1      -7.128 -10.597  15.704  0.00  0.00    +0.012 C 
ATOM      9  C   UNL     1      -4.965 -10.988  14.235  0.00  0.00    +0.122 C 
ATOM     10  C   UNL     1      -3.317 -10.773  16.688  0.00  0.00    +0.007 C 
ATOM     11  C   UNL     1      -5.341 -10.323  18.081  0.00  0.00    +0.009 C 
ATOM     12  C   UNL     1      -3.430 -10.811  14.167  0.00  0.00    +0.029 C 
ATOM     13  C   UNL     1      -7.614  -9.938  17.025  0.00  0.00    +0.076 C 
ATOM     14  C   UNL     1      -2.714 -11.339  15.410  0.00  0.00    +0.007 C 
ATOM     15  C   UNL     1      -6.850 -10.414  18.260  0.00  0.00    +0.023 C 
ATOM     16  C   UNL     1      -5.063 -12.566  16.957  0.00  0.00    +0.011 C 
ATOM     18  C   UNL     1      -7.916 -10.005  14.523  0.00  0.00    +0.010 C 
ENDROOT
BRANCH  13   4
ATOM      3  O   UNL     1      -9.632  -7.950  17.632  0.00  0.00    -0.276 OA
ATOM      4  N   UNL     1      -9.028 -10.161  17.246  0.00  0.00    -0.312 N 
ATOM     21  C   UNL     1      -9.919  -9.142  17.532  0.00  0.00    +0.214 C 
ATOM     34  H   UNL     1      -9.362 -11.120  17.223  0.00  0.00    +0.149 HD
BRANCH  21  22
ATOM     22  C   UNL     1     -11.342  -9.637  17.730  0.00  0.00    +0.102 C 
BRANCH  22  23
ATOM     23  C   UNL     1     -11.587 -10.382  19.065  0.00  0.00    -0.029 C 
ATOM     25  C   UNL     1     -11.830 -11.882  18.835  0.00  0.00    +0.011 C 
ATOM     26  C   UNL     1     -12.844  -9.780  19.723  0.00  0.00    +0.011 C 
ATOM     27  C   UNL     1     -10.401 -10.201  20.025  0.00  0.00    +0.011 C 
ENDBRANCH  22  23
ENDBRANCH  21  22
ENDBRANCH  13   4
BRANCH   9   1
ATOM      1  O   UNL     1      -5.509 -10.265  13.129  0.00  0.00    -0.391 OA
ATOM     35  H   UNL     1      -6.033 -10.884  12.592  0.00  0.00    +0.210 HD
ENDBRANCH   9   1
BRANCH  12  17
ATOM     17  C   UNL     1      -2.837 -11.470  12.915  0.00  0.00    +0.077 C 
ATOM     19  C   UNL     1      -1.613 -12.300  13.289  0.00  0.00    +0.017 C 
BRANCH  17  20
ATOM      2  O   UNL     1      -1.387  -9.867  11.823  0.00  0.00    -0.276 OA
ATOM      5  N   UNL     1      -3.552 -10.121  11.033  0.00  0.00    -0.311 N 
ATOM     20  C   UNL     1      -2.490 -10.404  11.880  0.00  0.00    +0.216 C 
ATOM     36  H   UNL     1      -4.418 -10.646  11.112  0.00  0.00    +0.149 HD
BRANCH   5  24
ATOM     24  C   UNL     1      -3.467  -9.144   9.973  0.00  0.00    +0.139 C 
BRANCH  24  28
ATOM     28  C   UNL     1      -4.740  -9.059   9.181  0.00  0.00    -0.030 A 
ATOM     29  C   UNL     1      -5.772  -8.223   9.606  0.00  0.00    +0.005 A 
ATOM     30  C   UNL     1      -4.890  -9.817   8.020  0.00  0.00    +0.005 A 
ATOM     31  C   UNL     1      -6.954  -8.144   8.871  0.00  0.00    +0.000 A 
ATOM     32  C   UNL     1      -6.073  -9.738   7.284  0.00  0.00    +0.000 A 
ATOM     33  C   UNL     1      -7.105  -8.902   7.710  0.00  0.00    +0.000 A 
ENDBRANCH  24  28
ENDBRANCH   5  24
ENDBRANCH  17  20
ENDBRANCH  12  17
TORSDOF 8
ENDMDL
MODEL 5
REMARK VINA RESULT:      -6.7     19.203     22.386
REMARK  Name = 45361411
REMARK  14 active torsions:
REMARK  status: ('A' for Active; 'I' for Inactive)
REMARK    1  A    between atoms: O_1  and  C_9
REMARK    2  A    between atoms: N_4  and  C_13
REMARK    3  A    between atoms: N_5  and  C_24
REMARK    4  A    between atoms: C_6  and  C_16
REMARK    5  A    between atoms: C_8  and  C_18
REMARK    6  A    between atoms: C_12  and  C_17
REMARK    7  A    between atoms: C_17  and  C_19
REMARK    8  A    between atoms: C_17  and  C_20
REMARK    9  A    between atoms: C_21  and  C_22
REMARK   10  A    between atoms: C_22  and  C_23
REMARK   11  A    between atoms: C_23  and  C_25
REMARK   12  A    between atoms: C_23  and  C_26
REMARK   13  A    between atoms: C_23  and  C_27
REMARK   14  A    between atoms: C_24  and  C_28
REMARK                            x       y       z     vdW  Elec       q    Type
REMARK                         _______ _______ _______ _____ _____    ______ ____
ROOT
ATOM      6  C   UNL     1      -4.306 -10.349  10.796  0.00  0.00    -0.027 C 
ATOM      7  C   UNL     1      -5.734  -9.840  11.186  0.00  0.00    +0.028 C 
ATOM      8  C   UNL     1      -6.242 -10.548  12.493  0.00  0.00    +0.012 C 
ATOM      9  C   UNL     1      -6.705  -9.901   9.971  0.00  0.00    +0.122 C 
ATOM     10  C   UNL     1      -3.789  -9.553   9.575  0.00  0.00    +0.007 C 
ATOM     11  C   UNL     1      -3.339 -10.084  11.974  0.00  0.00    +0.009 C 
ATOM     12  C   UNL     1      -6.136  -9.191   8.720  0.00  0.00    +0.029 C 
ATOM     13  C   UNL     1      -5.226 -10.339  13.649  0.00  0.00    +0.076 C 
ATOM     14  C   UNL     1      -4.717  -9.643   8.372  0.00  0.00    +0.007 C 
ATOM     15  C   UNL     1      -3.794 -10.725  13.277  0.00  0.00    +0.023 C 
ATOM     16  C   UNL     1      -4.287 -11.859  10.450  0.00  0.00    +0.011 C 
ATOM     18  C   UNL     1      -7.632 -10.073  12.949  0.00  0.00    +0.010 C 
ENDROOT
BRANCH  13   4
ATOM      3  O   UNL     1      -5.987  -9.249  16.222  0.00  0.00    -0.276 OA
ATOM      4  N   UNL     1      -5.606 -11.075  14.837  0.00  0.00    -0.312 N 
ATOM     21  C   UNL     1      -5.955 -10.463  16.027  0.00  0.00    +0.214 C 
ATOM     34  H   UNL     1      -5.575 -12.090  14.791  0.00  0.00    +0.149 HD
BRANCH  21  22
ATOM     22  C   UNL     1      -6.303 -11.455  17.124  0.00  0.00    +0.102 C 
BRANCH  22  23
ATOM     23  C   UNL     1      -5.098 -11.935  17.968  0.00  0.00    -0.029 C 
ATOM     25  C   UNL     1      -3.789 -11.277  17.505  0.00  0.00    +0.011 C 
ATOM     26  C   UNL     1      -4.967 -13.460  17.789  0.00  0.00    +0.011 C 
ATOM     27  C   UNL     1      -5.315 -11.638  19.461  0.00  0.00    +0.011 C 
ENDBRANCH  22  23
ENDBRANCH  21  22
ENDBRANCH  13   4
BRANCH   9   1
ATOM      1  O   UNL     1      -7.924  -9.233  10.300  0.00  0.00    -0.391 OA
ATOM     35  H   UNL     1      -8.420  -9.087   9.477  0.00  0.00    +0.210 HD
ENDBRANCH   9   1
BRANCH  12  17
ATOM     17  C   UNL     1      -7.046  -9.375   7.499  0.00  0.00    +0.077 C 
ATOM     19  C   UNL     1      -6.285 -10.072   6.377  0.00  0.00    +0.017 C 
BRANCH  17  20
ATOM      2  O   UNL     1      -7.823  -7.761   5.869  0.00  0.00    -0.276 OA
ATOM      5  N   UNL     1      -7.776  -7.144   8.104  0.00  0.00    -0.311 N 
ATOM     20  C   UNL     1      -7.588  -8.023   7.046  0.00  0.00    +0.216 C 
ATOM     36  H   UNL     1      -7.607  -7.453   9.056  0.00  0.00    +0.149 HD
BRANCH   5  24
ATOM     24  C   UNL     1      -8.279  -5.802   7.925  0.00  0.00    +0.139 C 
BRANCH  24  28
ATOM     28  C   UNL     1      -9.573  -5.583   8.654  0.00  0.00    -0.030 A 
ATOM     29  C   UNL     1     -10.050  -4.288   8.856  0.00  0.00    +0.005 A 
ATOM     30  C   UNL     1     -10.298  -6.675   9.130  0.00  0.00    +0.005 A 
ATOM     31  C   UNL     1     -11.252  -4.085   9.533  0.00  0.00    +0.000 A 
ATOM     32  C   UNL     1     -11.501  -6.473   9.807  0.00  0.00    +0.000 A 
ATOM     33  C   UNL     1     -11.977  -5.177  10.009  0.00  0.00    +0.000 A 
ENDBRANCH  24  28
ENDBRANCH   5  24
ENDBRANCH  17  20
ENDBRANCH  12  17
TORSDOF 8
ENDMDL
MODEL 6
REMARK VINA RESULT:      -6.6     19.296     21.123
REMARK  Name = 45361411
REMARK  14 active torsions:
REMARK  status: ('A' for Active; 'I' for Inactive)
REMARK    1  A    between atoms: O_1  and  C_9
REMARK    2  A    between atoms: N_4  and  C_13
REMARK    3  A    between atoms: N_5  and  C_24
REMARK    4  A    between atoms: C_6  and  C_16
REMARK    5  A    between atoms: C_8  and  C_18
REMARK    6  A    between atoms: C_12  and  C_17
REMARK    7  A    between atoms: C_17  and  C_19
REMARK    8  A    between atoms: C_17  and  C_20
REMARK    9  A    between atoms: C_21  and  C_22
REMARK   10  A    between atoms: C_22  and  C_23
REMARK   11  A    between atoms: C_23  and  C_25
REMARK   12  A    between atoms: C_23  and  C_26
REMARK   13  A    between atoms: C_23  and  C_27
REMARK   14  A    between atoms: C_24  and  C_28
REMARK                            x       y       z     vdW  Elec       q    Type
REMARK                         _______ _______ _______ _____ _____    ______ ____
ROOT
ATOM      6  C   UNL     1      -3.445 -11.085  11.438  0.00  0.00    -0.027 C 
ATOM      7  C   UNL     1      -4.809 -10.612  12.044  0.00  0.00    +0.028 C 
ATOM      8  C   UNL     1      -5.533  -9.609  11.075  0.00  0.00    +0.012 C 
ATOM      9  C   UNL     1      -4.634 -10.118  13.509  0.00  0.00    +0.122 C 
ATOM     10  C   UNL     1      -2.814 -12.154  12.359  0.00  0.00    +0.007 C 
ATOM     11  C   UNL     1      -3.707 -11.744  10.063  0.00  0.00    +0.009 C 
ATOM     12  C   UNL     1      -3.908 -11.152  14.401  0.00  0.00    +0.029 C 
ATOM     13  C   UNL     1      -5.722 -10.255   9.675  0.00  0.00    +0.076 C 
ATOM     14  C   UNL     1      -2.604 -11.661  13.785  0.00  0.00    +0.007 C 
ATOM     15  C   UNL     1      -4.432 -10.827   9.089  0.00  0.00    +0.023 C 
ATOM     16  C   UNL     1      -2.438  -9.921  11.262  0.00  0.00    +0.011 C 
ATOM     18  C   UNL     1      -6.896  -9.125  11.598  0.00  0.00    +0.010 C 
ENDROOT
BRANCH  13   4
ATOM      3  O   UNL     1      -7.932 -10.707   7.856  0.00  0.00    -0.276 OA
ATOM      4  N   UNL     1      -6.283  -9.318   8.724  0.00  0.00    -0.312 N 
ATOM     21  C   UNL     1      -7.344  -9.627   7.892  0.00  0.00    +0.214 C 
ATOM     34  H   UNL     1      -5.843  -8.405   8.648  0.00  0.00    +0.149 HD
BRANCH  21  22
ATOM     22  C   UNL     1      -7.738  -8.476   6.981  0.00  0.00    +0.102 C 
BRANCH  22  23
ATOM     23  C   UNL     1      -8.686  -7.436   7.627  0.00  0.00    -0.029 C 
ATOM     25  C   UNL     1      -9.452  -8.036   8.816  0.00  0.00    +0.011 C 
ATOM     26  C   UNL     1      -9.708  -6.996   6.561  0.00  0.00    +0.011 C 
ATOM     27  C   UNL     1      -7.909  -6.196   8.097  0.00  0.00    +0.011 C 
ENDBRANCH  22  23
ENDBRANCH  21  22
ENDBRANCH  13   4
BRANCH   9   1
ATOM      1  O   UNL     1      -5.917  -9.902  14.097  0.00  0.00    -0.391 OA
ATOM     35  H   UNL     1      -6.164  -8.973  13.951  0.00  0.00    +0.210 HD
ENDBRANCH   9   1
BRANCH  12  17
ATOM     17  C   UNL     1      -3.628 -10.596  15.803  0.00  0.00    +0.077 C 
ATOM     19  C   UNL     1      -2.156 -10.780  16.157  0.00  0.00    +0.017 C 
BRANCH  17  20
ATOM      2  O   UNL     1      -4.291 -12.388  17.292  0.00  0.00    -0.276 OA
ATOM      5  N   UNL     1      -5.641 -10.508  17.149  0.00  0.00    -0.311 N 
ATOM     20  C   UNL     1      -4.534 -11.278  16.824  0.00  0.00    +0.216 C 
ATOM     36  H   UNL     1      -5.745  -9.577  16.757  0.00  0.00    +0.149 HD
BRANCH   5  24
ATOM     24  C   UNL     1      -6.645 -10.942  18.092  0.00  0.00    +0.139 C 
BRANCH  24  28
ATOM     28  C   UNL     1      -7.934 -10.190  17.929  0.00  0.00    -0.030 A 
ATOM     29  C   UNL     1      -9.071 -10.592  18.630  0.00  0.00    +0.005 A 
ATOM     30  C   UNL     1      -7.995  -9.088  17.076  0.00  0.00    +0.005 A 
ATOM     31  C   UNL     1     -10.268  -9.894  18.478  0.00  0.00    +0.000 A 
ATOM     32  C   UNL     1      -9.192  -8.388  16.924  0.00  0.00    +0.000 A 
ATOM     33  C   UNL     1     -10.329  -8.792  17.624  0.00  0.00    +0.000 A 
ENDBRANCH  24  28
ENDBRANCH   5  24
ENDBRANCH  17  20
ENDBRANCH  12  17
TORSDOF 8
ENDMDL
MODEL 7
REMARK VINA RESULT:      -6.6     30.191     33.149
REMARK  Name = 45361411
REMARK  14 active torsions:
REMARK  status: ('A' for Active; 'I' for Inactive)
REMARK    1  A    between atoms: O_1  and  C_9
REMARK    2  A    between atoms: N_4  and  C_13
REMARK    3  A    between atoms: N_5  and  C_24
REMARK    4  A    between atoms: C_6  and  C_16
REMARK    5  A    between atoms: C_8  and  C_18
REMARK    6  A    between atoms: C_12  and  C_17
REMARK    7  A    between atoms: C_17  and  C_19
REMARK    8  A    between atoms: C_17  and  C_20
REMARK    9  A    between atoms: C_21  and  C_22
REMARK   10  A    between atoms: C_22  and  C_23
REMARK   11  A    between atoms: C_23  and  C_25
REMARK   12  A    between atoms: C_23  and  C_26
REMARK   13  A    between atoms: C_23  and  C_27
REMARK   14  A    between atoms: C_24  and  C_28
REMARK                            x       y       z     vdW  Elec       q    Type
REMARK                         _______ _______ _______ _____ _____    ______ ____
ROOT
ATOM      6  C   UNL     1       9.798   6.617   6.610  0.00  0.00    -0.027 C 
ATOM      7  C   UNL     1      10.331   7.549   5.471  0.00  0.00    +0.028 C 
ATOM      8  C   UNL     1      11.398   6.803   4.592  0.00  0.00    +0.012 C 
ATOM      9  C   UNL     1      10.775   8.930   6.035  0.00  0.00    +0.122 C 
ATOM     10  C   UNL     1       8.671   7.340   7.384  0.00  0.00    +0.007 C 
ATOM     11  C   UNL     1       9.190   5.344   5.975  0.00  0.00    +0.009 C 
ATOM     12  C   UNL     1       9.680   9.601   6.895  0.00  0.00    +0.029 C 
ATOM     13  C   UNL     1      10.800   5.487   4.022  0.00  0.00    +0.076 C 
ATOM     14  C   UNL     1       9.114   8.673   7.970  0.00  0.00    +0.007 C 
ATOM     15  C   UNL     1      10.172   4.592   5.089  0.00  0.00    +0.023 C 
ATOM     16  C   UNL     1      10.907   6.209   7.611  0.00  0.00    +0.011 C 
ATOM     18  C   UNL     1      11.945   7.655   3.434  0.00  0.00    +0.010 C 
ENDROOT
BRANCH  13   4
ATOM      3  O   UNL     1      10.410   3.952   1.596  0.00  0.00    -0.276 OA
ATOM      4  N   UNL     1      11.792   4.716   3.301  0.00  0.00    -0.312 N 
ATOM     21  C   UNL     1      11.509   4.011   2.145  0.00  0.00    +0.214 C 
ATOM     34  H   UNL     1      12.728   4.670   3.694  0.00  0.00    +0.149 HD
BRANCH  21  22
ATOM     22  C   UNL     1      12.718   3.278   1.587  0.00  0.00    +0.102 C 
BRANCH  22  23
ATOM     23  C   UNL     1      13.370   3.951   0.355  0.00  0.00    -0.029 C 
ATOM     25  C   UNL     1      12.912   3.289  -0.954  0.00  0.00    +0.011 C 
ATOM     26  C   UNL     1      14.897   3.789   0.476  0.00  0.00    +0.011 C 
ATOM     27  C   UNL     1      13.042   5.452   0.306  0.00  0.00    +0.011 C 
ENDBRANCH  22  23
ENDBRANCH  21  22
ENDBRANCH  13   4
BRANCH   9   1
ATOM      1  O   UNL     1      11.048   9.821   4.953  0.00  0.00    -0.391 OA
ATOM     35  H   UNL     1      10.616   9.471   4.155  0.00  0.00    +0.210 HD
ENDBRANCH   9   1
BRANCH  12  17
ATOM     17  C   UNL     1      10.182  10.895   7.547  0.00  0.00    +0.077 C 
ATOM     19  C   UNL     1      10.175  10.754   9.066  0.00  0.00    +0.017 C 
BRANCH  17  20
ATOM      2  O   UNL     1       9.364  13.173   7.642  0.00  0.00    -0.276 OA
ATOM      5  N   UNL     1       8.512  11.755   6.016  0.00  0.00    -0.311 N 
ATOM     20  C   UNL     1       9.325  12.073   7.095  0.00  0.00    +0.216 C 
ATOM     36  H   UNL     1       8.575  10.837   5.587  0.00  0.00    +0.149 HD
BRANCH   5  24
ATOM     24  C   UNL     1       7.609  12.706   5.412  0.00  0.00    +0.139 C 
BRANCH  24  28
ATOM     28  C   UNL     1       6.584  12.036   4.543  0.00  0.00    -0.030 A 
ATOM     29  C   UNL     1       6.703  10.679   4.244  0.00  0.00    +0.005 A 
ATOM     30  C   UNL     1       5.513  12.770   4.034  0.00  0.00    +0.005 A 
ATOM     31  C   UNL     1       5.752  10.055   3.437  0.00  0.00    +0.000 A 
ATOM     32  C   UNL     1       4.561  12.147   3.228  0.00  0.00    +0.000 A 
ATOM     33  C   UNL     1       4.681  10.790   2.928  0.00  0.00    +0.000 A 
ENDBRANCH  24  28
ENDBRANCH   5  24
ENDBRANCH  17  20
ENDBRANCH  12  17
TORSDOF 8
ENDMDL
MODEL 8
REMARK VINA RESULT:      -6.5     21.411     23.100
REMARK  Name = 45361411
REMARK  14 active torsions:
REMARK  status: ('A' for Active; 'I' for Inactive)
REMARK    1  A    between atoms: O_1  and  C_9
REMARK    2  A    between atoms: N_4  and  C_13
REMARK    3  A    between atoms: N_5  and  C_24
REMARK    4  A    between atoms: C_6  and  C_16
REMARK    5  A    between atoms: C_8  and  C_18
REMARK    6  A    between atoms: C_12  and  C_17
REMARK    7  A    between atoms: C_17  and  C_19
REMARK    8  A    between atoms: C_17  and  C_20
REMARK    9  A    between atoms: C_21  and  C_22
REMARK   10  A    between atoms: C_22  and  C_23
REMARK   11  A    between atoms: C_23  and  C_25
REMARK   12  A    between atoms: C_23  and  C_26
REMARK   13  A    between atoms: C_23  and  C_27
REMARK   14  A    between atoms: C_24  and  C_28
REMARK                            x       y       z     vdW  Elec       q    Type
REMARK                         _______ _______ _______ _____ _____    ______ ____
ROOT
ATOM      6  C   UNL     1      -5.174 -12.742  10.007  0.00  0.00    -0.027 C 
ATOM      7  C   UNL     1      -4.702 -11.263  10.209  0.00  0.00    +0.028 C 
ATOM      8  C   UNL     1      -4.764 -10.467   8.855  0.00  0.00    +0.012 C 
ATOM      9  C   UNL     1      -3.340 -11.203  10.959  0.00  0.00    +0.122 C 
ATOM     10  C   UNL     1      -5.211 -13.463  11.374  0.00  0.00    +0.007 C 
ATOM     11  C   UNL     1      -6.613 -12.738   9.439  0.00  0.00    +0.009 C 
ATOM     12  C   UNL     1      -3.351 -12.014  12.276  0.00  0.00    +0.029 C 
ATOM     13  C   UNL     1      -6.195 -10.534   8.256  0.00  0.00    +0.076 C 
ATOM     14  C   UNL     1      -3.869 -13.441  12.093  0.00  0.00    +0.007 C 
ATOM     15  C   UNL     1      -6.740 -11.958   8.139  0.00  0.00    +0.023 C 
ATOM     16  C   UNL     1      -4.250 -13.534   9.050  0.00  0.00    +0.011 C 
ATOM     18  C   UNL     1      -4.339  -8.995   8.987  0.00  0.00    +0.010 C 
ENDROOT
BRANCH  13   4
ATOM      3  O   UNL     1      -8.032  -8.469   7.386  0.00  0.00    -0.276 OA
ATOM      4  N   UNL     1      -6.260  -9.909   6.951  0.00  0.00    -0.312 N 
ATOM     21  C   UNL     1      -7.178  -8.926   6.628  0.00  0.00    +0.214 C 
ATOM     34  H   UNL     1      -5.619 -10.243   6.237  0.00  0.00    +0.149 HD
BRANCH  21  22
ATOM     22  C   UNL     1      -7.045  -8.439   5.194  0.00  0.00    +0.102 C 
BRANCH  22  23
ATOM     23  C   UNL     1      -8.324  -8.593   4.338  0.00  0.00    -0.029 C 
ATOM     25  C   UNL     1      -9.018  -9.940   4.599  0.00  0.00    +0.011 C 
ATOM     26  C   UNL     1      -7.915  -8.536   2.853  0.00  0.00    +0.011 C 
ATOM     27  C   UNL     1      -9.315  -7.451   4.613  0.00  0.00    +0.011 C 
ENDBRANCH  22  23
ENDBRANCH  21  22
ENDBRANCH  13   4
BRANCH   9   1
ATOM      1  O   UNL     1      -3.050  -9.851  11.314  0.00  0.00    -0.391 OA
ATOM     35  H   UNL     1      -3.113  -9.307  10.511  0.00  0.00    +0.210 HD
ENDBRANCH   9   1
BRANCH  12  17
ATOM     17  C   UNL     1      -1.966 -12.051  12.932  0.00  0.00    +0.077 C 
ATOM     19  C   UNL     1      -1.629 -13.474  13.366  0.00  0.00    +0.017 C 
BRANCH  17  20
ATOM      2  O   UNL     1      -1.551  -9.919  14.004  0.00  0.00    -0.276 OA
ATOM      5  N   UNL     1      -2.343 -11.675  15.296  0.00  0.00    -0.311 N 
ATOM     20  C   UNL     1      -1.922 -11.085  14.112  0.00  0.00    +0.216 C 
ATOM     36  H   UNL     1      -2.684 -12.631  15.293  0.00  0.00    +0.149 HD
BRANCH   5  24
ATOM     24  C   UNL     1      -2.387 -10.961  16.551  0.00  0.00    +0.139 C 
BRANCH  24  28
ATOM     28  C   UNL     1      -3.772 -10.929  17.132  0.00  0.00    -0.030 A 
ATOM     29  C   UNL     1      -4.050 -11.618  18.312  0.00  0.00    +0.005 A 
ATOM     30  C   UNL     1      -4.780 -10.210  16.490  0.00  0.00    +0.005 A 
ATOM     31  C   UNL     1      -5.335 -11.587  18.852  0.00  0.00    +0.000 A 
ATOM     32  C   UNL     1      -6.066 -10.179  17.029  0.00  0.00    +0.000 A 
ATOM     33  C   UNL     1      -6.344 -10.869  18.209  0.00  0.00    +0.000 A 
ENDBRANCH  24  28
ENDBRANCH   5  24
ENDBRANCH  17  20
ENDBRANCH  12  17
TORSDOF 8
ENDMDL
MODEL 9
REMARK VINA RESULT:      -6.4     31.275     35.787
REMARK  Name = 45361411
REMARK  14 active torsions:
REMARK  status: ('A' for Active; 'I' for Inactive)
REMARK    1  A    between atoms: O_1  and  C_9
REMARK    2  A    between atoms: N_4  and  C_13
REMARK    3  A    between atoms: N_5  and  C_24
REMARK    4  A    between atoms: C_6  and  C_16
REMARK    5  A    between atoms: C_8  and  C_18
REMARK    6  A    between atoms: C_12  and  C_17
REMARK    7  A    between atoms: C_17  and  C_19
REMARK    8  A    between atoms: C_17  and  C_20
REMARK    9  A    between atoms: C_21  and  C_22
REMARK   10  A    between atoms: C_22  and  C_23
REMARK   11  A    between atoms: C_23  and  C_25
REMARK   12  A    between atoms: C_23  and  C_26
REMARK   13  A    between atoms: C_23  and  C_27
REMARK   14  A    between atoms: C_24  and  C_28
REMARK                            x       y       z     vdW  Elec       q    Type
REMARK                         _______ _______ _______ _____ _____    ______ ____
ROOT
ATOM      6  C   UNL     1      19.303   9.946  21.420  0.00  0.00    -0.027 C 
ATOM      7  C   UNL     1      18.570   8.594  21.129  0.00  0.00    +0.028 C 
ATOM      8  C   UNL     1      17.046   8.694  21.496  0.00  0.00    +0.012 C 
ATOM      9  C   UNL     1      19.332   7.393  21.759  0.00  0.00    +0.122 C 
ATOM     10  C   UNL     1      20.771   9.851  20.943  0.00  0.00    +0.007 C 
ATOM     11  C   UNL     1      18.619  11.074  20.612  0.00  0.00    +0.009 C 
ATOM     12  C   UNL     1      20.827   7.362  21.361  0.00  0.00    +0.029 C 
ATOM     13  C   UNL     1      16.386   9.878  20.736  0.00  0.00    +0.076 C 
ATOM     14  C   UNL     1      21.531   8.700  21.588  0.00  0.00    +0.007 C 
ATOM     15  C   UNL     1      17.131  11.202  20.906  0.00  0.00    +0.023 C 
ATOM     16  C   UNL     1      19.291  10.316  22.924  0.00  0.00    +0.011 C 
ATOM     18  C   UNL     1      16.258   7.405  21.208  0.00  0.00    +0.010 C 
ENDROOT
BRANCH  13   4
ATOM      3  O   UNL     1      14.023   9.650  19.076  0.00  0.00    -0.276 OA
ATOM      4  N   UNL     1      15.008  10.072  21.138  0.00  0.00    -0.312 N 
ATOM     21  C   UNL     1      13.941   9.941  20.268  0.00  0.00    +0.214 C 
ATOM     34  H   UNL     1      14.834  10.352  22.099  0.00  0.00    +0.149 HD
BRANCH  21  22
ATOM     22  C   UNL     1      12.600  10.204  20.933  0.00  0.00    +0.102 C 
BRANCH  22  23
ATOM     23  C   UNL     1      11.777   8.933  21.253  0.00  0.00    -0.029 C 
ATOM     25  C   UNL     1      10.915   8.503  20.055  0.00  0.00    +0.011 C 
ATOM     26  C   UNL     1      10.842   9.255  22.436  0.00  0.00    +0.011 C 
ATOM     27  C   UNL     1      12.694   7.768  21.662  0.00  0.00    +0.011 C 
ENDBRANCH  22  23
ENDBRANCH  21  22
ENDBRANCH  13   4
BRANCH   9   1
ATOM      1  O   UNL     1      18.761   6.169  21.295  0.00  0.00    -0.391 OA
ATOM     35  H   UNL     1      19.482   5.530  21.161  0.00  0.00    +0.210 HD
ENDBRANCH   9   1
BRANCH  12  17
ATOM     17  C   UNL     1      21.588   6.251  22.094  0.00  0.00    +0.077 C 
ATOM     19  C   UNL     1      22.772   6.840  22.855  0.00  0.00    +0.017 C 
BRANCH  17  20
ATOM      2  O   UNL     1      21.258   4.413  20.552  0.00  0.00    -0.276 OA
ATOM      5  N   UNL     1      23.413   5.198  20.898  0.00  0.00    -0.311 N 
ATOM     20  C   UNL     1      22.040   5.186  21.100  0.00  0.00    +0.216 C 
ATOM     36  H   UNL     1      23.986   5.903  21.350  0.00  0.00    +0.149 HD
BRANCH   5  24
ATOM     24  C   UNL     1      24.079   4.280  20.002  0.00  0.00    +0.139 C 
BRANCH  24  28
ATOM     28  C   UNL     1      24.644   3.095  20.730  0.00  0.00    -0.030 A 
ATOM     29  C   UNL     1      23.883   1.934  20.870  0.00  0.00    +0.005 A 
ATOM     30  C   UNL     1      25.931   3.153  21.265  0.00  0.00    +0.005 A 
ATOM     31  C   UNL     1      24.408   0.833  21.545  0.00  0.00    +0.000 A 
ATOM     32  C   UNL     1      26.456   2.052  21.940  0.00  0.00    +0.000 A 
ATOM     33  C   UNL     1      25.694   0.892  22.081  0.00  0.00    +0.000 A 
ENDBRANCH  24  28
ENDBRANCH   5  24
ENDBRANCH  17  20
ENDBRANCH  12  17
TORSDOF 8
ENDMDL
MODEL 10
REMARK VINA RESULT:      -6.4     18.143     20.860
REMARK  Name = 45361411
REMARK  14 active torsions:
REMARK  status: ('A' for Active; 'I' for Inactive)
REMARK    1  A    between atoms: O_1  and  C_9
REMARK    2  A    between atoms: N_4  and  C_13
REMARK    3  A    between atoms: N_5  and  C_24
REMARK    4  A    between atoms: C_6  and  C_16
REMARK    5  A    between atoms: C_8  and  C_18
REMARK    6  A    between atoms: C_12  and  C_17
REMARK    7  A    between atoms: C_17  and  C_19
REMARK    8  A    between atoms: C_17  and  C_20
REMARK    9  A    between atoms: C_21  and  C_22
REMARK   10  A    between atoms: C_22  and  C_23
REMARK   11  A    between atoms: C_23  and  C_25
REMARK   12  A    between atoms: C_23  and  C_26
REMARK   13  A    between atoms: C_23  and  C_27
REMARK   14  A    between atoms: C_24  and  C_28
REMARK                            x       y       z     vdW  Elec       q    Type
REMARK                         _______ _______ _______ _____ _____    ______ ____
ROOT
ATOM      6  C   UNL     1      -6.137 -11.447  18.532  0.00  0.00    -0.027 C 
ATOM      7  C   UNL     1      -6.173 -10.470  17.310  0.00  0.00    +0.028 C 
ATOM      8  C   UNL     1      -7.621 -10.384  16.707  0.00  0.00    +0.012 C 
ATOM      9  C   UNL     1      -5.043 -10.800  16.291  0.00  0.00    +0.122 C 
ATOM     10  C   UNL     1      -4.728 -11.423  19.171  0.00  0.00    +0.007 C 
ATOM     11  C   UNL     1      -7.144 -10.957  19.598  0.00  0.00    +0.009 C 
ATOM     12  C   UNL     1      -3.649 -10.877  16.955  0.00  0.00    +0.029 C 
ATOM     13  C   UNL     1      -8.637  -9.964  17.805  0.00  0.00    +0.076 C 
ATOM     14  C   UNL     1      -3.624 -11.784  18.187  0.00  0.00    +0.007 C 
ATOM     15  C   UNL     1      -8.563 -10.827  19.064  0.00  0.00    +0.023 C 
ATOM     16  C   UNL     1      -6.480 -12.905  18.138  0.00  0.00    +0.011 C 
ATOM     18  C   UNL     1      -7.735  -9.417  15.516  0.00  0.00    +0.010 C 
ENDROOT
BRANCH  13   4
ATOM      3  O   UNL     1     -10.450  -7.718  17.552  0.00  0.00    -0.276 OA
ATOM      4  N   UNL     1      -9.999  -9.985  17.313  0.00  0.00    -0.312 N 
ATOM     21  C   UNL     1     -10.791  -8.855  17.229  0.00  0.00    +0.214 C 
ATOM     34  H   UNL     1     -10.391 -10.886  17.054  0.00  0.00    +0.149 HD
BRANCH  21  22
ATOM     22  C   UNL     1     -12.181  -9.145  16.688  0.00  0.00    +0.102 C 
BRANCH  22  23
ATOM     23  C   UNL     1     -12.520  -8.430  15.358  0.00  0.00    -0.029 C 
ATOM     25  C   UNL     1     -12.998  -6.989  15.599  0.00  0.00    +0.011 C 
ATOM     26  C   UNL     1     -13.656  -9.212  14.671  0.00  0.00    +0.011 C 
ATOM     27  C   UNL     1     -11.305  -8.410  14.416  0.00  0.00    +0.011 C 
ENDBRANCH  22  23
ENDBRANCH  21  22
ENDBRANCH  13   4
BRANCH   9   1
ATOM      1  O   UNL     1      -4.971  -9.767  15.308  0.00  0.00    -0.391 OA
ATOM     35  H   UNL     1      -4.664 -10.163  14.475  0.00  0.00    +0.210 HD
ENDBRANCH   9   1
BRANCH  12  17
ATOM     17  C   UNL     1      -2.571 -11.331  15.963  0.00  0.00    +0.077 C 
ATOM     19  C   UNL     1      -1.651 -10.164  15.618  0.00  0.00    +0.017 C 
BRANCH  17  20
ATOM      2  O   UNL     1      -4.025 -12.842  14.752  0.00  0.00    -0.276 OA
ATOM      5  N   UNL     1      -2.811 -11.272  13.553  0.00  0.00    -0.311 N 
ATOM     20  C   UNL     1      -3.224 -11.911  14.713  0.00  0.00    +0.216 C 
ATOM     36  H   UNL     1      -2.184 -10.475  13.608  0.00  0.00    +0.149 HD
BRANCH   5  24
ATOM     24  C   UNL     1      -3.289 -11.646  12.242  0.00  0.00    +0.139 C 
BRANCH  24  28
ATOM     28  C   UNL     1      -3.900 -10.484  11.513  0.00  0.00    -0.030 A 
ATOM     29  C   UNL     1      -3.280  -9.972  10.374  0.00  0.00    +0.005 A 
ATOM     30  C   UNL     1      -5.088  -9.918  11.975  0.00  0.00    +0.005 A 
ATOM     31  C   UNL     1      -3.848  -8.893   9.697  0.00  0.00    +0.000 A 
ATOM     32  C   UNL     1      -5.656  -8.839  11.298  0.00  0.00    +0.000 A 
ATOM     33  C   UNL     1      -5.035  -8.326  10.159  0.00  0.00    +0.000 A 
ENDBRANCH  24  28
ENDBRANCH   5  24
ENDBRANCH  17  20
ENDBRANCH  12  17
TORSDOF 8
ENDMDL
