MODEL 1
REMARK VINA RESULT:      -6.4      0.000      0.000
REMARK  Name = 44716365
REMARK  12 active torsions:
REMARK  status: ('A' for Active; 'I' for Inactive)
REMARK    1  A    between atoms: O_4  and  C_20
REMARK    2  A    between atoms: O_4  and  C_25
REMARK    3  A    between atoms: O_6  and  C_28
REMARK    4  A    between atoms: O_6  and  C_36
REMARK    5  A    between atoms: O_7  and  C_31
REMARK    6  A    between atoms: O_7  and  C_38
REMARK    7  A    between atoms: N_9  and  C_23
REMARK    8  A    between atoms: N_11  and  C_30
REMARK    9  A    between atoms: C_13  and  C_19
REMARK   10  A    between atoms: C_14  and  C_20
REMARK   11  A    between atoms: C_22  and  C_24
REMARK   12  A    between atoms: C_34  and  C_39
REMARK                            x       y       z     vdW  Elec       q    Type
REMARK                         _______ _______ _______ _____ _____    ______ ____
ROOT
ATOM      8  N   UNL     1      -6.412 -12.654  18.416  0.00  0.00    -0.296 NA
ATOM     12  C   UNL     1      -7.455 -10.308  17.982  0.00  0.00    +0.002 C 
ATOM     13  C   UNL     1      -7.929 -11.322  16.904  0.00  0.00    +0.055 C 
ATOM     14  C   UNL     1      -5.351 -11.613  18.443  0.00  0.00    +0.095 C 
ATOM     15  C   UNL     1      -5.914 -10.250  17.985  0.00  0.00    +0.026 C 
ATOM     16  C   UNL     1      -7.891 -10.876  19.349  0.00  0.00    +0.019 C 
ATOM     17  C   UNL     1      -7.114 -12.631  17.109  0.00  0.00    +0.094 C 
ATOM     18  C   UNL     1      -7.396 -12.327  19.477  0.00  0.00    +0.085 C 
ENDROOT
BRANCH  13  19
ATOM      9  N   UNL     1      -8.626  -9.773  15.018  0.00  0.00    -0.270 N 
ATOM     10  N   UNL     1      -8.511  -9.547  13.699  0.00  0.00    -0.171 NA
ATOM     19  C   UNL     1      -7.943 -10.872  15.451  0.00  0.00    +0.044 A 
ATOM     21  C   UNL     1      -7.341 -11.402  14.335  0.00  0.00    +0.053 A 
ATOM     22  C   UNL     1      -7.725 -10.545  13.286  0.00  0.00    +0.093 A 
ATOM     23  C   UNL     1      -9.423  -8.875  15.821  0.00  0.00    +0.172 C 
BRANCH  22  24
ATOM     24  C   UNL     1      -7.358 -10.663  11.900  0.00  0.00    +0.006 A 
ATOM     26  C   UNL     1      -7.202  -9.517  11.119  0.00  0.00    +0.059 A 
ATOM     27  C   UNL     1      -7.160 -11.924  11.335  0.00  0.00    +0.014 A 
ATOM     28  C   UNL     1      -6.846  -9.633   9.776  0.00  0.00    +0.162 A 
ATOM     29  C   UNL     1      -6.806 -12.038   9.992  0.00  0.00    +0.050 A 
ATOM     31  C   UNL     1      -6.648 -10.893   9.211  0.00  0.00    +0.162 A 
BRANCH  28   6
ATOM      6  O   UNL     1      -6.697  -8.507   9.022  0.00  0.00    -0.491 OA
ATOM     36  C   UNL     1      -7.889  -7.834   8.620  0.00  0.00    +0.277 C 
ENDBRANCH  28   6
BRANCH  31   7
ATOM      7  O   UNL     1      -6.302 -11.018   7.900  0.00  0.00    -0.491 OA
ATOM     38  C   UNL     1      -5.263 -11.948   7.591  0.00  0.00    +0.277 C 
ENDBRANCH  31   7
ENDBRANCH  22  24
ENDBRANCH  13  19
BRANCH  14  20
ATOM     20  C   UNL     1      -4.115 -12.019  17.638  0.00  0.00    +0.252 C 
BRANCH  20   4
ATOM      4  O   UNL     1      -3.551 -10.855  17.067  0.00  0.00    -0.449 OA
BRANCH   4  25
ATOM      5  O   UNL     1      -1.724 -10.949  15.694  0.00  0.00    -0.226 OA
ATOM     11  N   UNL     1      -3.901 -11.203  14.871  0.00  0.00    -0.251 N 
ATOM     25  C   UNL     1      -2.939 -11.000  15.841  0.00  0.00    +0.405 C 
ATOM     40  H   UNL     1      -4.867 -11.214  15.190  0.00  0.00    +0.158 HD
BRANCH  11  30
ATOM     30  C   UNL     1      -3.711 -11.397  13.484  0.00  0.00    +0.037 A 
ATOM     32  C   UNL     1      -3.586 -10.297  12.636  0.00  0.00    +0.035 A 
ATOM     33  C   UNL     1      -3.647 -12.690  12.964  0.00  0.00    +0.023 A 
ATOM     34  C   UNL     1      -3.397 -10.490  11.267  0.00  0.00    +0.057 A 
ATOM     35  C   UNL     1      -3.458 -12.882  11.595  0.00  0.00    +0.002 A 
ATOM     37  C   UNL     1      -3.333 -11.782  10.747  0.00  0.00    +0.012 A 
BRANCH  34  39
ATOM      1  F   UNL     1      -3.586  -9.609   9.067  0.00  0.00    -0.166 F 
ATOM      2  F   UNL     1      -4.064  -8.261  10.705  0.00  0.00    -0.166 F 
ATOM      3  F   UNL     1      -2.000  -8.798  10.312  0.00  0.00    -0.166 F 
ATOM     39  C   UNL     1      -3.264  -9.313  10.360  0.00  0.00    +0.417 C 
ENDBRANCH  34  39
ENDBRANCH  11  30
ENDBRANCH   4  25
ENDBRANCH  20   4
ENDBRANCH  14  20
TORSDOF 9
ENDMDL
MODEL 2
REMARK VINA RESULT:      -6.4      3.607      6.693
REMARK  Name = 44716365
REMARK  12 active torsions:
REMARK  status: ('A' for Active; 'I' for Inactive)
REMARK    1  A    between atoms: O_4  and  C_20
REMARK    2  A    between atoms: O_4  and  C_25
REMARK    3  A    between atoms: O_6  and  C_28
REMARK    4  A    between atoms: O_6  and  C_36
REMARK    5  A    between atoms: O_7  and  C_31
REMARK    6  A    between atoms: O_7  and  C_38
REMARK    7  A    between atoms: N_9  and  C_23
REMARK    8  A    between atoms: N_11  and  C_30
REMARK    9  A    between atoms: C_13  and  C_19
REMARK   10  A    between atoms: C_14  and  C_20
REMARK   11  A    between atoms: C_22  and  C_24
REMARK   12  A    between atoms: C_34  and  C_39
REMARK                            x       y       z     vdW  Elec       q    Type
REMARK                         _______ _______ _______ _____ _____    ______ ____
ROOT
ATOM      8  N   UNL     1     -12.671  -9.296  16.472  0.00  0.00    -0.296 NA
ATOM     12  C   UNL     1     -10.828  -7.509  16.031  0.00  0.00    +0.002 C 
ATOM     13  C   UNL     1     -10.726  -8.663  14.994  0.00  0.00    +0.055 C 
ATOM     14  C   UNL     1     -11.947  -8.990  17.733  0.00  0.00    +0.095 C 
ATOM     15  C   UNL     1     -10.721  -8.093  17.454  0.00  0.00    +0.026 C 
ATOM     16  C   UNL     1     -12.242  -6.909  15.890  0.00  0.00    +0.019 C 
ATOM     17  C   UNL     1     -11.716  -9.776  15.442  0.00  0.00    +0.094 C 
ATOM     18  C   UNL     1     -13.284  -8.037  15.983  0.00  0.00    +0.085 C 
ENDROOT
BRANCH  13  19
ATOM      9  N   UNL     1      -9.004  -9.674  13.428  0.00  0.00    -0.270 N 
ATOM     10  N   UNL     1      -7.739 -10.119  13.345  0.00  0.00    -0.171 NA
ATOM     19  C   UNL     1      -9.347  -9.214  14.665  0.00  0.00    +0.044 A 
ATOM     21  C   UNL     1      -8.227  -9.371  15.446  0.00  0.00    +0.053 A 
ATOM     22  C   UNL     1      -7.269  -9.932  14.581  0.00  0.00    +0.093 A 
ATOM     23  C   UNL     1      -9.847  -9.720  12.255  0.00  0.00    +0.172 C 
BRANCH  22  24
ATOM     24  C   UNL     1      -5.916 -10.295  14.912  0.00  0.00    +0.006 A 
ATOM     26  C   UNL     1      -5.213 -11.184  14.099  0.00  0.00    +0.059 A 
ATOM     27  C   UNL     1      -5.308  -9.758  16.048  0.00  0.00    +0.014 A 
ATOM     28  C   UNL     1      -3.902 -11.535  14.421  0.00  0.00    +0.162 A 
ATOM     29  C   UNL     1      -3.998 -10.110  16.369  0.00  0.00    +0.050 A 
ATOM     31  C   UNL     1      -3.294 -10.998  15.557  0.00  0.00    +0.162 A 
BRANCH  28   6
ATOM      6  O   UNL     1      -3.225 -12.405  13.620  0.00  0.00    -0.491 OA
ATOM     36  C   UNL     1      -2.620 -11.867  12.445  0.00  0.00    +0.277 C 
ENDBRANCH  28   6
BRANCH  31   7
ATOM      7  O   UNL     1      -2.015 -11.334  15.881  0.00  0.00    -0.491 OA
ATOM     38  C   UNL     1      -1.015 -10.333  15.693  0.00  0.00    +0.277 C 
ENDBRANCH  31   7
ENDBRANCH  22  24
ENDBRANCH  13  19
BRANCH  14  20
ATOM     20  C   UNL     1     -11.564 -10.253  18.508  0.00  0.00    +0.252 C 
BRANCH  20   4
ATOM      4  O   UNL     1     -10.557  -9.917  19.442  0.00  0.00    -0.449 OA
BRANCH   4  25
ATOM      5  O   UNL     1      -9.690 -11.766  20.471  0.00  0.00    -0.226 OA
ATOM     11  N   UNL     1      -8.499 -10.596  18.829  0.00  0.00    -0.251 N 
ATOM     25  C   UNL     1      -9.574 -10.858  19.658  0.00  0.00    +0.405 C 
ATOM     40  H   UNL     1      -8.590  -9.790  18.217  0.00  0.00    +0.158 HD
BRANCH  11  30
ATOM     30  C   UNL     1      -7.285 -11.311  18.728  0.00  0.00    +0.037 A 
ATOM     32  C   UNL     1      -7.141 -12.310  17.766  0.00  0.00    +0.035 A 
ATOM     33  C   UNL     1      -6.229 -11.016  19.592  0.00  0.00    +0.023 A 
ATOM     34  C   UNL     1      -5.941 -13.015  17.666  0.00  0.00    +0.057 A 
ATOM     35  C   UNL     1      -5.029 -11.722  19.491  0.00  0.00    +0.002 A 
ATOM     37  C   UNL     1      -4.885 -12.721  18.529  0.00  0.00    +0.012 A 
BRANCH  34  39
ATOM      1  F   UNL     1      -6.444 -13.794  15.477  0.00  0.00    -0.166 F 
ATOM      2  F   UNL     1      -4.490 -14.314  16.276  0.00  0.00    -0.166 F 
ATOM      3  F   UNL     1      -6.267 -15.300  17.035  0.00  0.00    -0.166 F 
ATOM     39  C   UNL     1      -5.787 -14.084  16.637  0.00  0.00    +0.417 C 
ENDBRANCH  34  39
ENDBRANCH  11  30
ENDBRANCH   4  25
ENDBRANCH  20   4
ENDBRANCH  14  20
TORSDOF 9
ENDMDL
MODEL 3
REMARK VINA RESULT:      -6.2     23.895     27.530
REMARK  Name = 44716365
REMARK  12 active torsions:
REMARK  status: ('A' for Active; 'I' for Inactive)
REMARK    1  A    between atoms: O_4  and  C_20
REMARK    2  A    between atoms: O_4  and  C_25
REMARK    3  A    between atoms: O_6  and  C_28
REMARK    4  A    between atoms: O_6  and  C_36
REMARK    5  A    between atoms: O_7  and  C_31
REMARK    6  A    between atoms: O_7  and  C_38
REMARK    7  A    between atoms: N_9  and  C_23
REMARK    8  A    between atoms: N_11  and  C_30
REMARK    9  A    between atoms: C_13  and  C_19
REMARK   10  A    between atoms: C_14  and  C_20
REMARK   11  A    between atoms: C_22  and  C_24
REMARK   12  A    between atoms: C_34  and  C_39
REMARK                            x       y       z     vdW  Elec       q    Type
REMARK                         _______ _______ _______ _____ _____    ______ ____
ROOT
ATOM      8  N   UNL     1      13.621   5.078  -0.891  0.00  0.00    -0.296 NA
ATOM     12  C   UNL     1      11.614   3.683   0.009  0.00  0.00    +0.002 C 
ATOM     13  C   UNL     1      11.327   5.204   0.151  0.00  0.00    +0.055 C 
ATOM     14  C   UNL     1      14.107   4.038   0.053  0.00  0.00    +0.095 C 
ATOM     15  C   UNL     1      12.920   3.339   0.753  0.00  0.00    +0.026 C 
ATOM     16  C   UNL     1      11.861   3.416  -1.491  0.00  0.00    +0.019 C 
ATOM     17  C   UNL     1      12.637   5.959  -0.214  0.00  0.00    +0.094 C 
ATOM     18  C   UNL     1      12.933   4.390  -2.010  0.00  0.00    +0.085 C 
ENDROOT
BRANCH  13  19
ATOM      9  N   UNL     1       9.959   6.832   1.536  0.00  0.00    -0.270 N 
ATOM     10  N   UNL     1       9.514   7.098   2.776  0.00  0.00    -0.171 NA
ATOM     19  C   UNL     1      10.717   5.701   1.454  0.00  0.00    +0.044 A 
ATOM     21  C   UNL     1      10.773   5.194   2.729  0.00  0.00    +0.053 A 
ATOM     22  C   UNL     1      10.015   6.095   3.501  0.00  0.00    +0.093 A 
ATOM     23  C   UNL     1       9.610   7.724   0.455  0.00  0.00    +0.172 C 
BRANCH  22  24
ATOM     24  C   UNL     1       9.763   6.016   4.916  0.00  0.00    +0.006 A 
ATOM     26  C   UNL     1       9.222   7.111   5.589  0.00  0.00    +0.059 A 
ATOM     27  C   UNL     1      10.061   4.845   5.614  0.00  0.00    +0.014 A 
ATOM     28  C   UNL     1       8.977   7.034   6.960  0.00  0.00    +0.162 A 
ATOM     29  C   UNL     1       9.817   4.769   6.984  0.00  0.00    +0.050 A 
ATOM     31  C   UNL     1       9.275   5.863   7.658  0.00  0.00    +0.162 A 
BRANCH  28   6
ATOM      6  O   UNL     1       8.449   8.110   7.609  0.00  0.00    -0.491 OA
ATOM     36  C   UNL     1       9.352   9.149   7.981  0.00  0.00    +0.277 C 
ENDBRANCH  28   6
BRANCH  31   7
ATOM      7  O   UNL     1       9.042   5.776   8.997  0.00  0.00    -0.491 OA
ATOM     38  C   UNL     1       9.395   4.551   9.638  0.00  0.00    +0.277 C 
ENDBRANCH  31   7
ENDBRANCH  22  24
ENDBRANCH  13  19
BRANCH  14  20
ATOM     20  C   UNL     1      15.118   4.590   1.060  0.00  0.00    +0.252 C 
BRANCH  20   4
ATOM      4  O   UNL     1      15.642   5.801   0.551  0.00  0.00    -0.449 OA
BRANCH   4  25
ATOM      5  O   UNL     1      15.823   8.030   1.027  0.00  0.00    -0.226 OA
ATOM     11  N   UNL     1      15.455   6.437   2.702  0.00  0.00    -0.251 N 
ATOM     25  C   UNL     1      15.656   6.878   1.408  0.00  0.00    +0.405 C 
ATOM     40  H   UNL     1      15.334   5.434   2.822  0.00  0.00    +0.158 HD
BRANCH  11  30
ATOM     30  C   UNL     1      15.398   7.207   3.886  0.00  0.00    +0.037 A 
ATOM     32  C   UNL     1      14.183   7.381   4.548  0.00  0.00    +0.035 A 
ATOM     33  C   UNL     1      16.559   7.794   4.391  0.00  0.00    +0.023 A 
ATOM     34  C   UNL     1      14.129   8.141   5.716  0.00  0.00    +0.057 A 
ATOM     35  C   UNL     1      16.503   8.553   5.560  0.00  0.00    +0.002 A 
ATOM     37  C   UNL     1      15.288   8.727   6.222  0.00  0.00    +0.012 A 
BRANCH  34  39
ATOM      1  F   UNL     1      12.919   9.209   7.463  0.00  0.00    -0.166 F 
ATOM      2  F   UNL     1      11.832   8.806   5.623  0.00  0.00    -0.166 F 
ATOM      3  F   UNL     1      12.330   7.177   6.965  0.00  0.00    -0.166 F 
ATOM     39  C   UNL     1      12.829   8.328   6.425  0.00  0.00    +0.417 C 
ENDBRANCH  34  39
ENDBRANCH  11  30
ENDBRANCH   4  25
ENDBRANCH  20   4
ENDBRANCH  14  20
TORSDOF 9
ENDMDL
MODEL 4
REMARK VINA RESULT:      -5.8     22.968     26.311
REMARK  Name = 44716365
REMARK  12 active torsions:
REMARK  status: ('A' for Active; 'I' for Inactive)
REMARK    1  A    between atoms: O_4  and  C_20
REMARK    2  A    between atoms: O_4  and  C_25
REMARK    3  A    between atoms: O_6  and  C_28
REMARK    4  A    between atoms: O_6  and  C_36
REMARK    5  A    between atoms: O_7  and  C_31
REMARK    6  A    between atoms: O_7  and  C_38
REMARK    7  A    between atoms: N_9  and  C_23
REMARK    8  A    between atoms: N_11  and  C_30
REMARK    9  A    between atoms: C_13  and  C_19
REMARK   10  A    between atoms: C_14  and  C_20
REMARK   11  A    between atoms: C_22  and  C_24
REMARK   12  A    between atoms: C_34  and  C_39
REMARK                            x       y       z     vdW  Elec       q    Type
REMARK                         _______ _______ _______ _____ _____    ______ ____
ROOT
ATOM      8  N   UNL     1     -12.795   9.206  32.647  0.00  0.00    -0.296 NA
ATOM     12  C   UNL     1     -14.152   7.961  34.489  0.00  0.00    +0.002 C 
ATOM     13  C   UNL     1     -13.333   6.950  33.640  0.00  0.00    +0.055 C 
ATOM     14  C   UNL     1     -14.214   9.649  32.620  0.00  0.00    +0.095 C 
ATOM     15  C   UNL     1     -15.075   8.776  33.560  0.00  0.00    +0.026 C 
ATOM     16  C   UNL     1     -13.139   8.949  35.104  0.00  0.00    +0.019 C 
ATOM     17  C   UNL     1     -12.717   7.737  32.449  0.00  0.00    +0.094 C 
ATOM     18  C   UNL     1     -12.247   9.522  33.988  0.00  0.00    +0.085 C 
ENDROOT
BRANCH  13  19
ATOM      9  N   UNL     1     -14.393   4.683  34.059  0.00  0.00    -0.270 N 
ATOM     10  N   UNL     1     -14.981   3.631  33.464  0.00  0.00    -0.171 NA
ATOM     19  C   UNL     1     -14.017   5.667  33.193  0.00  0.00    +0.044 A 
ATOM     21  C   UNL     1     -14.384   5.227  31.944  0.00  0.00    +0.053 A 
ATOM     22  C   UNL     1     -14.973   3.968  32.172  0.00  0.00    +0.093 A 
ATOM     23  C   UNL     1     -14.221   4.676  35.494  0.00  0.00    +0.172 C 
BRANCH  22  24
ATOM     24  C   UNL     1     -15.524   3.083  31.180  0.00  0.00    +0.006 A 
ATOM     26  C   UNL     1     -15.059   1.772  31.080  0.00  0.00    +0.059 A 
ATOM     27  C   UNL     1     -16.523   3.537  30.318  0.00  0.00    +0.014 A 
ATOM     28  C   UNL     1     -15.594   0.914  30.119  0.00  0.00    +0.162 A 
ATOM     29  C   UNL     1     -17.056   2.679  29.357  0.00  0.00    +0.050 A 
ATOM     31  C   UNL     1     -16.592   1.368  29.257  0.00  0.00    +0.162 A 
BRANCH  28   6
ATOM      6  O   UNL     1     -15.131  -0.365  30.030  0.00  0.00    -0.491 OA
ATOM     36  C   UNL     1     -13.739  -0.533  29.767  0.00  0.00    +0.277 C 
ENDBRANCH  28   6
BRANCH  31   7
ATOM      7  O   UNL     1     -17.121   0.540  28.314  0.00  0.00    -0.491 OA
ATOM     38  C   UNL     1     -17.076   0.989  26.960  0.00  0.00    +0.277 C 
ENDBRANCH  31   7
ENDBRANCH  22  24
ENDBRANCH  13  19
BRANCH  14  20
ATOM     20  C   UNL     1     -14.784   9.691  31.201  0.00  0.00    +0.252 C 
BRANCH  20   4
ATOM      4  O   UNL     1     -14.817  11.038  30.772  0.00  0.00    -0.449 OA
BRANCH   4  25
ATOM      5  O   UNL     1     -13.214  12.523  30.096  0.00  0.00    -0.226 OA
ATOM     11  N   UNL     1     -13.548  10.483  28.997  0.00  0.00    -0.251 N 
ATOM     25  C   UNL     1     -13.789  11.452  29.952  0.00  0.00    +0.405 C 
ATOM     40  H   UNL     1     -14.134   9.653  29.039  0.00  0.00    +0.158 HD
BRANCH  11  30
ATOM     30  C   UNL     1     -12.584  10.502  27.963  0.00  0.00    +0.037 A 
ATOM     32  C   UNL     1     -12.930  10.967  26.695  0.00  0.00    +0.035 A 
ATOM     33  C   UNL     1     -11.286  10.056  28.213  0.00  0.00    +0.023 A 
ATOM     34  C   UNL     1     -11.978  10.986  25.676  0.00  0.00    +0.057 A 
ATOM     35  C   UNL     1     -10.334  10.076  27.192  0.00  0.00    +0.002 A 
ATOM     37  C   UNL     1     -10.681  10.541  25.924  0.00  0.00    +0.012 A 
BRANCH  34  39
ATOM      1  F   UNL     1     -13.247  10.671  23.689  0.00  0.00    -0.166 F 
ATOM      2  F   UNL     1     -12.920  12.724  24.326  0.00  0.00    -0.166 F 
ATOM      3  F   UNL     1     -11.288  11.586  23.464  0.00  0.00    -0.166 F 
ATOM     39  C   UNL     1     -12.348  11.484  24.318  0.00  0.00    +0.417 C 
ENDBRANCH  34  39
ENDBRANCH  11  30
ENDBRANCH   4  25
ENDBRANCH  20   4
ENDBRANCH  14  20
TORSDOF 9
ENDMDL
MODEL 5
REMARK VINA RESULT:      -5.8     23.898     27.728
REMARK  Name = 44716365
REMARK  12 active torsions:
REMARK  status: ('A' for Active; 'I' for Inactive)
REMARK    1  A    between atoms: O_4  and  C_20
REMARK    2  A    between atoms: O_4  and  C_25
REMARK    3  A    between atoms: O_6  and  C_28
REMARK    4  A    between atoms: O_6  and  C_36
REMARK    5  A    between atoms: O_7  and  C_31
REMARK    6  A    between atoms: O_7  and  C_38
REMARK    7  A    between atoms: N_9  and  C_23
REMARK    8  A    between atoms: N_11  and  C_30
REMARK    9  A    between atoms: C_13  and  C_19
REMARK   10  A    between atoms: C_14  and  C_20
REMARK   11  A    between atoms: C_22  and  C_24
REMARK   12  A    between atoms: C_34  and  C_39
REMARK                            x       y       z     vdW  Elec       q    Type
REMARK                         _______ _______ _______ _____ _____    ______ ____
ROOT
ATOM      8  N   UNL     1      14.344   3.800   0.443  0.00  0.00    -0.296 NA
ATOM     12  C   UNL     1      14.681   6.338  -0.034  0.00  0.00    +0.002 C 
ATOM     13  C   UNL     1      15.085   6.001   1.429  0.00  0.00    +0.055 C 
ATOM     14  C   UNL     1      13.117   4.369  -0.172  0.00  0.00    +0.095 C 
ATOM     15  C   UNL     1      13.219   5.907  -0.271  0.00  0.00    +0.026 C 
ATOM     16  C   UNL     1      15.566   5.468  -0.952  0.00  0.00    +0.019 C 
ATOM     17  C   UNL     1      14.669   4.526   1.696  0.00  0.00    +0.094 C 
ATOM     18  C   UNL     1      15.463   3.998  -0.510  0.00  0.00    +0.085 C 
ENDROOT
BRANCH  13  19
ATOM      9  N   UNL     1      15.434   7.897   3.079  0.00  0.00    -0.270 N 
ATOM     10  N   UNL     1      14.841   8.621   4.043  0.00  0.00    -0.171 NA
ATOM     19  C   UNL     1      14.629   6.940   2.535  0.00  0.00    +0.044 A 
ATOM     21  C   UNL     1      13.426   7.045   3.191  0.00  0.00    +0.053 A 
ATOM     22  C   UNL     1      13.615   8.097   4.108  0.00  0.00    +0.093 A 
ATOM     23  C   UNL     1      16.804   8.184   2.722  0.00  0.00    +0.172 C 
BRANCH  22  24
ATOM     24  C   UNL     1      12.649   8.607   5.045  0.00  0.00    +0.006 A 
ATOM     26  C   UNL     1      11.620   9.439   4.603  0.00  0.00    +0.059 A 
ATOM     27  C   UNL     1      12.741   8.269   6.396  0.00  0.00    +0.014 A 
ATOM     28  C   UNL     1      10.684   9.932   5.511  0.00  0.00    +0.162 A 
ATOM     29  C   UNL     1      11.806   8.764   7.304  0.00  0.00    +0.050 A 
ATOM     31  C   UNL     1      10.777   9.595   6.862  0.00  0.00    +0.162 A 
BRANCH  28   6
ATOM      6  O   UNL     1       9.684  10.745   5.069  0.00  0.00    -0.491 OA
ATOM     36  C   UNL     1       9.583  10.939   3.659  0.00  0.00    +0.277 C 
ENDBRANCH  28   6
BRANCH  31   7
ATOM      7  O   UNL     1       9.869  10.071   7.759  0.00  0.00    -0.491 OA
ATOM     38  C   UNL     1      10.385  10.739   8.910  0.00  0.00    +0.277 C 
ENDBRANCH  31   7
ENDBRANCH  22  24
ENDBRANCH  13  19
BRANCH  14  20
ATOM     20  C   UNL     1      11.843   3.929   0.553  0.00  0.00    +0.252 C 
BRANCH  20   4
ATOM      4  O   UNL     1      11.260   5.063   1.162  0.00  0.00    -0.449 OA
BRANCH   4  25
ATOM      5  O   UNL     1      10.861   3.842   3.054  0.00  0.00    -0.226 OA
ATOM     11  N   UNL     1      10.220   6.087   2.877  0.00  0.00    -0.251 N 
ATOM     25  C   UNL     1      10.778   4.900   2.442  0.00  0.00    +0.405 C 
ATOM     40  H   UNL     1      10.246   6.863   2.221  0.00  0.00    +0.158 HD
BRANCH  11  30
ATOM     30  C   UNL     1       9.613   6.358   4.124  0.00  0.00    +0.037 A 
ATOM     32  C   UNL     1      10.073   5.722   5.277  0.00  0.00    +0.035 A 
ATOM     33  C   UNL     1       8.554   7.262   4.202  0.00  0.00    +0.023 A 
ATOM     34  C   UNL     1       9.474   5.990   6.508  0.00  0.00    +0.057 A 
ATOM     35  C   UNL     1       7.955   7.530   5.433  0.00  0.00    +0.002 A 
ATOM     37  C   UNL     1       8.415   6.894   6.586  0.00  0.00    +0.012 A 
BRANCH  34  39
ATOM      1  F   UNL     1       9.242   5.644   8.849  0.00  0.00    -0.166 F 
ATOM      2  F   UNL     1       9.919   3.946   7.670  0.00  0.00    -0.166 F 
ATOM      3  F   UNL     1      11.263   5.606   8.049  0.00  0.00    -0.166 F 
ATOM     39  C   UNL     1       9.966   5.310   7.741  0.00  0.00    +0.417 C 
ENDBRANCH  34  39
ENDBRANCH  11  30
ENDBRANCH   4  25
ENDBRANCH  20   4
ENDBRANCH  14  20
TORSDOF 9
ENDMDL
MODEL 6
REMARK VINA RESULT:      -5.7      3.437      6.071
REMARK  Name = 44716365
REMARK  12 active torsions:
REMARK  status: ('A' for Active; 'I' for Inactive)
REMARK    1  A    between atoms: O_4  and  C_20
REMARK    2  A    between atoms: O_4  and  C_25
REMARK    3  A    between atoms: O_6  and  C_28
REMARK    4  A    between atoms: O_6  and  C_36
REMARK    5  A    between atoms: O_7  and  C_31
REMARK    6  A    between atoms: O_7  and  C_38
REMARK    7  A    between atoms: N_9  and  C_23
REMARK    8  A    between atoms: N_11  and  C_30
REMARK    9  A    between atoms: C_13  and  C_19
REMARK   10  A    between atoms: C_14  and  C_20
REMARK   11  A    between atoms: C_22  and  C_24
REMARK   12  A    between atoms: C_34  and  C_39
REMARK                            x       y       z     vdW  Elec       q    Type
REMARK                         _______ _______ _______ _____ _____    ______ ____
ROOT
ATOM      8  N   UNL     1      -6.485 -10.942  18.387  0.00  0.00    -0.296 NA
ATOM     12  C   UNL     1      -4.277 -12.148  17.712  0.00  0.00    +0.002 C 
ATOM     13  C   UNL     1      -4.365 -10.754  17.031  0.00  0.00    +0.055 C 
ATOM     14  C   UNL     1      -6.781 -12.323  17.926  0.00  0.00    +0.095 C 
ATOM     15  C   UNL     1      -5.517 -12.981  17.329  0.00  0.00    +0.026 C 
ATOM     16  C   UNL     1      -4.346 -11.905  19.234  0.00  0.00    +0.019 C 
ATOM     17  C   UNL     1      -5.785 -10.188  17.316  0.00  0.00    +0.094 C 
ATOM     18  C   UNL     1      -5.576 -11.037  19.555  0.00  0.00    +0.085 C 
ENDROOT
BRANCH  13  19
ATOM      9  N   UNL     1      -2.692 -10.652  15.126  0.00  0.00    -0.270 N 
ATOM     10  N   UNL     1      -2.569 -10.546  13.792  0.00  0.00    -0.171 NA
ATOM     19  C   UNL     1      -3.984 -10.646  15.562  0.00  0.00    +0.044 A 
ATOM     21  C   UNL     1      -4.760 -10.526  14.434  0.00  0.00    +0.053 A 
ATOM     22  C   UNL     1      -3.835 -10.470  13.375  0.00  0.00    +0.093 A 
ATOM     23  C   UNL     1      -1.502 -10.758  15.938  0.00  0.00    +0.172 C 
BRANCH  22  24
ATOM     24  C   UNL     1      -4.137 -10.341  11.973  0.00  0.00    +0.006 A 
ATOM     26  C   UNL     1      -5.095  -9.420  11.549  0.00  0.00    +0.059 A 
ATOM     27  C   UNL     1      -3.474 -11.138  11.040  0.00  0.00    +0.014 A 
ATOM     28  C   UNL     1      -5.388  -9.296  10.190  0.00  0.00    +0.162 A 
ATOM     29  C   UNL     1      -3.767 -11.014   9.683  0.00  0.00    +0.050 A 
ATOM     31  C   UNL     1      -4.724 -10.093   9.257  0.00  0.00    +0.162 A 
BRANCH  28   6
ATOM      6  O   UNL     1      -6.326  -8.394   9.786  0.00  0.00    -0.491 OA
ATOM     36  C   UNL     1      -7.693  -8.762   9.956  0.00  0.00    +0.277 C 
ENDBRANCH  28   6
BRANCH  31   7
ATOM      7  O   UNL     1      -5.002  -9.981   7.929  0.00  0.00    -0.491 OA
ATOM     38  C   UNL     1      -5.512 -11.143   7.274  0.00  0.00    +0.277 C 
ENDBRANCH  31   7
ENDBRANCH  22  24
ENDBRANCH  13  19
BRANCH  14  20
ATOM     20  C   UNL     1      -7.963 -12.374  16.955  0.00  0.00    +0.252 C 
BRANCH  20   4
ATOM      4  O   UNL     1      -9.156 -12.469  17.708  0.00  0.00    -0.449 OA
BRANCH   4  25
ATOM      5  O   UNL     1     -10.937 -11.175  18.324  0.00  0.00    -0.226 OA
ATOM     11  N   UNL     1      -9.954 -10.993  16.207  0.00  0.00    -0.251 N 
ATOM     25  C   UNL     1     -10.108 -11.499  17.484  0.00  0.00    +0.405 C 
ATOM     40  H   UNL     1      -9.201 -11.392  15.653  0.00  0.00    +0.158 HD
BRANCH  11  30
ATOM     30  C   UNL     1     -10.717  -9.987  15.572  0.00  0.00    +0.037 A 
ATOM     32  C   UNL     1     -10.521  -8.647  15.906  0.00  0.00    +0.035 A 
ATOM     33  C   UNL     1     -11.667 -10.335  14.611  0.00  0.00    +0.023 A 
ATOM     34  C   UNL     1     -11.274  -7.655  15.278  0.00  0.00    +0.057 A 
ATOM     35  C   UNL     1     -12.420  -9.342  13.984  0.00  0.00    +0.002 A 
ATOM     37  C   UNL     1     -12.223  -8.002  14.318  0.00  0.00    +0.012 A 
BRANCH  34  39
ATOM      1  F   UNL     1     -11.230  -5.983  16.968  0.00  0.00    -0.166 F 
ATOM      2  F   UNL     1      -9.814  -5.759  15.333  0.00  0.00    -0.166 F 
ATOM      3  F   UNL     1     -11.922  -5.368  15.001  0.00  0.00    -0.166 F 
ATOM     39  C   UNL     1     -11.064  -6.222  15.635  0.00  0.00    +0.417 C 
ENDBRANCH  34  39
ENDBRANCH  11  30
ENDBRANCH   4  25
ENDBRANCH  20   4
ENDBRANCH  14  20
TORSDOF 9
ENDMDL
MODEL 7
REMARK VINA RESULT:      -5.7      4.349      7.025
REMARK  Name = 44716365
REMARK  12 active torsions:
REMARK  status: ('A' for Active; 'I' for Inactive)
REMARK    1  A    between atoms: O_4  and  C_20
REMARK    2  A    between atoms: O_4  and  C_25
REMARK    3  A    between atoms: O_6  and  C_28
REMARK    4  A    between atoms: O_6  and  C_36
REMARK    5  A    between atoms: O_7  and  C_31
REMARK    6  A    between atoms: O_7  and  C_38
REMARK    7  A    between atoms: N_9  and  C_23
REMARK    8  A    between atoms: N_11  and  C_30
REMARK    9  A    between atoms: C_13  and  C_19
REMARK   10  A    between atoms: C_14  and  C_20
REMARK   11  A    between atoms: C_22  and  C_24
REMARK   12  A    between atoms: C_34  and  C_39
REMARK                            x       y       z     vdW  Elec       q    Type
REMARK                         _______ _______ _______ _____ _____    ______ ____
ROOT
ATOM      8  N   UNL     1      -6.437 -10.443  18.038  0.00  0.00    -0.296 NA
ATOM     12  C   UNL     1      -4.502 -12.070  17.412  0.00  0.00    +0.002 C 
ATOM     13  C   UNL     1      -4.294 -10.690  16.729  0.00  0.00    +0.055 C 
ATOM     14  C   UNL     1      -6.994 -11.740  17.571  0.00  0.00    +0.095 C 
ATOM     15  C   UNL     1      -5.876 -12.640  17.002  0.00  0.00    +0.026 C 
ATOM     16  C   UNL     1      -4.554 -11.811  18.933  0.00  0.00    +0.019 C 
ATOM     17  C   UNL     1      -5.578  -9.850  16.983  0.00  0.00    +0.094 C 
ATOM     18  C   UNL     1      -5.592 -10.713  19.226  0.00  0.00    +0.085 C 
ENDROOT
BRANCH  13  19
ATOM      9  N   UNL     1      -2.562 -10.648  14.875  0.00  0.00    -0.270 N 
ATOM     10  N   UNL     1      -2.397 -10.630  13.542  0.00  0.00    -0.171 NA
ATOM     19  C   UNL     1      -3.868 -10.668  15.269  0.00  0.00    +0.044 A 
ATOM     21  C   UNL     1      -4.608 -10.661  14.112  0.00  0.00    +0.053 A 
ATOM     22  C   UNL     1      -3.651 -10.637  13.080  0.00  0.00    +0.093 A 
ATOM     23  C   UNL     1      -1.397 -10.646  15.730  0.00  0.00    +0.172 C 
BRANCH  22  24
ATOM     24  C   UNL     1      -3.910 -10.619  11.665  0.00  0.00    +0.006 A 
ATOM     26  C   UNL     1      -4.483 -11.730  11.047  0.00  0.00    +0.059 A 
ATOM     27  C   UNL     1      -3.586  -9.491  10.910  0.00  0.00    +0.014 A 
ATOM     28  C   UNL     1      -4.735 -11.712   9.675  0.00  0.00    +0.162 A 
ATOM     29  C   UNL     1      -3.837  -9.473   9.539  0.00  0.00    +0.050 A 
ATOM     31  C   UNL     1      -4.411 -10.583   8.921  0.00  0.00    +0.162 A 
BRANCH  28   6
ATOM      6  O   UNL     1      -5.295 -12.803   9.081  0.00  0.00    -0.491 OA
ATOM     36  C   UNL     1      -4.448 -13.932   8.870  0.00  0.00    +0.277 C 
ENDBRANCH  28   6
BRANCH  31   7
ATOM      7  O   UNL     1      -4.651 -10.554   7.580  0.00  0.00    -0.491 OA
ATOM     38  C   UNL     1      -5.810  -9.843   7.145  0.00  0.00    +0.277 C 
ENDBRANCH  31   7
ENDBRANCH  22  24
ENDBRANCH  13  19
BRANCH  14  20
ATOM     20  C   UNL     1      -8.141 -11.557  16.574  0.00  0.00    +0.252 C 
BRANCH  20   4
ATOM      4  O   UNL     1      -9.360 -11.545  17.292  0.00  0.00    -0.449 OA
BRANCH   4  25
ATOM      5  O   UNL     1     -10.060  -9.834  18.637  0.00  0.00    -0.226 OA
ATOM     11  N   UNL     1     -10.309  -9.754  16.311  0.00  0.00    -0.251 N 
ATOM     25  C   UNL     1      -9.932 -10.312  17.517  0.00  0.00    +0.405 C 
ATOM     40  H   UNL     1     -10.118 -10.308  15.480  0.00  0.00    +0.158 HD
BRANCH  11  30
ATOM     30  C   UNL     1     -10.931  -8.505  16.086  0.00  0.00    +0.037 A 
ATOM     32  C   UNL     1     -12.320  -8.424  15.994  0.00  0.00    +0.035 A 
ATOM     33  C   UNL     1     -10.154  -7.354  15.957  0.00  0.00    +0.023 A 
ATOM     34  C   UNL     1     -12.933  -7.191  15.774  0.00  0.00    +0.057 A 
ATOM     35  C   UNL     1     -10.768  -6.120  15.737  0.00  0.00    +0.002 A 
ATOM     37  C   UNL     1     -12.158  -6.039  15.645  0.00  0.00    +0.012 A 
BRANCH  34  39
ATOM      1  F   UNL     1     -14.986  -8.268  15.246  0.00  0.00    -0.166 F 
ATOM      2  F   UNL     1     -15.031  -6.814  16.861  0.00  0.00    -0.166 F 
ATOM      3  F   UNL     1     -14.855  -6.143  14.806  0.00  0.00    -0.166 F 
ATOM     39  C   UNL     1     -14.419  -7.103  15.675  0.00  0.00    +0.417 C 
ENDBRANCH  34  39
ENDBRANCH  11  30
ENDBRANCH   4  25
ENDBRANCH  20   4
ENDBRANCH  14  20
TORSDOF 9
ENDMDL
MODEL 8
REMARK VINA RESULT:      -5.7     24.727     28.267
REMARK  Name = 44716365
REMARK  12 active torsions:
REMARK  status: ('A' for Active; 'I' for Inactive)
REMARK    1  A    between atoms: O_4  and  C_20
REMARK    2  A    between atoms: O_4  and  C_25
REMARK    3  A    between atoms: O_6  and  C_28
REMARK    4  A    between atoms: O_6  and  C_36
REMARK    5  A    between atoms: O_7  and  C_31
REMARK    6  A    between atoms: O_7  and  C_38
REMARK    7  A    between atoms: N_9  and  C_23
REMARK    8  A    between atoms: N_11  and  C_30
REMARK    9  A    between atoms: C_13  and  C_19
REMARK   10  A    between atoms: C_14  and  C_20
REMARK   11  A    between atoms: C_22  and  C_24
REMARK   12  A    between atoms: C_34  and  C_39
REMARK                            x       y       z     vdW  Elec       q    Type
REMARK                         _______ _______ _______ _____ _____    ______ ____
ROOT
ATOM      8  N   UNL     1      21.361  -5.983   2.296  0.00  0.00    -0.296 NA
ATOM     12  C   UNL     1      22.322  -6.098  -0.122  0.00  0.00    +0.002 C 
ATOM     13  C   UNL     1      21.175  -5.052  -0.041  0.00  0.00    +0.055 C 
ATOM     14  C   UNL     1      21.424  -7.397   1.841  0.00  0.00    +0.095 C 
ATOM     15  C   UNL     1      21.794  -7.470   0.343  0.00  0.00    +0.026 C 
ATOM     16  C   UNL     1      23.398  -5.657   0.894  0.00  0.00    +0.019 C 
ATOM     17  C   UNL     1      20.524  -5.186   1.365  0.00  0.00    +0.094 C 
ATOM     18  C   UNL     1      22.738  -5.435   2.266  0.00  0.00    +0.085 C 
ENDROOT
BRANCH  13  19
ATOM      9  N   UNL     1      20.309  -4.332  -2.315  0.00  0.00    -0.270 N 
ATOM     10  N   UNL     1      19.281  -4.445  -3.172  0.00  0.00    -0.171 NA
ATOM     19  C   UNL     1      20.141  -5.032  -1.157  0.00  0.00    +0.044 A 
ATOM     21  C   UNL     1      18.915  -5.644  -1.263  0.00  0.00    +0.053 A 
ATOM     22  C   UNL     1      18.432  -5.247  -2.525  0.00  0.00    +0.093 A 
ATOM     23  C   UNL     1      21.446  -3.520  -2.681  0.00  0.00    +0.172 C 
BRANCH  22  24
ATOM     24  C   UNL     1      17.174  -5.617  -3.120  0.00  0.00    +0.006 A 
ATOM     26  C   UNL     1      16.996  -6.902  -3.631  0.00  0.00    +0.059 A 
ATOM     27  C   UNL     1      16.134  -4.689  -3.187  0.00  0.00    +0.014 A 
ATOM     28  C   UNL     1      15.778  -7.260  -4.208  0.00  0.00    +0.162 A 
ATOM     29  C   UNL     1      14.917  -5.047  -3.764  0.00  0.00    +0.050 A 
ATOM     31  C   UNL     1      14.738  -6.332  -4.275  0.00  0.00    +0.162 A 
BRANCH  28   6
ATOM      6  O   UNL     1      15.615  -8.518  -4.705  0.00  0.00    -0.491 OA
ATOM     36  C   UNL     1      16.343  -8.847  -5.887  0.00  0.00    +0.277 C 
ENDBRANCH  28   6
BRANCH  31   7
ATOM      7  O   UNL     1      13.544  -6.670  -4.836  0.00  0.00    -0.491 OA
ATOM     38  C   UNL     1      13.216  -6.051  -6.080  0.00  0.00    +0.277 C 
ENDBRANCH  31   7
ENDBRANCH  22  24
ENDBRANCH  13  19
BRANCH  14  20
ATOM     20  C   UNL     1      20.138  -8.167   2.149  0.00  0.00    +0.252 C 
BRANCH  20   4
ATOM      4  O   UNL     1      19.781  -8.918   1.005  0.00  0.00    -0.449 OA
BRANCH   4  25
ATOM      5  O   UNL     1      19.942 -11.197   1.108  0.00  0.00    -0.226 OA
ATOM     11  N   UNL     1      17.942 -10.078   1.586  0.00  0.00    -0.251 N 
ATOM     25  C   UNL     1      19.272 -10.178   1.226  0.00  0.00    +0.405 C 
ATOM     40  H   UNL     1      17.558  -9.138   1.631  0.00  0.00    +0.158 HD
BRANCH  11  30
ATOM     30  C   UNL     1      17.044 -11.124   1.899  0.00  0.00    +0.037 A 
ATOM     32  C   UNL     1      16.630 -11.317   3.217  0.00  0.00    +0.035 A 
ATOM     33  C   UNL     1      16.573 -11.963   0.889  0.00  0.00    +0.023 A 
ATOM     34  C   UNL     1      15.743 -12.349   3.524  0.00  0.00    +0.057 A 
ATOM     35  C   UNL     1      15.685 -12.995   1.198  0.00  0.00    +0.002 A 
ATOM     37  C   UNL     1      15.271 -13.188   2.516  0.00  0.00    +0.012 A 
BRANCH  34  39
ATOM      1  F   UNL     1      15.771 -11.593   5.779  0.00  0.00    -0.166 F 
ATOM      2  F   UNL     1      13.943 -12.546   5.088  0.00  0.00    -0.166 F 
ATOM      3  F   UNL     1      15.710 -13.744   5.468  0.00  0.00    -0.166 F 
ATOM     39  C   UNL     1      15.300 -12.556   4.934  0.00  0.00    +0.417 C 
ENDBRANCH  34  39
ENDBRANCH  11  30
ENDBRANCH   4  25
ENDBRANCH  20   4
ENDBRANCH  14  20
TORSDOF 9
ENDMDL
MODEL 9
REMARK VINA RESULT:      -5.7     24.538     28.152
REMARK  Name = 44716365
REMARK  12 active torsions:
REMARK  status: ('A' for Active; 'I' for Inactive)
REMARK    1  A    between atoms: O_4  and  C_20
REMARK    2  A    between atoms: O_4  and  C_25
REMARK    3  A    between atoms: O_6  and  C_28
REMARK    4  A    between atoms: O_6  and  C_36
REMARK    5  A    between atoms: O_7  and  C_31
REMARK    6  A    between atoms: O_7  and  C_38
REMARK    7  A    between atoms: N_9  and  C_23
REMARK    8  A    between atoms: N_11  and  C_30
REMARK    9  A    between atoms: C_13  and  C_19
REMARK   10  A    between atoms: C_14  and  C_20
REMARK   11  A    between atoms: C_22  and  C_24
REMARK   12  A    between atoms: C_34  and  C_39
REMARK                            x       y       z     vdW  Elec       q    Type
REMARK                         _______ _______ _______ _____ _____    ______ ____
ROOT
ATOM      8  N   UNL     1      13.781   4.892  -1.607  0.00  0.00    -0.296 NA
ATOM     12  C   UNL     1      12.115   3.360  -0.320  0.00  0.00    +0.002 C 
ATOM     13  C   UNL     1      11.575   4.816  -0.384  0.00  0.00    +0.055 C 
ATOM     14  C   UNL     1      14.505   4.116  -0.566  0.00  0.00    +0.095 C 
ATOM     15  C   UNL     1      13.508   3.361   0.341  0.00  0.00    +0.026 C 
ATOM     16  C   UNL     1      12.303   2.890  -1.778  0.00  0.00    +0.019 C 
ATOM     17  C   UNL     1      12.706   5.702  -0.982  0.00  0.00    +0.094 C 
ATOM     18  C   UNL     1      13.151   3.926  -2.539  0.00  0.00    +0.085 C 
ENDROOT
BRANCH  13  19
ATOM      9  N   UNL     1      10.150   6.501   0.867  0.00  0.00    -0.270 N 
ATOM     10  N   UNL     1       9.729   6.876   2.087  0.00  0.00    -0.171 NA
ATOM     19  C   UNL     1      10.977   5.417   0.879  0.00  0.00    +0.044 A 
ATOM     21  C   UNL     1      11.107   5.059   2.199  0.00  0.00    +0.053 A 
ATOM     22  C   UNL     1      10.317   5.992   2.897  0.00  0.00    +0.093 A 
ATOM     23  C   UNL     1       9.709   7.244  -0.291  0.00  0.00    +0.172 C 
BRANCH  22  24
ATOM     24  C   UNL     1      10.116   6.056   4.320  0.00  0.00    +0.006 A 
ATOM     26  C   UNL     1      10.027   7.294   4.957  0.00  0.00    +0.059 A 
ATOM     27  C   UNL     1      10.012   4.880   5.064  0.00  0.00    +0.014 A 
ATOM     28  C   UNL     1       9.831   7.355   6.337  0.00  0.00    +0.162 A 
ATOM     29  C   UNL     1       9.818   4.942   6.443  0.00  0.00    +0.050 A 
ATOM     31  C   UNL     1       9.727   6.179   7.080  0.00  0.00    +0.162 A 
BRANCH  28   6
ATOM      6  O   UNL     1       9.746   8.570   6.948  0.00  0.00    -0.491 OA
ATOM     36  C   UNL     1       9.147   9.629   6.204  0.00  0.00    +0.277 C 
ENDBRANCH  28   6
BRANCH  31   7
ATOM      7  O   UNL     1       9.538   6.227   8.428  0.00  0.00    -0.491 OA
ATOM     38  C   UNL     1       9.469   4.978   9.117  0.00  0.00    +0.277 C 
ENDBRANCH  31   7
ENDBRANCH  22  24
ENDBRANCH  13  19
BRANCH  14  20
ATOM     20  C   UNL     1      15.468   4.985   0.245  0.00  0.00    +0.252 C 
BRANCH  20   4
ATOM      4  O   UNL     1      15.023   5.012   1.588  0.00  0.00    -0.449 OA
BRANCH   4  25
ATOM      5  O   UNL     1      14.480   7.232   1.521  0.00  0.00    -0.226 OA
ATOM     11  N   UNL     1      15.159   6.187   3.503  0.00  0.00    -0.251 N 
ATOM     25  C   UNL     1      14.851   6.254   2.157  0.00  0.00    +0.405 C 
ATOM     40  H   UNL     1      15.452   5.278   3.853  0.00  0.00    +0.158 HD
BRANCH  11  30
ATOM     30  C   UNL     1      15.119   7.229   4.457  0.00  0.00    +0.037 A 
ATOM     32  C   UNL     1      16.258   7.996   4.701  0.00  0.00    +0.035 A 
ATOM     33  C   UNL     1      13.940   7.489   5.155  0.00  0.00    +0.023 A 
ATOM     34  C   UNL     1      16.217   9.025   5.642  0.00  0.00    +0.057 A 
ATOM     35  C   UNL     1      13.900   8.518   6.097  0.00  0.00    +0.002 A 
ATOM     37  C   UNL     1      15.039   9.286   6.341  0.00  0.00    +0.012 A 
BRANCH  34  39
ATOM      1  F   UNL     1      17.244  10.770   6.889  0.00  0.00    -0.166 F 
ATOM      2  F   UNL     1      18.518   9.110   6.295  0.00  0.00    -0.166 F 
ATOM      3  F   UNL     1      17.861  10.554   4.816  0.00  0.00    -0.166 F 
ATOM     39  C   UNL     1      17.435   9.846   5.903  0.00  0.00    +0.417 C 
ENDBRANCH  34  39
ENDBRANCH  11  30
ENDBRANCH   4  25
ENDBRANCH  20   4
ENDBRANCH  14  20
TORSDOF 9
ENDMDL
MODEL 10
REMARK VINA RESULT:      -5.7      4.110      6.894
REMARK  Name = 44716365
REMARK  12 active torsions:
REMARK  status: ('A' for Active; 'I' for Inactive)
REMARK    1  A    between atoms: O_4  and  C_20
REMARK    2  A    between atoms: O_4  and  C_25
REMARK    3  A    between atoms: O_6  and  C_28
REMARK    4  A    between atoms: O_6  and  C_36
REMARK    5  A    between atoms: O_7  and  C_31
REMARK    6  A    between atoms: O_7  and  C_38
REMARK    7  A    between atoms: N_9  and  C_23
REMARK    8  A    between atoms: N_11  and  C_30
REMARK    9  A    between atoms: C_13  and  C_19
REMARK   10  A    between atoms: C_14  and  C_20
REMARK   11  A    between atoms: C_22  and  C_24
REMARK   12  A    between atoms: C_34  and  C_39
REMARK                            x       y       z     vdW  Elec       q    Type
REMARK                         _______ _______ _______ _____ _____    ______ ____
ROOT
ATOM      8  N   UNL     1      -5.550 -10.597  18.604  0.00  0.00    -0.296 NA
ATOM     12  C   UNL     1      -4.918 -12.576  17.033  0.00  0.00    +0.002 C 
ATOM     13  C   UNL     1      -4.024 -11.339  16.737  0.00  0.00    +0.055 C 
ATOM     14  C   UNL     1      -6.773 -11.149  17.964  0.00  0.00    +0.095 C 
ATOM     15  C   UNL     1      -6.401 -12.181  16.877  0.00  0.00    +0.026 C 
ATOM     16  C   UNL     1      -4.698 -12.939  18.516  0.00  0.00    +0.019 C 
ATOM     17  C   UNL     1      -4.590 -10.150  17.564  0.00  0.00    +0.094 C 
ATOM     18  C   UNL     1      -4.914 -11.686  19.383  0.00  0.00    +0.085 C 
ENDROOT
BRANCH  13  19
ATOM      9  N   UNL     1      -2.526 -10.735  14.780  0.00  0.00    -0.270 N 
ATOM     10  N   UNL     1      -2.519 -10.418  13.474  0.00  0.00    -0.171 NA
ATOM     19  C   UNL     1      -3.772 -10.965  15.284  0.00  0.00    +0.044 A 
ATOM     21  C   UNL     1      -4.641 -10.784  14.235  0.00  0.00    +0.053 A 
ATOM     22  C   UNL     1      -3.813 -10.448  13.146  0.00  0.00    +0.093 A 
ATOM     23  C   UNL     1      -1.273 -10.802  15.497  0.00  0.00    +0.172 C 
BRANCH  22  24
ATOM     24  C   UNL     1      -4.235 -10.155  11.802  0.00  0.00    +0.006 A 
ATOM     26  C   UNL     1      -5.578 -10.286  11.448  0.00  0.00    +0.059 A 
ATOM     27  C   UNL     1      -3.301  -9.739  10.852  0.00  0.00    +0.014 A 
ATOM     28  C   UNL     1      -5.987 -10.001  10.146  0.00  0.00    +0.162 A 
ATOM     29  C   UNL     1      -3.710  -9.455   9.550  0.00  0.00    +0.050 A 
ATOM     31  C   UNL     1      -5.052  -9.585   9.196  0.00  0.00    +0.162 A 
BRANCH  28   6
ATOM      6  O   UNL     1      -7.301 -10.133   9.811  0.00  0.00    -0.491 OA
ATOM     36  C   UNL     1      -8.218  -9.223  10.415  0.00  0.00    +0.277 C 
ENDBRANCH  28   6
BRANCH  31   7
ATOM      7  O   UNL     1      -5.439  -9.305   7.921  0.00  0.00    -0.491 OA
ATOM     38  C   UNL     1      -5.345 -10.364   6.968  0.00  0.00    +0.277 C 
ENDBRANCH  31   7
ENDBRANCH  22  24
ENDBRANCH  13  19
BRANCH  14  20
ATOM     20  C   UNL     1      -7.692 -10.054  17.420  0.00  0.00    +0.252 C 
BRANCH  20   4
ATOM      4  O   UNL     1      -7.864 -10.263  16.032  0.00  0.00    -0.449 OA
BRANCH   4  25
ATOM      5  O   UNL     1      -9.406 -10.034  14.359  0.00  0.00    -0.226 OA
ATOM     11  N   UNL     1      -9.479  -8.717  16.292  0.00  0.00    -0.251 N 
ATOM     25  C   UNL     1      -8.975  -9.691  15.452  0.00  0.00    +0.405 C 
ATOM     40  H   UNL     1      -8.980  -8.575  17.167  0.00  0.00    +0.158 HD
BRANCH  11  30
ATOM     30  C   UNL     1     -10.605  -7.888  16.086  0.00  0.00    +0.037 A 
ATOM     32  C   UNL     1     -11.887  -8.377  16.340  0.00  0.00    +0.035 A 
ATOM     33  C   UNL     1     -10.434  -6.581  15.629  0.00  0.00    +0.023 A 
ATOM     34  C   UNL     1     -12.998  -7.558  16.138  0.00  0.00    +0.057 A 
ATOM     35  C   UNL     1     -11.546  -5.763  15.427  0.00  0.00    +0.002 A 
ATOM     37  C   UNL     1     -12.828  -6.251  15.681  0.00  0.00    +0.012 A 
BRANCH  34  39
ATOM      1  F   UNL     1     -14.808  -8.931  15.437  0.00  0.00    -0.166 F 
ATOM      2  F   UNL     1     -14.467  -8.778  17.579  0.00  0.00    -0.166 F 
ATOM      3  F   UNL     1     -15.319  -7.103  16.496  0.00  0.00    -0.166 F 
ATOM     39  C   UNL     1     -14.369  -8.080  16.409  0.00  0.00    +0.417 C 
ENDBRANCH  34  39
ENDBRANCH  11  30
ENDBRANCH   4  25
ENDBRANCH  20   4
ENDBRANCH  14  20
TORSDOF 9
ENDMDL
