MODEL 1
REMARK VINA RESULT:      -7.1      0.000      0.000
REMARK  Name = 44716356
REMARK  7 active torsions:
REMARK  status: ('A' for Active; 'I' for Inactive)
REMARK    1  A    between atoms: N_3  and  C_18
REMARK    2  A    between atoms: N_4  and  C_13
REMARK    3  A    between atoms: N_4  and  C_17
REMARK    4  A    between atoms: C_7  and  C_14
REMARK    5  A    between atoms: C_8  and  C_13
REMARK    6  A    between atoms: C_16  and  C_19
REMARK    7  A    between atoms: C_17  and  C_20
REMARK                            x       y       z     vdW  Elec       q    Type
REMARK                         _______ _______ _______ _____ _____    ______ ____
ROOT
ATOM      2  N   UNL     1      13.944   4.901  -1.089  0.00  0.00    -0.298 NA
ATOM      6  C   UNL     1      12.232   3.360   0.125  0.00  0.00    +0.002 C 
ATOM      7  C   UNL     1      11.654   4.793  -0.036  0.00  0.00    +0.055 C 
ATOM      8  C   UNL     1      14.609   4.187   0.032  0.00  0.00    +0.071 C 
ATOM      9  C   UNL     1      13.571   3.431   0.889  0.00  0.00    +0.024 C 
ATOM     10  C   UNL     1      12.547   2.846  -1.296  0.00  0.00    +0.019 C 
ATOM     11  C   UNL     1      12.799   5.696  -0.579  0.00  0.00    +0.094 C 
ATOM     12  C   UNL     1      13.417   3.882  -2.029  0.00  0.00    +0.085 C 
ENDROOT
BRANCH   7  14
ATOM      3  N   UNL     1      10.060   6.452   1.036  0.00  0.00    -0.270 N 
ATOM      5  N   UNL     1       9.541   6.861   2.206  0.00  0.00    -0.171 NA
ATOM     14  C   UNL     1      10.943   5.419   1.156  0.00  0.00    +0.044 A 
ATOM     15  C   UNL     1      11.006   5.133   2.497  0.00  0.00    +0.053 A 
ATOM     16  C   UNL     1      10.122   6.050   3.095  0.00  0.00    +0.093 A 
ATOM     18  C   UNL     1       9.657   7.112  -0.184  0.00  0.00    +0.172 C 
BRANCH  16  19
ATOM     19  C   UNL     1       9.823   6.171   4.499  0.00  0.00    +0.003 A 
ATOM     21  C   UNL     1      10.006   5.077   5.346  0.00  0.00    +0.018 A 
ATOM     22  C   UNL     1       9.354   7.378   5.009  0.00  0.00    +0.011 A 
ATOM     24  C   UNL     1       9.720   5.179   6.718  0.00  0.00    -0.017 A 
ATOM     25  C   UNL     1       9.065   7.496   6.370  0.00  0.00    +0.009 A 
ATOM     26  C   UNL     1       9.243   6.405   7.237  0.00  0.00    -0.018 A 
ATOM     29  C   UNL     1       9.898   4.089   7.585  0.00  0.00    +0.008 A 
ATOM     30  C   UNL     1       8.958   6.507   8.608  0.00  0.00    +0.008 A 
ATOM     31  C   UNL     1       9.610   4.206   8.945  0.00  0.00    +0.001 A 
ATOM     32  C   UNL     1       9.141   5.413   9.455  0.00  0.00    +0.001 A 
ENDBRANCH  16  19
ENDBRANCH   7  14
BRANCH   8  13
ATOM     13  C   UNL     1      15.480   5.117   0.880  0.00  0.00    +0.100 C 
BRANCH  13   4
ATOM      4  N   UNL     1      14.821   5.439   2.135  0.00  0.00    -0.308 NA
ATOM     33  H   UNL     1      15.225   4.870   2.879  0.00  0.00    +0.122 HD
BRANCH   4  17
ATOM     17  C   UNL     1      14.969   6.852   2.458  0.00  0.00    +0.155 C 
BRANCH  17  20
ATOM      1  O   UNL     1      15.259   7.050   4.866  0.00  0.00    -0.467 OA
ATOM     20  C   UNL     1      14.407   7.181   3.815  0.00  0.00    +0.119 A 
ATOM     23  C   UNL     1      13.171   7.602   4.245  0.00  0.00    +0.046 A 
ATOM     27  C   UNL     1      13.268   7.738   5.650  0.00  0.00    +0.041 A 
ATOM     28  C   UNL     1      14.558   7.392   5.978  0.00  0.00    +0.195 A 
ENDBRANCH  17  20
ENDBRANCH   4  17
ENDBRANCH  13   4
ENDBRANCH   8  13
TORSDOF 6
ENDMDL
MODEL 2
REMARK VINA RESULT:      -6.8     14.402     18.823
REMARK  Name = 44716356
REMARK  7 active torsions:
REMARK  status: ('A' for Active; 'I' for Inactive)
REMARK    1  A    between atoms: N_3  and  C_18
REMARK    2  A    between atoms: N_4  and  C_13
REMARK    3  A    between atoms: N_4  and  C_17
REMARK    4  A    between atoms: C_7  and  C_14
REMARK    5  A    between atoms: C_8  and  C_13
REMARK    6  A    between atoms: C_16  and  C_19
REMARK    7  A    between atoms: C_17  and  C_20
REMARK                            x       y       z     vdW  Elec       q    Type
REMARK                         _______ _______ _______ _____ _____    ______ ____
ROOT
ATOM      2  N   UNL     1      11.322   9.328  20.414  0.00  0.00    -0.298 NA
ATOM      6  C   UNL     1      12.368   7.372  21.777  0.00  0.00    +0.002 C 
ATOM      7  C   UNL     1      13.302   8.613  21.802  0.00  0.00    +0.055 C 
ATOM      8  C   UNL     1      11.302   8.079  19.608  0.00  0.00    +0.071 C 
ATOM      9  C   UNL     1      12.100   6.963  20.313  0.00  0.00    +0.024 C 
ATOM     10  C   UNL     1      11.018   7.821  22.377  0.00  0.00    +0.019 C 
ATOM     11  C   UNL     1      12.714   9.657  20.810  0.00  0.00    +0.094 C 
ATOM     12  C   UNL     1      10.534   9.087  21.647  0.00  0.00    +0.085 C 
ENDROOT
BRANCH   7  14
ATOM      3  N   UNL     1      15.696   9.414  21.538  0.00  0.00    -0.270 N 
ATOM      5  N   UNL     1      16.963   9.011  21.343  0.00  0.00    -0.171 NA
ATOM     14  C   UNL     1      14.794   8.393  21.590  0.00  0.00    +0.044 A 
ATOM     15  C   UNL     1      15.521   7.241  21.417  0.00  0.00    +0.053 A 
ATOM     16  C   UNL     1      16.850   7.682  21.270  0.00  0.00    +0.093 A 
ATOM     18  C   UNL     1      15.416  10.826  21.666  0.00  0.00    +0.172 C 
BRANCH  16  19
ATOM     19  C   UNL     1      18.013   6.860  21.061  0.00  0.00    +0.003 A 
ATOM     21  C   UNL     1      19.087   6.934  21.948  0.00  0.00    +0.018 A 
ATOM     22  C   UNL     1      18.063   5.990  19.975  0.00  0.00    +0.011 A 
ATOM     24  C   UNL     1      20.229   6.137  21.757  0.00  0.00    -0.017 A 
ATOM     25  C   UNL     1      19.190   5.192  19.771  0.00  0.00    +0.009 A 
ATOM     26  C   UNL     1      20.281   5.254  20.653  0.00  0.00    -0.018 A 
ATOM     29  C   UNL     1      21.320   6.199  22.640  0.00  0.00    +0.008 A 
ATOM     30  C   UNL     1      21.422   4.458  20.464  0.00  0.00    +0.008 A 
ATOM     31  C   UNL     1      22.446   5.401  22.437  0.00  0.00    +0.001 A 
ATOM     32  C   UNL     1      22.496   4.532  21.351  0.00  0.00    +0.001 A 
ENDBRANCH  16  19
ENDBRANCH   7  14
BRANCH   8  13
ATOM     13  C   UNL     1      11.783   8.304  18.173  0.00  0.00    +0.100 C 
BRANCH  13   4
ATOM      4  N   UNL     1      12.722   7.269  17.774  0.00  0.00    -0.308 NA
ATOM     33  H   UNL     1      12.503   6.968  16.825  0.00  0.00    +0.122 HD
BRANCH   4  17
ATOM     17  C   UNL     1      14.095   7.754  17.836  0.00  0.00    +0.155 C 
BRANCH  17  20
ATOM      1  O   UNL     1      14.668  10.114  17.676  0.00  0.00    -0.467 OA
ATOM     20  C   UNL     1      14.290   8.995  17.005  0.00  0.00    +0.119 A 
ATOM     23  C   UNL     1      14.165   9.256  15.661  0.00  0.00    +0.046 A 
ATOM     27  C   UNL     1      14.486  10.624  15.494  0.00  0.00    +0.041 A 
ATOM     28  C   UNL     1      14.785  11.101  16.749  0.00  0.00    +0.195 A 
ENDBRANCH  17  20
ENDBRANCH   4  17
ENDBRANCH  13   4
ENDBRANCH   8  13
TORSDOF 6
ENDMDL
MODEL 3
REMARK VINA RESULT:      -6.8     23.721     27.312
REMARK  Name = 44716356
REMARK  7 active torsions:
REMARK  status: ('A' for Active; 'I' for Inactive)
REMARK    1  A    between atoms: N_3  and  C_18
REMARK    2  A    between atoms: N_4  and  C_13
REMARK    3  A    between atoms: N_4  and  C_17
REMARK    4  A    between atoms: C_7  and  C_14
REMARK    5  A    between atoms: C_8  and  C_13
REMARK    6  A    between atoms: C_16  and  C_19
REMARK    7  A    between atoms: C_17  and  C_20
REMARK                            x       y       z     vdW  Elec       q    Type
REMARK                         _______ _______ _______ _____ _____    ______ ____
ROOT
ATOM      2  N   UNL     1      -5.724 -10.351  18.120  0.00  0.00    -0.298 NA
ATOM      6  C   UNL     1      -4.897 -12.412  16.761  0.00  0.00    +0.002 C 
ATOM      7  C   UNL     1      -4.060 -11.154  16.403  0.00  0.00    +0.055 C 
ATOM      8  C   UNL     1      -6.878 -11.030  17.473  0.00  0.00    +0.071 C 
ATOM      9  C   UNL     1      -6.390 -12.125  16.500  0.00  0.00    +0.024 C 
ATOM     10  C   UNL     1      -4.736 -12.635  18.281  0.00  0.00    +0.019 C 
ATOM     11  C   UNL     1      -4.737  -9.935  17.093  0.00  0.00    +0.094 C 
ATOM     12  C   UNL     1      -5.069 -11.328  19.022  0.00  0.00    +0.085 C 
ENDROOT
BRANCH   7  14
ATOM      3  N   UNL     1      -2.502 -10.594  14.479  0.00  0.00    -0.270 N 
ATOM      5  N   UNL     1      -2.441 -10.394  13.152  0.00  0.00    -0.171 NA
ATOM     14  C   UNL     1      -3.753 -10.889  14.936  0.00  0.00    +0.044 A 
ATOM     15  C   UNL     1      -4.567 -10.880  13.830  0.00  0.00    +0.053 A 
ATOM     16  C   UNL     1      -3.707 -10.571  12.761  0.00  0.00    +0.093 A 
ATOM     18  C   UNL     1      -1.295 -10.482  15.266  0.00  0.00    +0.172 C 
BRANCH  16  19
ATOM     19  C   UNL     1      -4.068 -10.438  11.374  0.00  0.00    +0.003 A 
ATOM     21  C   UNL     1      -4.000 -11.545  10.527  0.00  0.00    +0.018 A 
ATOM     22  C   UNL     1      -4.488  -9.206  10.879  0.00  0.00    +0.011 A 
ATOM     24  C   UNL     1      -4.351 -11.432   9.171  0.00  0.00    -0.017 A 
ATOM     25  C   UNL     1      -4.840  -9.077   9.534  0.00  0.00    +0.009 A 
ATOM     26  C   UNL     1      -4.776 -10.181   8.668  0.00  0.00    -0.018 A 
ATOM     29  C   UNL     1      -4.287 -12.536   8.305  0.00  0.00    +0.008 A 
ATOM     30  C   UNL     1      -5.127 -10.069   7.313  0.00  0.00    +0.008 A 
ATOM     31  C   UNL     1      -4.639 -12.407   6.961  0.00  0.00    +0.001 A 
ATOM     32  C   UNL     1      -5.059 -11.175   6.466  0.00  0.00    +0.001 A 
ENDBRANCH  16  19
ENDBRANCH   7  14
BRANCH   8  13
ATOM     13  C   UNL     1      -7.827 -10.042  16.790  0.00  0.00    +0.100 C 
BRANCH  13   4
ATOM      4  N   UNL     1      -8.414  -9.134  17.762  0.00  0.00    -0.308 NA
ATOM     33  H   UNL     1      -8.163  -8.177  17.517  0.00  0.00    +0.122 HD
BRANCH   4  17
ATOM     17  C   UNL     1      -9.865  -9.272  17.797  0.00  0.00    +0.155 C 
BRANCH  17  20
ATOM      1  O   UNL     1      -9.740  -7.314  16.357  0.00  0.00    -0.467 OA
ATOM     20  C   UNL     1     -10.550  -8.213  16.975  0.00  0.00    +0.119 A 
ATOM     23  C   UNL     1     -11.870  -7.943  16.701  0.00  0.00    +0.046 A 
ATOM     27  C   UNL     1     -11.872  -6.805  15.860  0.00  0.00    +0.041 A 
ATOM     28  C   UNL     1     -10.553  -6.461  15.680  0.00  0.00    +0.195 A 
ENDBRANCH  17  20
ENDBRANCH   4  17
ENDBRANCH  13   4
ENDBRANCH   8  13
TORSDOF 6
ENDMDL
MODEL 4
REMARK VINA RESULT:      -6.8     23.644     27.122
REMARK  Name = 44716356
REMARK  7 active torsions:
REMARK  status: ('A' for Active; 'I' for Inactive)
REMARK    1  A    between atoms: N_3  and  C_18
REMARK    2  A    between atoms: N_4  and  C_13
REMARK    3  A    between atoms: N_4  and  C_17
REMARK    4  A    between atoms: C_7  and  C_14
REMARK    5  A    between atoms: C_8  and  C_13
REMARK    6  A    between atoms: C_16  and  C_19
REMARK    7  A    between atoms: C_17  and  C_20
REMARK                            x       y       z     vdW  Elec       q    Type
REMARK                         _______ _______ _______ _____ _____    ______ ____
ROOT
ATOM      2  N   UNL     1      -6.432 -10.536  18.004  0.00  0.00    -0.298 NA
ATOM      6  C   UNL     1      -4.390 -12.038  17.409  0.00  0.00    +0.002 C 
ATOM      7  C   UNL     1      -4.275 -10.659  16.704  0.00  0.00    +0.055 C 
ATOM      8  C   UNL     1      -6.899 -11.875  17.560  0.00  0.00    +0.071 C 
ATOM      9  C   UNL     1      -5.722 -12.707  17.008  0.00  0.00    +0.024 C 
ATOM     10  C   UNL     1      -4.462 -11.757  18.925  0.00  0.00    +0.019 C 
ATOM     11  C   UNL     1      -5.614  -9.903  16.940  0.00  0.00    +0.094 C 
ATOM     12  C   UNL     1      -5.573 -10.726  19.198  0.00  0.00    +0.085 C 
ENDROOT
BRANCH   7  14
ATOM      3  N   UNL     1      -2.544 -10.590  14.849  0.00  0.00    -0.270 N 
ATOM      5  N   UNL     1      -2.378 -10.573  13.515  0.00  0.00    -0.171 NA
ATOM     14  C   UNL     1      -3.849 -10.633  15.242  0.00  0.00    +0.044 A 
ATOM     15  C   UNL     1      -4.589 -10.645  14.086  0.00  0.00    +0.053 A 
ATOM     16  C   UNL     1      -3.632 -10.607  13.054  0.00  0.00    +0.093 A 
ATOM     18  C   UNL     1      -1.380 -10.560  15.705  0.00  0.00    +0.172 C 
BRANCH  16  19
ATOM     19  C   UNL     1      -3.891 -10.601  11.638  0.00  0.00    +0.003 A 
ATOM     21  C   UNL     1      -3.926 -11.804  10.931  0.00  0.00    +0.018 A 
ATOM     22  C   UNL     1      -4.107  -9.396  10.975  0.00  0.00    +0.011 A 
ATOM     24  C   UNL     1      -4.179 -11.815   9.549  0.00  0.00    -0.017 A 
ATOM     25  C   UNL     1      -4.359  -9.389   9.603  0.00  0.00    +0.009 A 
ATOM     26  C   UNL     1      -4.397 -10.590   8.875  0.00  0.00    -0.018 A 
ATOM     29  C   UNL     1      -4.217 -13.016   8.822  0.00  0.00    +0.008 A 
ATOM     30  C   UNL     1      -4.650 -10.602   7.494  0.00  0.00    +0.008 A 
ATOM     31  C   UNL     1      -4.469 -13.009   7.450  0.00  0.00    +0.001 A 
ATOM     32  C   UNL     1      -4.685 -11.804   6.787  0.00  0.00    +0.001 A 
ENDBRANCH  16  19
ENDBRANCH   7  14
BRANCH   8  13
ATOM     13  C   UNL     1      -8.054 -11.788  16.560  0.00  0.00    +0.100 C 
BRANCH  13   4
ATOM      4  N   UNL     1      -7.615 -12.175  15.229  0.00  0.00    -0.308 NA
ATOM     33  H   UNL     1      -7.279 -13.137  15.256  0.00  0.00    +0.122 HD
BRANCH   4  17
ATOM     17  C   UNL     1      -8.700 -12.056  14.264  0.00  0.00    +0.155 C 
BRANCH  17  20
ATOM      1  O   UNL     1      -8.192 -10.062  12.964  0.00  0.00    -0.467 OA
ATOM     20  C   UNL     1      -8.242 -11.419  12.978  0.00  0.00    +0.119 A 
ATOM     23  C   UNL     1      -7.846 -11.930  11.765  0.00  0.00    +0.046 A 
ATOM     27  C   UNL     1      -7.534 -10.815  10.951  0.00  0.00    +0.041 A 
ATOM     28  C   UNL     1      -7.760  -9.702  11.727  0.00  0.00    +0.195 A 
ENDBRANCH  17  20
ENDBRANCH   4  17
ENDBRANCH  13   4
ENDBRANCH   8  13
TORSDOF 6
ENDMDL
MODEL 5
REMARK VINA RESULT:      -6.7     24.399     28.251
REMARK  Name = 44716356
REMARK  7 active torsions:
REMARK  status: ('A' for Active; 'I' for Inactive)
REMARK    1  A    between atoms: N_3  and  C_18
REMARK    2  A    between atoms: N_4  and  C_13
REMARK    3  A    between atoms: N_4  and  C_17
REMARK    4  A    between atoms: C_7  and  C_14
REMARK    5  A    between atoms: C_8  and  C_13
REMARK    6  A    between atoms: C_16  and  C_19
REMARK    7  A    between atoms: C_17  and  C_20
REMARK                            x       y       z     vdW  Elec       q    Type
REMARK                         _______ _______ _______ _____ _____    ______ ____
ROOT
ATOM      2  N   UNL     1      -5.246 -12.766  17.093  0.00  0.00    -0.298 NA
ATOM      6  C   UNL     1      -5.617 -10.679  18.604  0.00  0.00    +0.002 C 
ATOM      7  C   UNL     1      -6.965 -11.405  18.340  0.00  0.00    +0.055 C 
ATOM      8  C   UNL     1      -4.590 -11.577  16.488  0.00  0.00    +0.071 C 
ATOM      9  C   UNL     1      -4.971 -10.294  17.256  0.00  0.00    +0.024 C 
ATOM     10  C   UNL     1      -4.683 -11.706  19.278  0.00  0.00    +0.019 C 
ATOM     11  C   UNL     1      -6.696 -12.509  17.277  0.00  0.00    +0.094 C 
ATOM     12  C   UNL     1      -4.642 -12.988  18.428  0.00  0.00    +0.085 C 
ENDROOT
BRANCH   7  14
ATOM      3  N   UNL     1      -9.336 -10.586  18.724  0.00  0.00    -0.270 N 
ATOM      5  N   UNL     1     -10.293  -9.766  18.257  0.00  0.00    -0.171 NA
ATOM     14  C   UNL     1      -8.182 -10.559  17.997  0.00  0.00    +0.044 A 
ATOM     15  C   UNL     1      -8.399  -9.657  16.984  0.00  0.00    +0.053 A 
ATOM     16  C   UNL     1      -9.714  -9.201  17.194  0.00  0.00    +0.093 A 
ATOM     18  C   UNL     1      -9.604 -11.388  19.896  0.00  0.00    +0.172 C 
BRANCH  16  19
ATOM     19  C   UNL     1     -10.428  -8.237  16.399  0.00  0.00    +0.003 A 
ATOM     21  C   UNL     1     -10.902  -8.590  15.135  0.00  0.00    +0.018 A 
ATOM     22  C   UNL     1     -10.649  -6.954  16.892  0.00  0.00    +0.011 A 
ATOM     24  C   UNL     1     -11.603  -7.662  14.347  0.00  0.00    -0.017 A 
ATOM     25  C   UNL     1     -11.343  -6.019  16.122  0.00  0.00    +0.009 A 
ATOM     26  C   UNL     1     -11.826  -6.358  14.848  0.00  0.00    -0.018 A 
ATOM     29  C   UNL     1     -12.085  -8.000  13.072  0.00  0.00    +0.008 A 
ATOM     30  C   UNL     1     -12.526  -5.430  14.060  0.00  0.00    +0.008 A 
ATOM     31  C   UNL     1     -12.779  -7.066  12.303  0.00  0.00    +0.001 A 
ATOM     32  C   UNL     1     -13.000  -5.783  12.796  0.00  0.00    +0.001 A 
ENDBRANCH  16  19
ENDBRANCH   7  14
BRANCH   8  13
ATOM     13  C   UNL     1      -4.879 -11.452  14.990  0.00  0.00    +0.100 C 
BRANCH  13   4
ATOM      4  N   UNL     1      -4.145 -10.337  14.414  0.00  0.00    -0.308 NA
ATOM     33  H   UNL     1      -3.659  -9.838  15.158  0.00  0.00    +0.122 HD
BRANCH   4  17
ATOM     17  C   UNL     1      -3.186 -10.799  13.419  0.00  0.00    +0.155 C 
BRANCH  17  20
ATOM      1  O   UNL     1      -4.644  -9.634  11.856  0.00  0.00    -0.467 OA
ATOM     20  C   UNL     1      -3.405 -10.143  12.081  0.00  0.00    +0.119 A 
ATOM     23  C   UNL     1      -2.593  -9.937  10.991  0.00  0.00    +0.046 A 
ATOM     27  C   UNL     1      -3.384  -9.258  10.034  0.00  0.00    +0.041 A 
ATOM     28  C   UNL     1      -4.623  -9.097  10.608  0.00  0.00    +0.195 A 
ENDBRANCH  17  20
ENDBRANCH   4  17
ENDBRANCH  13   4
ENDBRANCH   8  13
TORSDOF 6
ENDMDL
MODEL 6
REMARK VINA RESULT:      -6.5      3.380      7.969
REMARK  Name = 44716356
REMARK  7 active torsions:
REMARK  status: ('A' for Active; 'I' for Inactive)
REMARK    1  A    between atoms: N_3  and  C_18
REMARK    2  A    between atoms: N_4  and  C_13
REMARK    3  A    between atoms: N_4  and  C_17
REMARK    4  A    between atoms: C_7  and  C_14
REMARK    5  A    between atoms: C_8  and  C_13
REMARK    6  A    between atoms: C_16  and  C_19
REMARK    7  A    between atoms: C_17  and  C_20
REMARK                            x       y       z     vdW  Elec       q    Type
REMARK                         _______ _______ _______ _____ _____    ______ ____
ROOT
ATOM      2  N   UNL     1       9.054   7.396   5.337  0.00  0.00    -0.298 NA
ATOM      6  C   UNL     1      10.604   6.989   7.389  0.00  0.00    +0.002 C 
ATOM      7  C   UNL     1      10.943   8.346   6.713  0.00  0.00    +0.055 C 
ATOM      8  C   UNL     1       9.653   6.038   5.260  0.00  0.00    +0.071 C 
ATOM      9  C   UNL     1      10.730   5.854   6.351  0.00  0.00    +0.024 C 
ATOM     10  C   UNL     1       9.120   7.060   7.807  0.00  0.00    +0.019 C 
ATOM     11  C   UNL     1      10.125   8.422   5.391  0.00  0.00    +0.094 C 
ATOM     12  C   UNL     1       8.271   7.477   6.593  0.00  0.00    +0.085 C 
ENDROOT
BRANCH   7  14
ATOM      3  N   UNL     1      12.978   9.836   6.996  0.00  0.00    -0.270 N 
ATOM      5  N   UNL     1      14.283   9.962   6.702  0.00  0.00    -0.171 NA
ATOM     14  C   UNL     1      12.409   8.698   6.504  0.00  0.00    +0.044 A 
ATOM     15  C   UNL     1      13.412   8.033   5.842  0.00  0.00    +0.053 A 
ATOM     16  C   UNL     1      14.543   8.857   5.998  0.00  0.00    +0.093 A 
ATOM     18  C   UNL     1      12.325  10.868   7.768  0.00  0.00    +0.172 C 
BRANCH  16  19
ATOM     19  C   UNL     1      15.866   8.611   5.485  0.00  0.00    +0.003 A 
ATOM     21  C   UNL     1      16.968   8.685   6.337  0.00  0.00    +0.018 A 
ATOM     22  C   UNL     1      16.044   8.297   4.141  0.00  0.00    +0.011 A 
ATOM     24  C   UNL     1      18.265   8.446   5.853  0.00  0.00    -0.017 A 
ATOM     25  C   UNL     1      17.325   8.057   3.643  0.00  0.00    +0.009 A 
ATOM     26  C   UNL     1      18.446   8.128   4.486  0.00  0.00    -0.018 A 
ATOM     29  C   UNL     1      19.386   8.518   6.696  0.00  0.00    +0.008 A 
ATOM     30  C   UNL     1      19.742   7.890   4.002  0.00  0.00    +0.008 A 
ATOM     31  C   UNL     1      20.667   8.278   6.199  0.00  0.00    +0.001 A 
ATOM     32  C   UNL     1      20.845   7.964   4.854  0.00  0.00    +0.001 A 
ENDBRANCH  16  19
ENDBRANCH   7  14
BRANCH   8  13
ATOM     13  C   UNL     1      10.195   5.718   3.865  0.00  0.00    +0.100 C 
BRANCH  13   4
ATOM      4  N   UNL     1      10.930   4.463   3.871  0.00  0.00    -0.308 NA
ATOM     33  H   UNL     1      10.393   3.765   4.384  0.00  0.00    +0.122 HD
BRANCH   4  17
ATOM     17  C   UNL     1      11.182   3.996   2.514  0.00  0.00    +0.155 C 
BRANCH  17  20
ATOM      1  O   UNL     1      13.340   3.135   1.789  0.00  0.00    -0.467 OA
ATOM     20  C   UNL     1      12.606   4.238   2.091  0.00  0.00    +0.119 A 
ATOM     23  C   UNL     1      13.361   5.378   1.937  0.00  0.00    +0.046 A 
ATOM     27  C   UNL     1      14.641   4.947   1.514  0.00  0.00    +0.041 A 
ATOM     28  C   UNL     1      14.576   3.576   1.438  0.00  0.00    +0.195 A 
ENDBRANCH  17  20
ENDBRANCH   4  17
ENDBRANCH  13   4
ENDBRANCH   8  13
TORSDOF 6
ENDMDL
MODEL 7
REMARK VINA RESULT:      -6.5     23.007     26.090
REMARK  Name = 44716356
REMARK  7 active torsions:
REMARK  status: ('A' for Active; 'I' for Inactive)
REMARK    1  A    between atoms: N_3  and  C_18
REMARK    2  A    between atoms: N_4  and  C_13
REMARK    3  A    between atoms: N_4  and  C_17
REMARK    4  A    between atoms: C_7  and  C_14
REMARK    5  A    between atoms: C_8  and  C_13
REMARK    6  A    between atoms: C_16  and  C_19
REMARK    7  A    between atoms: C_17  and  C_20
REMARK                            x       y       z     vdW  Elec       q    Type
REMARK                         _______ _______ _______ _____ _____    ______ ____
ROOT
ATOM      2  N   UNL     1      -6.125 -10.338   9.165  0.00  0.00    -0.298 NA
ATOM      6  C   UNL     1      -4.370  -8.787  10.302  0.00  0.00    +0.002 C 
ATOM      7  C   UNL     1      -4.231 -10.242  10.828  0.00  0.00    +0.055 C 
ATOM      8  C   UNL     1      -6.791  -9.119   9.694  0.00  0.00    +0.071 C 
ATOM      9  C   UNL     1      -5.809  -8.289  10.549  0.00  0.00    +0.024 C 
ATOM     10  C   UNL     1      -4.166  -8.846   8.773  0.00  0.00    +0.019 C 
ATOM     11  C   UNL     1      -5.430 -11.056  10.263  0.00  0.00    +0.094 C 
ATOM     12  C   UNL     1      -5.108  -9.907   8.177  0.00  0.00    +0.085 C 
ENDROOT
BRANCH   7  14
ATOM      3  N   UNL     1      -2.828 -10.420  12.936  0.00  0.00    -0.270 N 
ATOM      5  N   UNL     1      -2.880 -10.627  14.262  0.00  0.00    -0.171 NA
ATOM     14  C   UNL     1      -4.047 -10.451  12.325  0.00  0.00    +0.044 A 
ATOM     15  C   UNL     1      -4.960 -10.695  13.321  0.00  0.00    +0.053 A 
ATOM     16  C   UNL     1      -4.186 -10.794  14.492  0.00  0.00    +0.093 A 
ATOM     18  C   UNL     1      -1.547 -10.198  12.306  0.00  0.00    +0.172 C 
BRANCH  16  19
ATOM     19  C   UNL     1      -4.667 -11.046  15.825  0.00  0.00    +0.003 A 
ATOM     21  C   UNL     1      -6.019 -11.321  16.038  0.00  0.00    +0.018 A 
ATOM     22  C   UNL     1      -3.784 -11.018  16.901  0.00  0.00    +0.011 A 
ATOM     24  C   UNL     1      -6.504 -11.570  17.333  0.00  0.00    -0.017 A 
ATOM     25  C   UNL     1      -4.249 -11.263  18.194  0.00  0.00    +0.009 A 
ATOM     26  C   UNL     1      -5.606 -11.541  18.426  0.00  0.00    -0.018 A 
ATOM     29  C   UNL     1      -7.861 -11.848  17.565  0.00  0.00    +0.008 A 
ATOM     30  C   UNL     1      -6.091 -11.791  19.720  0.00  0.00    +0.008 A 
ATOM     31  C   UNL     1      -8.326 -12.093  18.856  0.00  0.00    +0.001 A 
ATOM     32  C   UNL     1      -7.443 -12.065  19.932  0.00  0.00    +0.001 A 
ENDBRANCH  16  19
ENDBRANCH   7  14
BRANCH   8  13
ATOM     13  C   UNL     1      -8.078  -9.443  10.457  0.00  0.00    +0.100 C 
BRANCH  13   4
ATOM      4  N   UNL     1      -9.247  -9.039   9.693  0.00  0.00    -0.308 NA
ATOM     33  H   UNL     1      -9.902  -8.565  10.313  0.00  0.00    +0.122 HD
BRANCH   4  17
ATOM     17  C   UNL     1      -8.876  -8.155   8.595  0.00  0.00    +0.155 C 
BRANCH  17  20
ATOM      1  O   UNL     1     -10.678  -6.716   9.375  0.00  0.00    -0.467 OA
ATOM     20  C   UNL     1      -9.471  -6.781   8.754  0.00  0.00    +0.119 A 
ATOM     23  C   UNL     1      -9.044  -5.524   8.395  0.00  0.00    +0.046 A 
ATOM     27  C   UNL     1     -10.054  -4.629   8.822  0.00  0.00    +0.041 A 
ATOM     28  C   UNL     1     -11.025  -5.403   9.412  0.00  0.00    +0.195 A 
ENDBRANCH  17  20
ENDBRANCH   4  17
ENDBRANCH  13   4
ENDBRANCH   8  13
TORSDOF 6
ENDMDL
MODEL 8
REMARK VINA RESULT:      -6.4      2.509      4.165
REMARK  Name = 44716356
REMARK  7 active torsions:
REMARK  status: ('A' for Active; 'I' for Inactive)
REMARK    1  A    between atoms: N_3  and  C_18
REMARK    2  A    between atoms: N_4  and  C_13
REMARK    3  A    between atoms: N_4  and  C_17
REMARK    4  A    between atoms: C_7  and  C_14
REMARK    5  A    between atoms: C_8  and  C_13
REMARK    6  A    between atoms: C_16  and  C_19
REMARK    7  A    between atoms: C_17  and  C_20
REMARK                            x       y       z     vdW  Elec       q    Type
REMARK                         _______ _______ _______ _____ _____    ______ ____
ROOT
ATOM      2  N   UNL     1      11.454   8.322  -1.782  0.00  0.00    -0.298 NA
ATOM      6  C   UNL     1       8.928   7.925  -1.290  0.00  0.00    +0.002 C 
ATOM      7  C   UNL     1       9.600   8.677  -0.109  0.00  0.00    +0.055 C 
ATOM      8  C   UNL     1      11.107   6.896  -2.022  0.00  0.00    +0.071 C 
ATOM      9  C   UNL     1       9.672   6.596  -1.540  0.00  0.00    +0.024 C 
ATOM     10  C   UNL     1       9.129   8.801  -2.546  0.00  0.00    +0.019 C 
ATOM     11  C   UNL     1      11.131   8.696  -0.382  0.00  0.00    +0.094 C 
ATOM     12  C   UNL     1      10.622   9.150  -2.686  0.00  0.00    +0.085 C 
ENDROOT
BRANCH   7  14
ATOM      3  N   UNL     1       8.270   8.777   2.050  0.00  0.00    -0.270 N 
ATOM      5  N   UNL     1       8.143   8.241   3.276  0.00  0.00    -0.171 NA
ATOM     14  C   UNL     1       9.273   8.227   1.308  0.00  0.00    +0.044 A 
ATOM     15  C   UNL     1       9.842   7.263   2.103  0.00  0.00    +0.053 A 
ATOM     16  C   UNL     1       9.107   7.315   3.302  0.00  0.00    +0.093 A 
ATOM     18  C   UNL     1       7.377   9.840   1.650  0.00  0.00    +0.172 C 
BRANCH  16  19
ATOM     19  C   UNL     1       9.306   6.501   4.472  0.00  0.00    +0.003 A 
ATOM     21  C   UNL     1       8.985   7.003   5.733  0.00  0.00    +0.018 A 
ATOM     22  C   UNL     1       9.817   5.212   4.344  0.00  0.00    +0.011 A 
ATOM     24  C   UNL     1       9.173   6.221   6.885  0.00  0.00    -0.017 A 
ATOM     25  C   UNL     1      10.010   4.422   5.478  0.00  0.00    +0.009 A 
ATOM     26  C   UNL     1       9.693   4.912   6.756  0.00  0.00    -0.018 A 
ATOM     29  C   UNL     1       8.856   6.711   8.163  0.00  0.00    +0.008 A 
ATOM     30  C   UNL     1       9.880   4.130   7.906  0.00  0.00    +0.008 A 
ATOM     31  C   UNL     1       9.048   5.921   9.296  0.00  0.00    +0.001 A 
ATOM     32  C   UNL     1       9.559   4.632   9.168  0.00  0.00    +0.001 A 
ENDBRANCH  16  19
ENDBRANCH   7  14
BRANCH   8  13
ATOM     13  C   UNL     1      12.127   5.937  -1.405  0.00  0.00    +0.100 C 
BRANCH  13   4
ATOM      4  N   UNL     1      11.459   4.839  -0.726  0.00  0.00    -0.308 NA
ATOM     33  H   UNL     1      10.537   4.704  -1.138  0.00  0.00    +0.122 HD
BRANCH   4  17
ATOM     17  C   UNL     1      12.233   3.608  -0.831  0.00  0.00    +0.155 C 
BRANCH  17  20
ATOM      1  O   UNL     1      14.626   3.849  -0.456  0.00  0.00    -0.467 OA
ATOM     20  C   UNL     1      13.413   3.604   0.105  0.00  0.00    +0.119 A 
ATOM     23  C   UNL     1      13.539   3.398   1.458  0.00  0.00    +0.046 A 
ATOM     27  C   UNL     1      14.918   3.524   1.749  0.00  0.00    +0.041 A 
ATOM     28  C   UNL     1      15.536   3.799   0.551  0.00  0.00    +0.195 A 
ENDBRANCH  17  20
ENDBRANCH   4  17
ENDBRANCH  13   4
ENDBRANCH   8  13
TORSDOF 6
ENDMDL
MODEL 9
REMARK VINA RESULT:      -6.4     24.269     27.850
REMARK  Name = 44716356
REMARK  7 active torsions:
REMARK  status: ('A' for Active; 'I' for Inactive)
REMARK    1  A    between atoms: N_3  and  C_18
REMARK    2  A    between atoms: N_4  and  C_13
REMARK    3  A    between atoms: N_4  and  C_17
REMARK    4  A    between atoms: C_7  and  C_14
REMARK    5  A    between atoms: C_8  and  C_13
REMARK    6  A    between atoms: C_16  and  C_19
REMARK    7  A    between atoms: C_17  and  C_20
REMARK                            x       y       z     vdW  Elec       q    Type
REMARK                         _______ _______ _______ _____ _____    ______ ____
ROOT
ATOM      2  N   UNL     1      -6.734 -10.906  18.296  0.00  0.00    -0.298 NA
ATOM      6  C   UNL     1      -4.435 -12.058  17.888  0.00  0.00    +0.002 C 
ATOM      7  C   UNL     1      -4.547 -10.756  17.049  0.00  0.00    +0.055 C 
ATOM      8  C   UNL     1      -6.935 -12.345  17.983  0.00  0.00    +0.071 C 
ATOM      9  C   UNL     1      -5.608 -12.996  17.536  0.00  0.00    +0.024 C 
ATOM     10  C   UNL     1      -4.608 -11.650  19.367  0.00  0.00    +0.019 C 
ATOM     11  C   UNL     1      -6.008 -10.239  17.187  0.00  0.00    +0.094 C 
ATOM     12  C   UNL     1      -5.896 -10.820  19.516  0.00  0.00    +0.085 C 
ENDROOT
BRANCH   7  14
ATOM      3  N   UNL     1      -2.771 -10.710  15.236  0.00  0.00    -0.270 N 
ATOM      5  N   UNL     1      -2.571 -10.761  13.908  0.00  0.00    -0.171 NA
ATOM     14  C   UNL     1      -4.083 -10.793  15.600  0.00  0.00    +0.044 A 
ATOM     15  C   UNL     1      -4.791 -10.907  14.428  0.00  0.00    +0.053 A 
ATOM     16  C   UNL     1      -3.809 -10.882  13.420  0.00  0.00    +0.093 A 
ATOM     18  C   UNL     1      -1.634 -10.576  16.117  0.00  0.00    +0.172 C 
BRANCH  16  19
ATOM     19  C   UNL     1      -4.029 -10.969  12.000  0.00  0.00    +0.003 A 
ATOM     21  C   UNL     1      -4.812 -10.011  11.356  0.00  0.00    +0.018 A 
ATOM     22  C   UNL     1      -3.459 -12.009  11.270  0.00  0.00    +0.011 A 
ATOM     24  C   UNL     1      -5.035 -10.081   9.970  0.00  0.00    -0.017 A 
ATOM     25  C   UNL     1      -3.670 -12.094   9.893  0.00  0.00    +0.009 A 
ATOM     26  C   UNL     1      -4.457 -11.138   9.229  0.00  0.00    -0.018 A 
ATOM     29  C   UNL     1      -5.821  -9.126   9.306  0.00  0.00    +0.008 A 
ATOM     30  C   UNL     1      -4.679 -11.208   7.844  0.00  0.00    +0.008 A 
ATOM     31  C   UNL     1      -6.033  -9.210   7.930  0.00  0.00    +0.001 A 
ATOM     32  C   UNL     1      -5.463 -10.249   7.200  0.00  0.00    +0.001 A 
ENDBRANCH  16  19
ENDBRANCH   7  14
BRANCH   8  13
ATOM     13  C   UNL     1      -8.052 -12.568  16.960  0.00  0.00    +0.100 C 
BRANCH  13   4
ATOM      4  N   UNL     1      -9.281 -11.920  17.388  0.00  0.00    -0.308 NA
ATOM     33  H   UNL     1      -9.060 -11.222  18.097  0.00  0.00    +0.122 HD
BRANCH   4  17
ATOM     17  C   UNL     1      -9.959 -11.287  16.264  0.00  0.00    +0.155 C 
BRANCH  17  20
ATOM      1  O   UNL     1      -9.337  -9.052  16.998  0.00  0.00    -0.467 OA
ATOM     20  C   UNL     1     -10.339  -9.862  16.566  0.00  0.00    +0.119 A 
ATOM     23  C   UNL     1     -11.526  -9.171  16.500  0.00  0.00    +0.046 A 
ATOM     27  C   UNL     1     -11.235  -7.850  16.918  0.00  0.00    +0.041 A 
ATOM     28  C   UNL     1      -9.891  -7.829  17.209  0.00  0.00    +0.195 A 
ENDBRANCH  17  20
ENDBRANCH   4  17
ENDBRANCH  13   4
ENDBRANCH   8  13
TORSDOF 6
ENDMDL
MODEL 10
REMARK VINA RESULT:      -6.3     25.104     29.191
REMARK  Name = 44716356
REMARK  7 active torsions:
REMARK  status: ('A' for Active; 'I' for Inactive)
REMARK    1  A    between atoms: N_3  and  C_18
REMARK    2  A    between atoms: N_4  and  C_13
REMARK    3  A    between atoms: N_4  and  C_17
REMARK    4  A    between atoms: C_7  and  C_14
REMARK    5  A    between atoms: C_8  and  C_13
REMARK    6  A    between atoms: C_16  and  C_19
REMARK    7  A    between atoms: C_17  and  C_20
REMARK                            x       y       z     vdW  Elec       q    Type
REMARK                         _______ _______ _______ _____ _____    ______ ____
ROOT
ATOM      2  N   UNL     1     -12.382  -8.105  16.732  0.00  0.00    -0.298 NA
ATOM      6  C   UNL     1     -11.609 -10.374  15.715  0.00  0.00    +0.002 C 
ATOM      7  C   UNL     1     -11.058 -10.209  17.158  0.00  0.00    +0.055 C 
ATOM      8  C   UNL     1     -11.799  -7.884  15.383  0.00  0.00    +0.071 C 
ATOM      9  C   UNL     1     -11.149  -9.180  14.852  0.00  0.00    +0.024 C 
ATOM     10  C   UNL     1     -13.148 -10.294  15.816  0.00  0.00    +0.019 C 
ATOM     11  C   UNL     1     -11.387  -8.760  17.617  0.00  0.00    +0.094 C 
ATOM     12  C   UNL     1     -13.540  -9.019  16.583  0.00  0.00    +0.085 C 
ENDROOT
BRANCH   7  14
ATOM      3  N   UNL     1      -9.209 -11.337  18.482  0.00  0.00    -0.270 N 
ATOM      5  N   UNL     1      -7.884 -11.552  18.533  0.00  0.00    -0.171 NA
ATOM     14  C   UNL     1      -9.605 -10.580  17.418  0.00  0.00    +0.044 A 
ATOM     15  C   UNL     1      -8.458 -10.280  16.725  0.00  0.00    +0.053 A 
ATOM     16  C   UNL     1      -7.430 -10.904  17.456  0.00  0.00    +0.093 A 
ATOM     18  C   UNL     1     -10.056 -11.897  19.510  0.00  0.00    +0.172 C 
BRANCH  16  19
ATOM     19  C   UNL     1      -6.024 -10.893  17.149  0.00  0.00    +0.003 A 
ATOM     21  C   UNL     1      -5.600 -10.734  15.829  0.00  0.00    +0.018 A 
ATOM     22  C   UNL     1      -5.088 -11.038  18.168  0.00  0.00    +0.011 A 
ATOM     24  C   UNL     1      -4.232 -10.719  15.512  0.00  0.00    -0.017 A 
ATOM     25  C   UNL     1      -3.724 -11.026  17.872  0.00  0.00    +0.009 A 
ATOM     26  C   UNL     1      -3.280 -10.868  16.548  0.00  0.00    -0.018 A 
ATOM     29  C   UNL     1      -3.788 -10.561  14.189  0.00  0.00    +0.008 A 
ATOM     30  C   UNL     1      -1.912 -10.853  16.232  0.00  0.00    +0.008 A 
ATOM     31  C   UNL     1      -2.425 -10.549  13.893  0.00  0.00    +0.001 A 
ATOM     32  C   UNL     1      -1.489 -10.694  14.912  0.00  0.00    +0.001 A 
ENDBRANCH  16  19
ENDBRANCH   7  14
BRANCH   8  13
ATOM     13  C   UNL     1     -10.823  -6.705  15.356  0.00  0.00    +0.100 C 
BRANCH  13   4
ATOM      4  N   UNL     1     -11.478  -5.504  14.866  0.00  0.00    -0.308 NA
ATOM     33  H   UNL     1     -10.776  -4.880  14.469  0.00  0.00    +0.122 HD
BRANCH   4  17
ATOM     17  C   UNL     1     -12.480  -5.827  13.858  0.00  0.00    +0.155 C 
BRANCH  17  20
ATOM      1  O   UNL     1     -12.183  -5.670  11.447  0.00  0.00    -0.467 OA
ATOM     20  C   UNL     1     -12.318  -4.991  12.616  0.00  0.00    +0.119 A 
ATOM     23  C   UNL     1     -12.274  -3.634  12.395  0.00  0.00    +0.046 A 
ATOM     27  C   UNL     1     -12.100  -3.469  11.000  0.00  0.00    +0.041 A 
ATOM     28  C   UNL     1     -12.052  -4.736  10.469  0.00  0.00    +0.195 A 
ENDBRANCH  17  20
ENDBRANCH   4  17
ENDBRANCH  13   4
ENDBRANCH   8  13
TORSDOF 6
ENDMDL
