MODEL 1
REMARK VINA RESULT:      -7.0      0.000      0.000
REMARK  Name = 38028448
REMARK  12 active torsions:
REMARK  status: ('A' for Active; 'I' for Inactive)
REMARK    1  A    between atoms: N_3  and  C_14
REMARK    2  A    between atoms: N_4  and  C_21
REMARK    3  A    between atoms: N_5  and  C_22
REMARK    4  A    between atoms: C_7  and  C_11
REMARK    5  A    between atoms: C_8  and  C_14
REMARK    6  A    between atoms: C_10  and  C_15
REMARK    7  A    between atoms: C_11  and  C_16
REMARK    8  A    between atoms: C_11  and  C_17
REMARK    9  A    between atoms: C_12  and  C_18
REMARK   10  A    between atoms: C_15  and  C_19
REMARK   11  A    between atoms: C_21  and  C_23
REMARK   12  A    between atoms: C_22  and  C_24
REMARK                            x       y       z     vdW  Elec       q    Type
REMARK                         _______ _______ _______ _____ _____    ______ ____
ROOT
ATOM      7  C   UNL     1      -5.865  -9.841   7.469  0.00  0.00    +0.000 C 
ATOM      8  C   UNL     1      -7.182  -9.237   8.017  0.00  0.00    +0.032 C 
ATOM      9  C   UNL     1      -5.214 -10.752   8.520  0.00  0.00    +0.012 C 
ATOM     10  C   UNL     1      -4.900 -10.002   9.828  0.00  0.00    +0.023 C 
ATOM     12  C   UNL     1      -6.073  -9.163  10.292  0.00  0.00    -0.073 C 
ATOM     13  C   UNL     1      -7.090  -8.842   9.472  0.00  0.00    -0.022 C 
ATOM     18  C   UNL     1      -6.074  -8.740  11.735  0.00  0.00    +0.039 C 
ENDROOT
BRANCH   7  11
ATOM     11  C   UNL     1      -6.094 -10.625   6.173  0.00  0.00    -0.013 C 
ATOM     16  C   UNL     1      -4.820 -11.353   5.758  0.00  0.00    +0.007 C 
ATOM     17  C   UNL     1      -7.247 -11.609   6.344  0.00  0.00    +0.007 C 
ENDBRANCH   7  11
BRANCH   8  14
ATOM     14  C   UNL     1      -7.622  -8.025   7.187  0.00  0.00    +0.113 C 
BRANCH  14   3
ATOM      2  O   UNL     1     -10.100  -6.616   6.815  0.00  0.00    -0.253 OA
ATOM      3  N   UNL     1      -8.156  -7.000   8.027  0.00  0.00    -0.299 N 
ATOM      5  N   UNL     1      -9.665  -5.403   8.745  0.00  0.00    -0.295 N 
ATOM     20  C   UNL     1      -9.377  -6.359   7.777  0.00  0.00    +0.300 C 
ATOM     34  H   UNL     1      -7.613  -6.701   8.831  0.00  0.00    +0.150 HD
ATOM     36  H   UNL     1      -9.016  -5.281   9.517  0.00  0.00    +0.151 HD
BRANCH   5  22
ATOM     22  C   UNL     1     -10.863  -4.594   8.728  0.00  0.00    +0.141 C 
BRANCH  22  24
ATOM     24  C   UNL     1     -11.569  -4.610  10.052  0.00  0.00    -0.030 A 
ATOM     27  C   UNL     1     -11.799  -3.416  10.735  0.00  0.00    +0.005 A 
ATOM     28  C   UNL     1     -11.995  -5.820  10.601  0.00  0.00    +0.005 A 
ATOM     31  C   UNL     1     -12.454  -3.431  11.967  0.00  0.00    +0.000 A 
ATOM     32  C   UNL     1     -12.652  -5.835  11.831  0.00  0.00    +0.000 A 
ATOM     33  C   UNL     1     -12.880  -4.640  12.515  0.00  0.00    +0.000 A 
ENDBRANCH  22  24
ENDBRANCH   5  22
ENDBRANCH  14   3
ENDBRANCH   8  14
BRANCH  10  15
ATOM     15  C   UNL     1      -3.637  -9.146   9.683  0.00  0.00    +0.103 C 
BRANCH  15  19
ATOM      1  O   UNL     1      -1.482  -8.976  10.767  0.00  0.00    -0.276 OA
ATOM      4  N   UNL     1      -2.933 -10.687  11.370  0.00  0.00    -0.311 N 
ATOM     19  C   UNL     1      -2.552  -9.564  10.649  0.00  0.00    +0.214 C 
ATOM     35  H   UNL     1      -3.847 -11.093  11.190  0.00  0.00    +0.149 HD
BRANCH   4  21
ATOM     21  C   UNL     1      -2.092 -11.309  12.366  0.00  0.00    +0.141 C 
BRANCH  21  23
ATOM      6  N   UNL     1      -2.098 -10.812  16.114  0.00  0.00    -0.263 NA
ATOM     23  C   UNL     1      -2.588 -11.054  13.760  0.00  0.00    -0.012 A 
ATOM     25  C   UNL     1      -3.937 -10.830  14.010  0.00  0.00    +0.008 A 
ATOM     26  C   UNL     1      -1.717 -11.034  14.836  0.00  0.00    +0.115 A 
ATOM     29  C   UNL     1      -4.368 -10.596  15.311  0.00  0.00    +0.020 A 
ATOM     30  C   UNL     1      -3.417 -10.598  16.319  0.00  0.00    +0.111 A 
ENDBRANCH  21  23
ENDBRANCH   4  21
ENDBRANCH  15  19
ENDBRANCH  10  15
TORSDOF 9
ENDMDL
MODEL 2
REMARK VINA RESULT:      -6.9     27.468     31.022
REMARK  Name = 38028448
REMARK  12 active torsions:
REMARK  status: ('A' for Active; 'I' for Inactive)
REMARK    1  A    between atoms: N_3  and  C_14
REMARK    2  A    between atoms: N_4  and  C_21
REMARK    3  A    between atoms: N_5  and  C_22
REMARK    4  A    between atoms: C_7  and  C_11
REMARK    5  A    between atoms: C_8  and  C_14
REMARK    6  A    between atoms: C_10  and  C_15
REMARK    7  A    between atoms: C_11  and  C_16
REMARK    8  A    between atoms: C_11  and  C_17
REMARK    9  A    between atoms: C_12  and  C_18
REMARK   10  A    between atoms: C_15  and  C_19
REMARK   11  A    between atoms: C_21  and  C_23
REMARK   12  A    between atoms: C_22  and  C_24
REMARK                            x       y       z     vdW  Elec       q    Type
REMARK                         _______ _______ _______ _____ _____    ______ ____
ROOT
ATOM      7  C   UNL     1      12.356   8.989  20.628  0.00  0.00    +0.000 C 
ATOM      8  C   UNL     1      12.500   8.823  19.094  0.00  0.00    +0.032 C 
ATOM      9  C   UNL     1      12.384  10.477  21.011  0.00  0.00    +0.012 C 
ATOM     10  C   UNL     1      13.685  11.170  20.565  0.00  0.00    +0.023 C 
ATOM     12  C   UNL     1      14.038  10.833  19.130  0.00  0.00    -0.073 C 
ATOM     13  C   UNL     1      13.489   9.788  18.486  0.00  0.00    -0.022 C 
ATOM     18  C   UNL     1      15.005  11.753  18.437  0.00  0.00    +0.039 C 
ENDROOT
BRANCH   7  11
ATOM     11  C   UNL     1      11.071   8.343  21.153  0.00  0.00    -0.013 C 
ATOM     16  C   UNL     1      11.329   6.895  21.558  0.00  0.00    +0.007 C 
ATOM     17  C   UNL     1      10.514   9.142  22.327  0.00  0.00    +0.007 C 
ENDBRANCH   7  11
BRANCH   8  14
ATOM     14  C   UNL     1      12.896   7.388  18.729  0.00  0.00    +0.113 C 
BRANCH  14   3
ATOM      2  O   UNL     1      14.664   6.257  20.694  0.00  0.00    -0.253 OA
ATOM      3  N   UNL     1      14.316   7.263  18.630  0.00  0.00    -0.299 N 
ATOM      5  N   UNL     1      16.459   6.696  19.288  0.00  0.00    -0.295 N 
ATOM     20  C   UNL     1      15.112   6.697  19.636  0.00  0.00    +0.300 C 
ATOM     34  H   UNL     1      14.778   7.626  17.801  0.00  0.00    +0.150 HD
ATOM     36  H   UNL     1      16.727   7.059  18.379  0.00  0.00    +0.151 HD
BRANCH   5  22
ATOM     22  C   UNL     1      17.497   6.171  20.146  0.00  0.00    +0.141 C 
BRANCH  22  24
ATOM     24  C   UNL     1      18.165   7.252  20.944  0.00  0.00    -0.030 A 
ATOM     27  C   UNL     1      19.281   6.954  21.726  0.00  0.00    +0.005 A 
ATOM     28  C   UNL     1      17.670   8.555  20.904  0.00  0.00    +0.005 A 
ATOM     31  C   UNL     1      19.902   7.959  22.469  0.00  0.00    +0.000 A 
ATOM     32  C   UNL     1      18.291   9.561  21.645  0.00  0.00    +0.000 A 
ATOM     33  C   UNL     1      19.406   9.262  22.429  0.00  0.00    +0.000 A 
ENDBRANCH  22  24
ENDBRANCH   5  22
ENDBRANCH  14   3
ENDBRANCH   8  14
BRANCH  10  15
ATOM     15  C   UNL     1      14.843  10.830  21.509  0.00  0.00    +0.103 C 
BRANCH  15  19
ATOM      1  O   UNL     1      15.159  12.857  22.790  0.00  0.00    -0.276 OA
ATOM      4  N   UNL     1      14.380  10.943  23.852  0.00  0.00    -0.311 N 
ATOM     19  C   UNL     1      14.823  11.677  22.761  0.00  0.00    +0.214 C 
ATOM     35  H   UNL     1      14.126   9.968  23.712  0.00  0.00    +0.149 HD
BRANCH   4  21
ATOM     21  C   UNL     1      14.260  11.497  25.181  0.00  0.00    +0.141 C 
BRANCH  21  23
ATOM      6  N   UNL     1      11.838  14.208  26.219  0.00  0.00    -0.263 NA
ATOM     23  C   UNL     1      12.979  12.259  25.359  0.00  0.00    -0.012 A 
ATOM     25  C   UNL     1      11.777  11.765  24.863  0.00  0.00    +0.008 A 
ATOM     26  C   UNL     1      12.956  13.473  26.024  0.00  0.00    +0.115 A 
ATOM     29  C   UNL     1      10.605  12.492  25.043  0.00  0.00    +0.020 A 
ATOM     30  C   UNL     1      10.689  13.697  25.723  0.00  0.00    +0.111 A 
ENDBRANCH  21  23
ENDBRANCH   4  21
ENDBRANCH  15  19
ENDBRANCH  10  15
TORSDOF 9
ENDMDL
MODEL 3
REMARK VINA RESULT:      -6.9      2.510      4.319
REMARK  Name = 38028448
REMARK  12 active torsions:
REMARK  status: ('A' for Active; 'I' for Inactive)
REMARK    1  A    between atoms: N_3  and  C_14
REMARK    2  A    between atoms: N_4  and  C_21
REMARK    3  A    between atoms: N_5  and  C_22
REMARK    4  A    between atoms: C_7  and  C_11
REMARK    5  A    between atoms: C_8  and  C_14
REMARK    6  A    between atoms: C_10  and  C_15
REMARK    7  A    between atoms: C_11  and  C_16
REMARK    8  A    between atoms: C_11  and  C_17
REMARK    9  A    between atoms: C_12  and  C_18
REMARK   10  A    between atoms: C_15  and  C_19
REMARK   11  A    between atoms: C_21  and  C_23
REMARK   12  A    between atoms: C_22  and  C_24
REMARK                            x       y       z     vdW  Elec       q    Type
REMARK                         _______ _______ _______ _____ _____    ______ ____
ROOT
ATOM      7  C   UNL     1      -4.941 -10.600  11.016  0.00  0.00    +0.000 C 
ATOM      8  C   UNL     1      -4.482  -9.605   9.920  0.00  0.00    +0.032 C 
ATOM      9  C   UNL     1      -4.291 -10.251  12.363  0.00  0.00    +0.012 C 
ATOM     10  C   UNL     1      -2.753 -10.280  12.293  0.00  0.00    +0.023 C 
ATOM     12  C   UNL     1      -2.232  -9.539  11.078  0.00  0.00    -0.073 C 
ATOM     13  C   UNL     1      -3.022  -9.236  10.033  0.00  0.00    -0.022 C 
ATOM     18  C   UNL     1      -0.789  -9.115  11.111  0.00  0.00    +0.039 C 
ENDROOT
BRANCH   7  11
ATOM     11  C   UNL     1      -6.465 -10.618  11.165  0.00  0.00    -0.013 C 
ATOM     16  C   UNL     1      -6.870 -11.413  12.402  0.00  0.00    +0.007 C 
ATOM     17  C   UNL     1      -7.010  -9.195  11.234  0.00  0.00    +0.007 C 
ENDBRANCH   7  11
BRANCH   8  14
ATOM     14  C   UNL     1      -4.761 -10.160   8.518  0.00  0.00    +0.113 C 
BRANCH  14   3
ATOM      2  O   UNL     1      -7.510 -10.077   7.682  0.00  0.00    -0.253 OA
ATOM      3  N   UNL     1      -5.373  -9.168   7.692  0.00  0.00    -0.299 N 
ATOM      5  N   UNL     1      -7.066  -8.117   6.520  0.00  0.00    -0.295 N 
ATOM     20  C   UNL     1      -6.725  -9.198   7.327  0.00  0.00    +0.300 C 
ATOM     34  H   UNL     1      -4.794  -8.417   7.327  0.00  0.00    +0.150 HD
ATOM     36  H   UNL     1      -6.352  -7.429   6.303  0.00  0.00    +0.151 HD
BRANCH   5  22
ATOM     22  C   UNL     1      -8.398  -7.905   6.002  0.00  0.00    +0.141 C 
BRANCH  22  24
ATOM     24  C   UNL     1      -9.208  -7.004   6.888  0.00  0.00    -0.030 A 
ATOM     27  C   UNL     1     -10.601  -7.034   6.828  0.00  0.00    +0.005 A 
ATOM     28  C   UNL     1      -8.567  -6.135   7.771  0.00  0.00    +0.005 A 
ATOM     31  C   UNL     1     -11.353  -6.195   7.651  0.00  0.00    +0.000 A 
ATOM     32  C   UNL     1      -9.318  -5.297   8.594  0.00  0.00    +0.000 A 
ATOM     33  C   UNL     1     -10.712  -5.326   8.534  0.00  0.00    +0.000 A 
ENDBRANCH  22  24
ENDBRANCH   5  22
ENDBRANCH  14   3
ENDBRANCH   8  14
BRANCH  10  15
ATOM     15  C   UNL     1      -2.225 -11.718  12.327  0.00  0.00    +0.103 C 
BRANCH  15  19
ATOM      1  O   UNL     1      -1.352 -12.373  14.486  0.00  0.00    -0.276 OA
ATOM      4  N   UNL     1      -3.580 -12.794  13.978  0.00  0.00    -0.311 N 
ATOM     19  C   UNL     1      -2.303 -12.320  13.712  0.00  0.00    +0.214 C 
ATOM     35  H   UNL     1      -4.294 -12.695  13.261  0.00  0.00    +0.149 HD
BRANCH   4  21
ATOM     21  C   UNL     1      -3.946 -13.421  15.226  0.00  0.00    +0.141 C 
BRANCH  21  23
ATOM      6  N   UNL     1      -5.718 -12.021  18.259  0.00  0.00    -0.263 NA
ATOM     23  C   UNL     1      -4.504 -12.434  16.210  0.00  0.00    -0.012 A 
ATOM     25  C   UNL     1      -4.349 -11.066  16.017  0.00  0.00    +0.008 A 
ATOM     26  C   UNL     1      -5.190 -12.857  17.336  0.00  0.00    +0.115 A 
ATOM     29  C   UNL     1      -4.877 -10.174  16.944  0.00  0.00    +0.020 A 
ATOM     30  C   UNL     1      -5.547 -10.699  18.038  0.00  0.00    +0.111 A 
ENDBRANCH  21  23
ENDBRANCH   4  21
ENDBRANCH  15  19
ENDBRANCH  10  15
TORSDOF 9
ENDMDL
MODEL 4
REMARK VINA RESULT:      -6.8      5.675      8.490
REMARK  Name = 38028448
REMARK  12 active torsions:
REMARK  status: ('A' for Active; 'I' for Inactive)
REMARK    1  A    between atoms: N_3  and  C_14
REMARK    2  A    between atoms: N_4  and  C_21
REMARK    3  A    between atoms: N_5  and  C_22
REMARK    4  A    between atoms: C_7  and  C_11
REMARK    5  A    between atoms: C_8  and  C_14
REMARK    6  A    between atoms: C_10  and  C_15
REMARK    7  A    between atoms: C_11  and  C_16
REMARK    8  A    between atoms: C_11  and  C_17
REMARK    9  A    between atoms: C_12  and  C_18
REMARK   10  A    between atoms: C_15  and  C_19
REMARK   11  A    between atoms: C_21  and  C_23
REMARK   12  A    between atoms: C_22  and  C_24
REMARK                            x       y       z     vdW  Elec       q    Type
REMARK                         _______ _______ _______ _____ _____    ______ ____
ROOT
ATOM      7  C   UNL     1      -5.960 -10.534  15.403  0.00  0.00    +0.000 C 
ATOM      8  C   UNL     1      -6.694 -10.567  16.766  0.00  0.00    +0.032 C 
ATOM      9  C   UNL     1      -4.994 -11.723  15.286  0.00  0.00    +0.012 C 
ATOM     10  C   UNL     1      -3.940 -11.731  16.408  0.00  0.00    +0.023 C 
ATOM     12  C   UNL     1      -4.565 -11.498  17.768  0.00  0.00    -0.073 C 
ATOM     13  C   UNL     1      -5.801 -10.989  17.909  0.00  0.00    -0.022 C 
ATOM     18  C   UNL     1      -3.752 -11.907  18.966  0.00  0.00    +0.039 C 
ENDROOT
BRANCH   7  11
ATOM     11  C   UNL     1      -6.941 -10.546  14.227  0.00  0.00    -0.013 C 
ATOM     16  C   UNL     1      -6.189 -10.680  12.906  0.00  0.00    +0.007 C 
ATOM     17  C   UNL     1      -7.954 -11.674  14.390  0.00  0.00    +0.007 C 
ENDBRANCH   7  11
BRANCH   8  14
ATOM     14  C   UNL     1      -7.325  -9.207  17.087  0.00  0.00    +0.113 C 
BRANCH  14   3
ATOM      2  O   UNL     1     -10.159  -9.267  16.609  0.00  0.00    -0.253 OA
ATOM      3  N   UNL     1      -8.354  -9.342  18.069  0.00  0.00    -0.299 N 
ATOM      5  N   UNL     1     -10.508  -9.505  18.892  0.00  0.00    -0.295 N 
ATOM     20  C   UNL     1      -9.719  -9.363  17.754  0.00  0.00    +0.300 C 
ATOM     34  H   UNL     1      -8.086  -9.398  19.047  0.00  0.00    +0.150 HD
ATOM     36  H   UNL     1     -10.049  -9.602  19.792  0.00  0.00    +0.151 HD
BRANCH   5  22
ATOM     22  C   UNL     1     -11.952  -9.556  18.852  0.00  0.00    +0.141 C 
BRANCH  22  24
ATOM     24  C   UNL     1     -12.507 -10.511  19.869  0.00  0.00    -0.030 A 
ATOM     27  C   UNL     1     -13.690 -10.205  20.540  0.00  0.00    +0.005 A 
ATOM     28  C   UNL     1     -11.839 -11.704  20.142  0.00  0.00    +0.005 A 
ATOM     31  C   UNL     1     -14.206 -11.093  21.485  0.00  0.00    +0.000 A 
ATOM     32  C   UNL     1     -12.354 -12.593  21.086  0.00  0.00    +0.000 A 
ATOM     33  C   UNL     1     -13.537 -12.286  21.758  0.00  0.00    +0.000 A 
ENDBRANCH  22  24
ENDBRANCH   5  22
ENDBRANCH  14   3
ENDBRANCH   8  14
BRANCH  10  15
ATOM     15  C   UNL     1      -2.831 -10.710  16.131  0.00  0.00    +0.103 C 
BRANCH  15  19
ATOM      1  O   UNL     1      -1.371 -12.081  14.776  0.00  0.00    -0.276 OA
ATOM      4  N   UNL     1      -2.160 -10.067  13.927  0.00  0.00    -0.311 N 
ATOM     19  C   UNL     1      -2.035 -11.056  14.893  0.00  0.00    +0.214 C 
ATOM     35  H   UNL     1      -2.740  -9.258  14.133  0.00  0.00    +0.149 HD
BRANCH   4  21
ATOM     21  C   UNL     1      -1.506 -10.132  12.641  0.00  0.00    +0.141 C 
BRANCH  21  23
ATOM      6  N   UNL     1      -3.840 -12.058  10.373  0.00  0.00    -0.263 NA
ATOM     23  C   UNL     1      -2.473 -10.437  11.534  0.00  0.00    -0.012 A 
ATOM     25  C   UNL     1      -2.896  -9.443  10.658  0.00  0.00    +0.008 A 
ATOM     26  C   UNL     1      -2.970 -11.717  11.350  0.00  0.00    +0.115 A 
ATOM     29  C   UNL     1      -3.792  -9.754   9.641  0.00  0.00    +0.020 A 
ATOM     30  C   UNL     1      -4.229 -11.065   9.543  0.00  0.00    +0.111 A 
ENDBRANCH  21  23
ENDBRANCH   4  21
ENDBRANCH  15  19
ENDBRANCH  10  15
TORSDOF 9
ENDMDL
MODEL 5
REMARK VINA RESULT:      -6.8     19.585     21.968
REMARK  Name = 38028448
REMARK  12 active torsions:
REMARK  status: ('A' for Active; 'I' for Inactive)
REMARK    1  A    between atoms: N_3  and  C_14
REMARK    2  A    between atoms: N_4  and  C_21
REMARK    3  A    between atoms: N_5  and  C_22
REMARK    4  A    between atoms: C_7  and  C_11
REMARK    5  A    between atoms: C_8  and  C_14
REMARK    6  A    between atoms: C_10  and  C_15
REMARK    7  A    between atoms: C_11  and  C_16
REMARK    8  A    between atoms: C_11  and  C_17
REMARK    9  A    between atoms: C_12  and  C_18
REMARK   10  A    between atoms: C_15  and  C_19
REMARK   11  A    between atoms: C_21  and  C_23
REMARK   12  A    between atoms: C_22  and  C_24
REMARK                            x       y       z     vdW  Elec       q    Type
REMARK                         _______ _______ _______ _____ _____    ______ ____
ROOT
ATOM      7  C   UNL     1     -14.236   6.983  21.248  0.00  0.00    +0.000 C 
ATOM      8  C   UNL     1     -14.964   6.420  22.494  0.00  0.00    +0.032 C 
ATOM      9  C   UNL     1     -15.030   8.153  20.646  0.00  0.00    +0.012 C 
ATOM     10  C   UNL     1     -16.454   7.739  20.233  0.00  0.00    +0.023 C 
ATOM     12  C   UNL     1     -17.145   6.939  21.318  0.00  0.00    -0.073 C 
ATOM     13  C   UNL     1     -16.465   6.368  22.328  0.00  0.00    -0.022 C 
ATOM     18  C   UNL     1     -18.645   6.849  21.243  0.00  0.00    +0.039 C 
ENDROOT
BRANCH   7  11
ATOM     11  C   UNL     1     -12.812   7.439  21.579  0.00  0.00    -0.013 C 
ATOM     16  C   UNL     1     -11.791   6.580  20.839  0.00  0.00    +0.007 C 
ATOM     17  C   UNL     1     -12.631   8.914  21.232  0.00  0.00    +0.007 C 
ENDBRANCH   7  11
BRANCH   8  14
ATOM     14  C   UNL     1     -14.442   5.024  22.855  0.00  0.00    +0.113 C 
BRANCH  14   3
ATOM      2  O   UNL     1     -16.082   2.848  23.770  0.00  0.00    -0.253 OA
ATOM      3  N   UNL     1     -14.753   4.700  24.211  0.00  0.00    -0.299 N 
ATOM      5  N   UNL     1     -15.707   3.525  25.958  0.00  0.00    -0.295 N 
ATOM     20  C   UNL     1     -15.564   3.618  24.577  0.00  0.00    +0.300 C 
ATOM     34  H   UNL     1     -14.393   5.300  24.947  0.00  0.00    +0.150 HD
ATOM     36  H   UNL     1     -15.218   4.195  26.544  0.00  0.00    +0.151 HD
BRANCH   5  22
ATOM     22  C   UNL     1     -16.493   2.498  26.605  0.00  0.00    +0.141 C 
BRANCH  22  24
ATOM     24  C   UNL     1     -16.010   2.217  27.999  0.00  0.00    -0.030 A 
ATOM     27  C   UNL     1     -15.332   3.204  28.714  0.00  0.00    +0.005 A 
ATOM     28  C   UNL     1     -16.239   0.969  28.577  0.00  0.00    +0.005 A 
ATOM     31  C   UNL     1     -14.883   2.942  30.009  0.00  0.00    +0.000 A 
ATOM     32  C   UNL     1     -15.791   0.707  29.872  0.00  0.00    +0.000 A 
ATOM     33  C   UNL     1     -15.111   1.694  30.587  0.00  0.00    +0.000 A 
ENDBRANCH  22  24
ENDBRANCH   5  22
ENDBRANCH  14   3
ENDBRANCH   8  14
BRANCH  10  15
ATOM     15  C   UNL     1     -16.443   6.969  18.907  0.00  0.00    +0.103 C 
BRANCH  15  19
ATOM      1  O   UNL     1     -16.904   8.616  17.197  0.00  0.00    -0.276 OA
ATOM      4  N   UNL     1     -14.773   7.703  17.361  0.00  0.00    -0.311 N 
ATOM     19  C   UNL     1     -16.100   7.860  17.735  0.00  0.00    +0.214 C 
ATOM     35  H   UNL     1     -14.196   7.047  17.881  0.00  0.00    +0.149 HD
BRANCH   4  21
ATOM     21  C   UNL     1     -14.169   8.430  16.268  0.00  0.00    +0.141 C 
BRANCH  21  23
ATOM      6  N   UNL     1     -10.681   9.819  15.820  0.00  0.00    -0.263 NA
ATOM     23  C   UNL     1     -12.720   8.726  16.522  0.00  0.00    -0.012 A 
ATOM     25  C   UNL     1     -12.069   8.213  17.639  0.00  0.00    +0.008 A 
ATOM     26  C   UNL     1     -11.988   9.515  15.651  0.00  0.00    +0.115 A 
ATOM     29  C   UNL     1     -10.725   8.504  17.849  0.00  0.00    +0.020 A 
ATOM     30  C   UNL     1     -10.083   9.303  16.918  0.00  0.00    +0.111 A 
ENDBRANCH  21  23
ENDBRANCH   4  21
ENDBRANCH  15  19
ENDBRANCH  10  15
TORSDOF 9
ENDMDL
MODEL 6
REMARK VINA RESULT:      -6.7      3.916      6.593
REMARK  Name = 38028448
REMARK  12 active torsions:
REMARK  status: ('A' for Active; 'I' for Inactive)
REMARK    1  A    between atoms: N_3  and  C_14
REMARK    2  A    between atoms: N_4  and  C_21
REMARK    3  A    between atoms: N_5  and  C_22
REMARK    4  A    between atoms: C_7  and  C_11
REMARK    5  A    between atoms: C_8  and  C_14
REMARK    6  A    between atoms: C_10  and  C_15
REMARK    7  A    between atoms: C_11  and  C_16
REMARK    8  A    between atoms: C_11  and  C_17
REMARK    9  A    between atoms: C_12  and  C_18
REMARK   10  A    between atoms: C_15  and  C_19
REMARK   11  A    between atoms: C_21  and  C_23
REMARK   12  A    between atoms: C_22  and  C_24
REMARK                            x       y       z     vdW  Elec       q    Type
REMARK                         _______ _______ _______ _____ _____    ______ ____
ROOT
ATOM      7  C   UNL     1      -5.721 -10.598  15.111  0.00  0.00    +0.000 C 
ATOM      8  C   UNL     1      -6.610 -10.546  16.379  0.00  0.00    +0.032 C 
ATOM      9  C   UNL     1      -4.794 -11.822  15.156  0.00  0.00    +0.012 C 
ATOM     10  C   UNL     1      -3.878 -11.815  16.393  0.00  0.00    +0.023 C 
ATOM     12  C   UNL     1      -4.647 -11.501  17.660  0.00  0.00    -0.073 C 
ATOM     13  C   UNL     1      -5.872 -10.946  17.634  0.00  0.00    -0.022 C 
ATOM     18  C   UNL     1      -3.995 -11.882  18.961  0.00  0.00    +0.039 C 
ENDROOT
BRANCH   7  11
ATOM     11  C   UNL     1      -6.560 -10.630  13.829  0.00  0.00    -0.013 C 
ATOM     16  C   UNL     1      -6.007  -9.641  12.806  0.00  0.00    +0.007 C 
ATOM     17  C   UNL     1      -6.596 -12.041  13.251  0.00  0.00    +0.007 C 
ENDBRANCH   7  11
BRANCH   8  14
ATOM     14  C   UNL     1      -7.221  -9.153  16.567  0.00  0.00    +0.113 C 
BRANCH  14   3
ATOM      2  O   UNL     1      -9.539  -7.935  17.756  0.00  0.00    -0.253 OA
ATOM      3  N   UNL     1      -8.536  -9.095  16.011  0.00  0.00    -0.299 N 
ATOM      5  N   UNL     1     -10.783  -8.564  15.900  0.00  0.00    -0.295 N 
ATOM     20  C   UNL     1      -9.618  -8.480  16.655  0.00  0.00    +0.300 C 
ATOM     34  H   UNL     1      -8.704  -9.546  15.116  0.00  0.00    +0.150 HD
ATOM     36  H   UNL     1     -10.742  -9.013  14.990  0.00  0.00    +0.151 HD
BRANCH   5  22
ATOM     22  C   UNL     1     -12.047  -8.011  16.331  0.00  0.00    +0.141 C 
BRANCH  22  24
ATOM     24  C   UNL     1     -12.571  -6.988  15.365  0.00  0.00    -0.030 A 
ATOM     27  C   UNL     1     -11.693  -6.096  14.751  0.00  0.00    +0.005 A 
ATOM     28  C   UNL     1     -13.936  -6.929  15.084  0.00  0.00    +0.005 A 
ATOM     31  C   UNL     1     -12.180  -5.144  13.854  0.00  0.00    +0.000 A 
ATOM     32  C   UNL     1     -14.423  -5.979  14.187  0.00  0.00    +0.000 A 
ATOM     33  C   UNL     1     -13.545  -5.085  13.573  0.00  0.00    +0.000 A 
ENDBRANCH  22  24
ENDBRANCH   5  22
ENDBRANCH  14   3
ENDBRANCH   8  14
BRANCH  10  15
ATOM     15  C   UNL     1      -2.707 -10.843  16.207  0.00  0.00    +0.103 C 
BRANCH  15  19
ATOM      1  O   UNL     1      -1.240 -12.094  14.747  0.00  0.00    -0.276 OA
ATOM      4  N   UNL     1      -2.159 -10.093  14.004  0.00  0.00    -0.311 N 
ATOM     19  C   UNL     1      -1.947 -11.107  14.927  0.00  0.00    +0.214 C 
ATOM     35  H   UNL     1      -2.768  -9.321  14.261  0.00  0.00    +0.149 HD
BRANCH   4  21
ATOM     21  C   UNL     1      -1.557 -10.082  12.691  0.00  0.00    +0.141 C 
BRANCH  21  23
ATOM      6  N   UNL     1      -3.799  -9.906   9.651  0.00  0.00    -0.263 NA
ATOM     23  C   UNL     1      -2.528 -10.492  11.623  0.00  0.00    -0.012 A 
ATOM     25  C   UNL     1      -3.056 -11.778  11.590  0.00  0.00    +0.008 A 
ATOM     26  C   UNL     1      -2.928  -9.602  10.640  0.00  0.00    +0.115 A 
ATOM     29  C   UNL     1      -3.954 -12.130  10.588  0.00  0.00    +0.020 A 
ATOM     30  C   UNL     1      -4.291 -11.166   9.652  0.00  0.00    +0.111 A 
ENDBRANCH  21  23
ENDBRANCH   4  21
ENDBRANCH  15  19
ENDBRANCH  10  15
TORSDOF 9
ENDMDL
MODEL 7
REMARK VINA RESULT:      -6.7     23.430     26.401
REMARK  Name = 38028448
REMARK  12 active torsions:
REMARK  status: ('A' for Active; 'I' for Inactive)
REMARK    1  A    between atoms: N_3  and  C_14
REMARK    2  A    between atoms: N_4  and  C_21
REMARK    3  A    between atoms: N_5  and  C_22
REMARK    4  A    between atoms: C_7  and  C_11
REMARK    5  A    between atoms: C_8  and  C_14
REMARK    6  A    between atoms: C_10  and  C_15
REMARK    7  A    between atoms: C_11  and  C_16
REMARK    8  A    between atoms: C_11  and  C_17
REMARK    9  A    between atoms: C_12  and  C_18
REMARK   10  A    between atoms: C_15  and  C_19
REMARK   11  A    between atoms: C_21  and  C_23
REMARK   12  A    between atoms: C_22  and  C_24
REMARK                            x       y       z     vdW  Elec       q    Type
REMARK                         _______ _______ _______ _____ _____    ______ ____
ROOT
ATOM      7  C   UNL     1       9.608   7.158   4.262  0.00  0.00    +0.000 C 
ATOM      8  C   UNL     1       9.586   5.807   5.019  0.00  0.00    +0.032 C 
ATOM      9  C   UNL     1       9.405   6.932   2.756  0.00  0.00    +0.012 C 
ATOM     10  C   UNL     1      10.486   6.016   2.153  0.00  0.00    +0.023 C 
ATOM     12  C   UNL     1      10.712   4.780   2.999  0.00  0.00    -0.073 C 
ATOM     13  C   UNL     1      10.292   4.700   4.273  0.00  0.00    -0.022 C 
ATOM     18  C   UNL     1      11.394   3.618   2.330  0.00  0.00    +0.039 C 
ENDROOT
BRANCH   7  11
ATOM     11  C   UNL     1       8.543   8.124   4.789  0.00  0.00    -0.013 C 
ATOM     16  C   UNL     1       9.199   9.317   5.478  0.00  0.00    +0.007 C 
ATOM     17  C   UNL     1       7.635   8.587   3.654  0.00  0.00    +0.007 C 
ENDBRANCH   7  11
BRANCH   8  14
ATOM     14  C   UNL     1      10.195   5.948   6.419  0.00  0.00    +0.113 C 
BRANCH  14   3
ATOM      2  O   UNL     1      12.101   8.066   6.797  0.00  0.00    -0.253 OA
ATOM      3  N   UNL     1      11.618   5.836   6.368  0.00  0.00    -0.299 N 
ATOM      5  N   UNL     1      13.818   6.540   6.461  0.00  0.00    -0.295 N 
ATOM     20  C   UNL     1      12.484   6.920   6.563  0.00  0.00    +0.300 C 
ATOM     34  H   UNL     1      12.025   4.931   6.151  0.00  0.00    +0.150 HD
ATOM     36  H   UNL     1      14.033   5.563   6.291  0.00  0.00    +0.151 HD
BRANCH   5  22
ATOM     22  C   UNL     1      14.918   7.464   6.620  0.00  0.00    +0.141 C 
BRANCH  22  24
ATOM     24  C   UNL     1      15.606   7.746   5.316  0.00  0.00    -0.030 A 
ATOM     27  C   UNL     1      16.816   8.440   5.301  0.00  0.00    +0.005 A 
ATOM     28  C   UNL     1      15.034   7.316   4.119  0.00  0.00    +0.005 A 
ATOM     31  C   UNL     1      17.455   8.703   4.089  0.00  0.00    +0.000 A 
ATOM     32  C   UNL     1      15.673   7.578   2.907  0.00  0.00    +0.000 A 
ATOM     33  C   UNL     1      16.883   8.273   2.892  0.00  0.00    +0.000 A 
ENDBRANCH  22  24
ENDBRANCH   5  22
ENDBRANCH  14   3
ENDBRANCH   8  14
BRANCH  10  15
ATOM     15  C   UNL     1      11.797   6.780   1.935  0.00  0.00    +0.103 C 
BRANCH  15  19
ATOM      1  O   UNL     1      13.639   6.302   0.442  0.00  0.00    -0.276 OA
ATOM      4  N   UNL     1      11.472   6.348  -0.394  0.00  0.00    -0.311 N 
ATOM     19  C   UNL     1      12.432   6.452   0.603  0.00  0.00    +0.214 C 
ATOM     35  H   UNL     1      10.496   6.491  -0.146  0.00  0.00    +0.149 HD
BRANCH   4  21
ATOM     21  C   UNL     1      11.791   6.044  -1.769  0.00  0.00    +0.141 C 
BRANCH  21  23
ATOM      6  N   UNL     1       9.856   3.039  -3.004  0.00  0.00    -0.263 NA
ATOM     23  C   UNL     1      11.454   4.625  -2.125  0.00  0.00    -0.012 A 
ATOM     25  C   UNL     1      12.370   3.598  -1.920  0.00  0.00    +0.008 A 
ATOM     26  C   UNL     1      10.222   4.296  -2.664  0.00  0.00    +0.115 A 
ATOM     29  C   UNL     1      12.031   2.293  -2.258  0.00  0.00    +0.020 A 
ATOM     30  C   UNL     1      10.772   2.069  -2.792  0.00  0.00    +0.111 A 
ENDBRANCH  21  23
ENDBRANCH   4  21
ENDBRANCH  15  19
ENDBRANCH  10  15
TORSDOF 9
ENDMDL
MODEL 8
REMARK VINA RESULT:      -6.6      4.150      8.113
REMARK  Name = 38028448
REMARK  12 active torsions:
REMARK  status: ('A' for Active; 'I' for Inactive)
REMARK    1  A    between atoms: N_3  and  C_14
REMARK    2  A    between atoms: N_4  and  C_21
REMARK    3  A    between atoms: N_5  and  C_22
REMARK    4  A    between atoms: C_7  and  C_11
REMARK    5  A    between atoms: C_8  and  C_14
REMARK    6  A    between atoms: C_10  and  C_15
REMARK    7  A    between atoms: C_11  and  C_16
REMARK    8  A    between atoms: C_11  and  C_17
REMARK    9  A    between atoms: C_12  and  C_18
REMARK   10  A    between atoms: C_15  and  C_19
REMARK   11  A    between atoms: C_21  and  C_23
REMARK   12  A    between atoms: C_22  and  C_24
REMARK                            x       y       z     vdW  Elec       q    Type
REMARK                         _______ _______ _______ _____ _____    ______ ____
ROOT
ATOM      7  C   UNL     1      -4.199 -11.757  11.697  0.00  0.00    +0.000 C 
ATOM      8  C   UNL     1      -2.999 -11.014  11.057  0.00  0.00    +0.032 C 
ATOM      9  C   UNL     1      -5.490 -11.461  10.918  0.00  0.00    +0.012 C 
ATOM     10  C   UNL     1      -5.814  -9.956  10.877  0.00  0.00    +0.023 C 
ATOM     12  C   UNL     1      -4.598  -9.129  10.513  0.00  0.00    -0.073 C 
ATOM     13  C   UNL     1      -3.349  -9.622  10.587  0.00  0.00    -0.022 C 
ATOM     18  C   UNL     1      -4.854  -7.733  10.016  0.00  0.00    +0.039 C 
ENDROOT
BRANCH   7  11
ATOM     11  C   UNL     1      -3.965 -13.270  11.756  0.00  0.00    -0.013 C 
ATOM     16  C   UNL     1      -4.937 -13.921  12.736  0.00  0.00    +0.007 C 
ATOM     17  C   UNL     1      -4.103 -13.885  10.368  0.00  0.00    +0.007 C 
ENDBRANCH   7  11
BRANCH   8  14
ATOM     14  C   UNL     1      -1.814 -10.942  12.027  0.00  0.00    +0.113 C 
BRANCH  14   3
ATOM      2  O   UNL     1      -2.269 -12.310  14.514  0.00  0.00    -0.253 OA
ATOM      3  N   UNL     1      -2.207 -10.352  13.267  0.00  0.00    -0.299 N 
ATOM      5  N   UNL     1      -2.787 -10.275  15.504  0.00  0.00    -0.295 N 
ATOM     20  C   UNL     1      -2.410 -11.090  14.441  0.00  0.00    +0.300 C 
ATOM     34  H   UNL     1      -2.376  -9.351  13.295  0.00  0.00    +0.150 HD
ATOM     36  H   UNL     1      -2.852  -9.274  15.350  0.00  0.00    +0.151 HD
BRANCH   5  22
ATOM     22  C   UNL     1      -3.059 -10.780  16.830  0.00  0.00    +0.141 C 
BRANCH  22  24
ATOM     24  C   UNL     1      -4.480 -10.529  17.246  0.00  0.00    -0.030 A 
ATOM     27  C   UNL     1      -4.926 -10.950  18.498  0.00  0.00    +0.005 A 
ATOM     28  C   UNL     1      -5.354  -9.876  16.377  0.00  0.00    +0.005 A 
ATOM     31  C   UNL     1      -6.247 -10.717  18.883  0.00  0.00    +0.000 A 
ATOM     32  C   UNL     1      -6.675  -9.642  16.762  0.00  0.00    +0.000 A 
ATOM     33  C   UNL     1      -7.121 -10.064  18.015  0.00  0.00    +0.000 A 
ENDBRANCH  22  24
ENDBRANCH   5  22
ENDBRANCH  14   3
ENDBRANCH   8  14
BRANCH  10  15
ATOM     15  C   UNL     1      -6.420  -9.486  12.204  0.00  0.00    +0.103 C 
BRANCH  15  19
ATOM      1  O   UNL     1      -8.603  -9.772  11.203  0.00  0.00    -0.276 OA
ATOM      4  N   UNL     1      -8.428  -9.487  13.502  0.00  0.00    -0.311 N 
ATOM     19  C   UNL     1      -7.927  -9.601  12.213  0.00  0.00    +0.214 C 
ATOM     35  H   UNL     1      -7.773  -9.348  14.267  0.00  0.00    +0.149 HD
BRANCH   4  21
ATOM     21  C   UNL     1      -9.837  -9.557  13.811  0.00  0.00    +0.141 C 
BRANCH  21  23
ATOM      6  N   UNL     1     -10.106  -7.710  17.100  0.00  0.00    -0.263 NA
ATOM     23  C   UNL     1     -10.110  -9.280  15.261  0.00  0.00    -0.012 A 
ATOM     25  C   UNL     1     -10.597 -10.275  16.102  0.00  0.00    +0.008 A 
ATOM     26  C   UNL     1      -9.883  -8.026  15.804  0.00  0.00    +0.115 A 
ATOM     29  C   UNL     1     -10.840  -9.989  17.441  0.00  0.00    +0.020 A 
ATOM     30  C   UNL     1     -10.580  -8.703  17.886  0.00  0.00    +0.111 A 
ENDBRANCH  21  23
ENDBRANCH   4  21
ENDBRANCH  15  19
ENDBRANCH  10  15
TORSDOF 9
ENDMDL
MODEL 9
REMARK VINA RESULT:      -6.6     23.173     25.677
REMARK  Name = 38028448
REMARK  12 active torsions:
REMARK  status: ('A' for Active; 'I' for Inactive)
REMARK    1  A    between atoms: N_3  and  C_14
REMARK    2  A    between atoms: N_4  and  C_21
REMARK    3  A    between atoms: N_5  and  C_22
REMARK    4  A    between atoms: C_7  and  C_11
REMARK    5  A    between atoms: C_8  and  C_14
REMARK    6  A    between atoms: C_10  and  C_15
REMARK    7  A    between atoms: C_11  and  C_16
REMARK    8  A    between atoms: C_11  and  C_17
REMARK    9  A    between atoms: C_12  and  C_18
REMARK   10  A    between atoms: C_15  and  C_19
REMARK   11  A    between atoms: C_21  and  C_23
REMARK   12  A    between atoms: C_22  and  C_24
REMARK                            x       y       z     vdW  Elec       q    Type
REMARK                         _______ _______ _______ _____ _____    ______ ____
ROOT
ATOM      7  C   UNL     1       9.014   8.271   3.168  0.00  0.00    +0.000 C 
ATOM      8  C   UNL     1       8.020   7.936   4.309  0.00  0.00    +0.032 C 
ATOM      9  C   UNL     1       9.516   6.982   2.499  0.00  0.00    +0.012 C 
ATOM     10  C   UNL     1      10.217   6.042   3.496  0.00  0.00    +0.023 C 
ATOM     12  C   UNL     1       9.415   5.875   4.771  0.00  0.00    -0.073 C 
ATOM     13  C   UNL     1       8.429   6.724   5.111  0.00  0.00    -0.022 C 
ATOM     18  C   UNL     1       9.742   4.681   5.626  0.00  0.00    +0.039 C 
ENDROOT
BRANCH   7  11
ATOM     11  C   UNL     1       8.385   9.190   2.116  0.00  0.00    -0.013 C 
ATOM     16  C   UNL     1       8.938  10.606   2.247  0.00  0.00    +0.007 C 
ATOM     17  C   UNL     1       8.630   8.641   0.714  0.00  0.00    +0.007 C 
ENDBRANCH   7  11
BRANCH   8  14
ATOM     14  C   UNL     1       7.836   9.133   5.249  0.00  0.00    +0.113 C 
BRANCH  14   3
ATOM      2  O   UNL     1      10.370  10.491   5.305  0.00  0.00    -0.253 OA
ATOM      3  N   UNL     1       8.799   9.102   6.305  0.00  0.00    -0.299 N 
ATOM      5  N   UNL     1      10.768   9.597   7.410  0.00  0.00    -0.295 N 
ATOM     20  C   UNL     1      10.017   9.794   6.256  0.00  0.00    +0.300 C 
ATOM     34  H   UNL     1       8.606   8.528   7.120  0.00  0.00    +0.150 HD
ATOM     36  H   UNL     1      10.379   9.024   8.152  0.00  0.00    +0.151 HD
BRANCH   5  22
ATOM     22  C   UNL     1      12.067  10.196   7.621  0.00  0.00    +0.141 C 
BRANCH  22  24
ATOM     24  C   UNL     1      13.174   9.345   7.069  0.00  0.00    -0.030 A 
ATOM     27  C   UNL     1      13.052   7.956   7.068  0.00  0.00    +0.005 A 
ATOM     28  C   UNL     1      14.325   9.944   6.558  0.00  0.00    +0.005 A 
ATOM     31  C   UNL     1      14.081   7.165   6.556  0.00  0.00    +0.000 A 
ATOM     32  C   UNL     1      15.354   9.154   6.045  0.00  0.00    +0.000 A 
ATOM     33  C   UNL     1      15.232   7.764   6.045  0.00  0.00    +0.000 A 
ENDBRANCH  22  24
ENDBRANCH   5  22
ENDBRANCH  14   3
ENDBRANCH   8  14
BRANCH  10  15
ATOM     15  C   UNL     1      11.639   6.523   3.802  0.00  0.00    +0.103 C 
BRANCH  15  19
ATOM      1  O   UNL     1      13.613   6.626   2.408  0.00  0.00    -0.276 OA
ATOM      4  N   UNL     1      12.328   4.690   2.429  0.00  0.00    -0.311 N 
ATOM     19  C   UNL     1      12.647   5.986   2.811  0.00  0.00    +0.214 C 
ATOM     35  H   UNL     1      11.500   4.256   2.830  0.00  0.00    +0.149 HD
BRANCH   4  21
ATOM     21  C   UNL     1      13.116   3.927   1.490  0.00  0.00    +0.141 C 
BRANCH  21  23
ATOM      6  N   UNL     1      10.424   4.083  -1.161  0.00  0.00    -0.263 NA
ATOM     23  C   UNL     1      12.404   3.737   0.182  0.00  0.00    -0.012 A 
ATOM     25  C   UNL     1      13.012   3.068  -0.874  0.00  0.00    +0.008 A 
ATOM     26  C   UNL     1      11.120   4.221  -0.010  0.00  0.00    +0.115 A 
ATOM     29  C   UNL     1      12.329   2.906  -2.074  0.00  0.00    +0.020 A 
ATOM     30  C   UNL     1      11.048   3.428  -2.165  0.00  0.00    +0.111 A 
ENDBRANCH  21  23
ENDBRANCH   4  21
ENDBRANCH  15  19
ENDBRANCH  10  15
TORSDOF 9
ENDMDL
MODEL 10
REMARK VINA RESULT:      -6.6     27.091     31.041
REMARK  Name = 38028448
REMARK  12 active torsions:
REMARK  status: ('A' for Active; 'I' for Inactive)
REMARK    1  A    between atoms: N_3  and  C_14
REMARK    2  A    between atoms: N_4  and  C_21
REMARK    3  A    between atoms: N_5  and  C_22
REMARK    4  A    between atoms: C_7  and  C_11
REMARK    5  A    between atoms: C_8  and  C_14
REMARK    6  A    between atoms: C_10  and  C_15
REMARK    7  A    between atoms: C_11  and  C_16
REMARK    8  A    between atoms: C_11  and  C_17
REMARK    9  A    between atoms: C_12  and  C_18
REMARK   10  A    between atoms: C_15  and  C_19
REMARK   11  A    between atoms: C_21  and  C_23
REMARK   12  A    between atoms: C_22  and  C_24
REMARK                            x       y       z     vdW  Elec       q    Type
REMARK                         _______ _______ _______ _____ _____    ______ ____
ROOT
ATOM      7  C   UNL     1      12.666   8.655  20.740  0.00  0.00    +0.000 C 
ATOM      8  C   UNL     1      13.762   7.569  20.883  0.00  0.00    +0.032 C 
ATOM      9  C   UNL     1      11.820   8.401  19.483  0.00  0.00    +0.012 C 
ATOM     10  C   UNL     1      12.671   8.396  18.199  0.00  0.00    +0.023 C 
ATOM     12  C   UNL     1      13.921   7.553  18.356  0.00  0.00    -0.073 C 
ATOM     13  C   UNL     1      14.386   7.183  19.562  0.00  0.00    -0.022 C 
ATOM     18  C   UNL     1      14.600   7.107  17.091  0.00  0.00    +0.039 C 
ENDROOT
BRANCH   7  11
ATOM     11  C   UNL     1      11.758   8.712  21.972  0.00  0.00    -0.013 C 
ATOM     16  C   UNL     1      11.163  10.108  22.132  0.00  0.00    +0.007 C 
ATOM     17  C   UNL     1      10.655   7.663  21.870  0.00  0.00    +0.007 C 
ENDBRANCH   7  11
BRANCH   8  14
ATOM     14  C   UNL     1      14.860   8.017  21.854  0.00  0.00    +0.113 C 
BRANCH  14   3
ATOM      2  O   UNL     1      17.488   8.863  21.055  0.00  0.00    -0.253 OA
ATOM      3  N   UNL     1      16.020   7.193  21.725  0.00  0.00    -0.299 N 
ATOM      5  N   UNL     1      18.229   6.675  21.284  0.00  0.00    -0.295 N 
ATOM     20  C   UNL     1      17.271   7.683  21.328  0.00  0.00    +0.300 C 
ATOM     34  H   UNL     1      15.929   6.197  21.903  0.00  0.00    +0.150 HD
ATOM     36  H   UNL     1      17.958   5.734  21.553  0.00  0.00    +0.151 HD
BRANCH   5  22
ATOM     22  C   UNL     1      19.604   6.906  20.905  0.00  0.00    +0.141 C 
BRANCH  22  24
ATOM     24  C   UNL     1      20.503   5.785  21.342  0.00  0.00    -0.030 A 
ATOM     27  C   UNL     1      20.591   4.622  20.578  0.00  0.00    +0.005 A 
ATOM     28  C   UNL     1      21.249   5.908  22.514  0.00  0.00    +0.005 A 
ATOM     31  C   UNL     1      21.425   3.581  20.985  0.00  0.00    +0.000 A 
ATOM     32  C   UNL     1      22.084   4.867  22.922  0.00  0.00    +0.000 A 
ATOM     33  C   UNL     1      22.170   3.703  22.157  0.00  0.00    +0.000 A 
ENDBRANCH  22  24
ENDBRANCH   5  22
ENDBRANCH  14   3
ENDBRANCH   8  14
BRANCH  10  15
ATOM     15  C   UNL     1      13.023   9.823  17.764  0.00  0.00    +0.103 C 
BRANCH  15  19
ATOM      1  O   UNL     1      12.367   9.213  15.517  0.00  0.00    -0.276 OA
ATOM      4  N   UNL     1      13.625  11.137  15.859  0.00  0.00    -0.311 N 
ATOM     19  C   UNL     1      12.950   9.994  16.264  0.00  0.00    +0.214 C 
ATOM     35  H   UNL     1      14.073  11.713  16.567  0.00  0.00    +0.149 HD
BRANCH   4  21
ATOM     21  C   UNL     1      13.722  11.550  14.479  0.00  0.00    +0.141 C 
BRANCH  21  23
ATOM      6  N   UNL     1      16.700  12.537  12.368  0.00  0.00    -0.263 NA
ATOM     23  C   UNL     1      15.141  11.815  14.069  0.00  0.00    -0.012 A 
ATOM     25  C   UNL     1      16.194  11.600  14.952  0.00  0.00    +0.008 A 
ATOM     26  C   UNL     1      15.444  12.280  12.800  0.00  0.00    +0.115 A 
ATOM     29  C   UNL     1      17.499  11.853  14.545  0.00  0.00    +0.020 A 
ATOM     30  C   UNL     1      17.696  12.316  13.254  0.00  0.00    +0.111 A 
ENDBRANCH  21  23
ENDBRANCH   4  21
ENDBRANCH  15  19
ENDBRANCH  10  15
TORSDOF 9
ENDMDL
