MODEL 1
REMARK VINA RESULT:      -8.1      0.000      0.000
REMARK  Name = 45784228
REMARK  5 active torsions:
REMARK  status: ('A' for Active; 'I' for Inactive)
REMARK    1  A    between atoms: O_2  and  C_25
REMARK    2  A    between atoms: N_4  and  C_12
REMARK    3  A    between atoms: C_7  and  C_11
REMARK    4  A    between atoms: C_12  and  C_13
REMARK    5  A    between atoms: C_24  and  C_25
REMARK                            x       y       z     vdW  Elec       q    Type
REMARK                         _______ _______ _______ _____ _____    ______ ____
ROOT
ATOM      4  N   UNL     1      13.898   7.077  20.274  0.00  0.00    -0.297 NA
ATOM      7  C   UNL     1      12.671   8.260  21.885  0.00  0.00    +0.070 C 
ATOM      8  C   UNL     1      11.732   7.321  21.109  0.00  0.00    +0.028 C 
ATOM      9  C   UNL     1      13.943   8.332  21.028  0.00  0.00    +0.096 C 
ATOM     10  C   UNL     1      12.504   6.939  19.853  0.00  0.00    +0.085 C 
ENDROOT
BRANCH   7  11
ATOM      1  F   UNL     1       9.825  14.206  24.937  0.00  0.00    -0.205 F 
ATOM      5  N   UNL     1      11.721   9.961  23.468  0.00  0.00    -0.341 N 
ATOM      6  N   UNL     1      11.886  10.601  21.346  0.00  0.00    -0.232 NA
ATOM     11  C   UNL     1      12.094   9.622  22.198  0.00  0.00    +0.113 A 
ATOM     14  C   UNL     1      11.239  11.244  23.434  0.00  0.00    +0.069 A 
ATOM     15  C   UNL     1      11.353  11.621  22.100  0.00  0.00    +0.089 A 
ATOM     18  C   UNL     1      10.730  12.082  24.427  0.00  0.00    +0.066 A 
ATOM     19  C   UNL     1      10.938  12.907  21.714  0.00  0.00    +0.032 A 
ATOM     22  C   UNL     1      10.323  13.358  24.026  0.00  0.00    +0.125 A 
ATOM     23  C   UNL     1      10.423  13.766  22.693  0.00  0.00    +0.040 A 
ATOM     26  H   UNL     1      11.787   9.373  24.288  0.00  0.00    +0.167 HD
ENDBRANCH   7  11
BRANCH   4  12
ATOM     12  C   UNL     1      14.820   7.073  19.148  0.00  0.00    +0.119 C 
BRANCH  12  13
ATOM     13  C   UNL     1      16.210   6.669  19.562  0.00  0.00    -0.033 A 
ATOM     16  C   UNL     1      16.763   7.182  20.736  0.00  0.00    +0.006 A 
ATOM     17  C   UNL     1      16.944   5.785  18.774  0.00  0.00    +0.006 A 
ATOM     20  C   UNL     1      18.050   6.808  21.122  0.00  0.00    +0.015 A 
ATOM     21  C   UNL     1      18.232   5.411  19.158  0.00  0.00    +0.015 A 
ATOM     24  C   UNL     1      18.785   5.923  20.332  0.00  0.00    +0.059 A 
BRANCH  24  25
ATOM      3  O   UNL     1      20.650   5.782  21.826  0.00  0.00    -0.245 OA
ATOM     25  C   UNL     1      20.127   5.533  20.734  0.00  0.00    +0.337 C 
BRANCH  25   2
ATOM      2  O   UNL     1      20.781   4.842  19.761  0.00  0.00    -0.477 OA
ATOM     27  H   UNL     1      20.177   4.577  19.033  0.00  0.00    +0.295 HD
ENDBRANCH  25   2
ENDBRANCH  24  25
ENDBRANCH  12  13
ENDBRANCH   4  12
TORSDOF 5
ENDMDL
MODEL 2
REMARK VINA RESULT:      -7.9     18.160     20.835
REMARK  Name = 45784228
REMARK  5 active torsions:
REMARK  status: ('A' for Active; 'I' for Inactive)
REMARK    1  A    between atoms: O_2  and  C_25
REMARK    2  A    between atoms: N_4  and  C_12
REMARK    3  A    between atoms: C_7  and  C_11
REMARK    4  A    between atoms: C_12  and  C_13
REMARK    5  A    between atoms: C_24  and  C_25
REMARK                            x       y       z     vdW  Elec       q    Type
REMARK                         _______ _______ _______ _____ _____    ______ ____
ROOT
ATOM      4  N   UNL     1      10.871   5.620   4.058  0.00  0.00    -0.297 NA
ATOM      7  C   UNL     1      11.977   4.566   2.278  0.00  0.00    +0.070 C 
ATOM      8  C   UNL     1      12.630   5.932   2.554  0.00  0.00    +0.028 C 
ATOM      9  C   UNL     1      10.629   4.625   3.010  0.00  0.00    +0.096 C 
ATOM     10  C   UNL     1      11.613   6.693   3.395  0.00  0.00    +0.085 C 
ENDROOT
BRANCH   7  11
ATOM      1  F   UNL     1       9.985   3.868  -4.672  0.00  0.00    -0.205 F 
ATOM      5  N   UNL     1      10.826   4.724   0.054  0.00  0.00    -0.341 N 
ATOM      6  N   UNL     1      12.620   3.415   0.122  0.00  0.00    -0.232 NA
ATOM     11  C   UNL     1      11.838   4.212   0.815  0.00  0.00    +0.113 A 
ATOM     14  C   UNL     1      10.963   4.224  -1.216  0.00  0.00    +0.069 A 
ATOM     15  C   UNL     1      12.090   3.411  -1.147  0.00  0.00    +0.089 A 
ATOM     18  C   UNL     1      10.221   4.410  -2.383  0.00  0.00    +0.066 A 
ATOM     19  C   UNL     1      12.516   2.733  -2.302  0.00  0.00    +0.032 A 
ATOM     22  C   UNL     1      10.659   3.728  -3.522  0.00  0.00    +0.125 A 
ATOM     23  C   UNL     1      11.787   2.903  -3.485  0.00  0.00    +0.040 A 
ATOM     26  H   UNL     1      10.102   5.358   0.367  0.00  0.00    +0.167 HD
ENDBRANCH   7  11
BRANCH   4  12
ATOM     12  C   UNL     1       9.638   6.095   4.668  0.00  0.00    +0.119 C 
BRANCH  12  13
ATOM     13  C   UNL     1       9.568   5.752   6.132  0.00  0.00    -0.033 A 
ATOM     16  C   UNL     1       9.858   4.456   6.558  0.00  0.00    +0.006 A 
ATOM     17  C   UNL     1       9.214   6.729   7.061  0.00  0.00    +0.006 A 
ATOM     20  C   UNL     1       9.795   4.137   7.915  0.00  0.00    +0.015 A 
ATOM     21  C   UNL     1       9.150   6.412   8.418  0.00  0.00    +0.015 A 
ATOM     24  C   UNL     1       9.440   5.115   8.845  0.00  0.00    +0.059 A 
BRANCH  24  25
ATOM      3  O   UNL     1      10.343   4.516  10.978  0.00  0.00    -0.245 OA
ATOM     25  C   UNL     1       9.375   4.784  10.259  0.00  0.00    +0.337 C 
BRANCH  25   2
ATOM      2  O   UNL     1       8.100   4.796  10.738  0.00  0.00    -0.477 OA
ATOM     27  H   UNL     1       7.445   4.600  10.034  0.00  0.00    +0.295 HD
ENDBRANCH  25   2
ENDBRANCH  24  25
ENDBRANCH  12  13
ENDBRANCH   4  12
TORSDOF 5
ENDMDL
MODEL 3
REMARK VINA RESULT:      -7.7     17.264     19.189
REMARK  Name = 45784228
REMARK  5 active torsions:
REMARK  status: ('A' for Active; 'I' for Inactive)
REMARK    1  A    between atoms: O_2  and  C_25
REMARK    2  A    between atoms: N_4  and  C_12
REMARK    3  A    between atoms: C_7  and  C_11
REMARK    4  A    between atoms: C_12  and  C_13
REMARK    5  A    between atoms: C_24  and  C_25
REMARK                            x       y       z     vdW  Elec       q    Type
REMARK                         _______ _______ _______ _____ _____    ______ ____
ROOT
ATOM      4  N   UNL     1      11.898   4.242   1.848  0.00  0.00    -0.297 NA
ATOM      7  C   UNL     1      10.438   5.319   3.334  0.00  0.00    +0.070 C 
ATOM      8  C   UNL     1      11.479   6.325   2.815  0.00  0.00    +0.028 C 
ATOM      9  C   UNL     1      11.017   3.942   2.980  0.00  0.00    +0.096 C 
ATOM     10  C   UNL     1      12.595   5.471   2.227  0.00  0.00    +0.085 C 
ENDROOT
BRANCH   7  11
ATOM      1  F   UNL     1       9.276   4.379  10.442  0.00  0.00    -0.205 F 
ATOM      5  N   UNL     1      10.243   4.406   5.663  0.00  0.00    -0.341 N 
ATOM      6  N   UNL     1       9.645   6.530   5.405  0.00  0.00    -0.232 NA
ATOM     11  C   UNL     1      10.097   5.455   4.800  0.00  0.00    +0.113 A 
ATOM     14  C   UNL     1       9.858   4.832   6.909  0.00  0.00    +0.069 A 
ATOM     15  C   UNL     1       9.490   6.160   6.722  0.00  0.00    +0.089 A 
ATOM     18  C   UNL     1       9.803   4.188   8.146  0.00  0.00    +0.066 A 
ATOM     19  C   UNL     1       9.036   6.907   7.822  0.00  0.00    +0.032 A 
ATOM     22  C   UNL     1       9.350   4.946   9.230  0.00  0.00    +0.125 A 
ATOM     23  C   UNL     1       8.972   6.282   9.074  0.00  0.00    +0.040 A 
ATOM     26  H   UNL     1      10.574   3.479   5.429  0.00  0.00    +0.167 HD
ENDBRANCH   7  11
BRANCH   4  12
ATOM     12  C   UNL     1      12.817   3.152   1.556  0.00  0.00    +0.119 C 
BRANCH  12  13
ATOM     13  C   UNL     1      13.878   3.561   0.570  0.00  0.00    -0.033 A 
ATOM     16  C   UNL     1      13.533   3.815  -0.758  0.00  0.00    +0.006 A 
ATOM     17  C   UNL     1      15.204   3.686   0.982  0.00  0.00    +0.006 A 
ATOM     20  C   UNL     1      14.515   4.195  -1.673  0.00  0.00    +0.015 A 
ATOM     21  C   UNL     1      16.186   4.065   0.067  0.00  0.00    +0.015 A 
ATOM     24  C   UNL     1      15.841   4.319  -1.260  0.00  0.00    +0.059 A 
BRANCH  24  25
ATOM      3  O   UNL     1      16.660   5.073  -3.379  0.00  0.00    -0.245 OA
ATOM     25  C   UNL     1      16.866   4.716  -2.214  0.00  0.00    +0.337 C 
BRANCH  25   2
ATOM      2  O   UNL     1      18.119   4.656  -1.686  0.00  0.00    -0.477 OA
ATOM     27  H   UNL     1      18.567   5.529  -1.712  0.00  0.00    +0.295 HD
ENDBRANCH  25   2
ENDBRANCH  24  25
ENDBRANCH  12  13
ENDBRANCH   4  12
TORSDOF 5
ENDMDL
MODEL 4
REMARK VINA RESULT:      -7.5     26.780     28.544
REMARK  Name = 45784228
REMARK  5 active torsions:
REMARK  status: ('A' for Active; 'I' for Inactive)
REMARK    1  A    between atoms: O_2  and  C_25
REMARK    2  A    between atoms: N_4  and  C_12
REMARK    3  A    between atoms: C_7  and  C_11
REMARK    4  A    between atoms: C_12  and  C_13
REMARK    5  A    between atoms: C_24  and  C_25
REMARK                            x       y       z     vdW  Elec       q    Type
REMARK                         _______ _______ _______ _____ _____    ______ ____
ROOT
ATOM      4  N   UNL     1      -1.959 -10.956  13.871  0.00  0.00    -0.297 NA
ATOM      7  C   UNL     1      -3.136 -10.192  15.751  0.00  0.00    +0.070 C 
ATOM      8  C   UNL     1      -1.755 -10.711  16.184  0.00  0.00    +0.028 C 
ATOM      9  C   UNL     1      -3.334 -10.749  14.334  0.00  0.00    +0.096 C 
ATOM     10  C   UNL     1      -1.263 -11.551  15.012  0.00  0.00    +0.085 C 
ENDROOT
BRANCH   7  11
ATOM      1  F   UNL     1      -9.382 -10.671  19.428  0.00  0.00    -0.205 F 
ATOM      5  N   UNL     1      -5.466  -9.885  16.631  0.00  0.00    -0.341 N 
ATOM      6  N   UNL     1      -4.261 -11.470  17.618  0.00  0.00    -0.232 NA
ATOM     11  C   UNL     1      -4.270 -10.544  16.686  0.00  0.00    +0.113 A 
ATOM     14  C   UNL     1      -6.284 -10.422  17.593  0.00  0.00    +0.069 A 
ATOM     15  C   UNL     1      -5.510 -11.409  18.194  0.00  0.00    +0.089 A 
ATOM     18  C   UNL     1      -7.596 -10.137  17.975  0.00  0.00    +0.066 A 
ATOM     19  C   UNL     1      -6.059 -12.167  19.241  0.00  0.00    +0.032 A 
ATOM     22  C   UNL     1      -8.127 -10.901  19.018  0.00  0.00    +0.125 A 
ATOM     23  C   UNL     1      -7.374 -11.899  19.643  0.00  0.00    +0.040 A 
ATOM     26  H   UNL     1      -5.709  -9.135  15.997  0.00  0.00    +0.167 HD
ENDBRANCH   7  11
BRANCH   4  12
ATOM     12  C   UNL     1      -1.894 -11.795  12.684  0.00  0.00    +0.119 C 
BRANCH  12  13
ATOM     13  C   UNL     1      -2.689 -11.216  11.544  0.00  0.00    -0.033 A 
ATOM     16  C   UNL     1      -3.632 -12.003  10.883  0.00  0.00    +0.006 A 
ATOM     17  C   UNL     1      -2.483  -9.895  11.149  0.00  0.00    +0.006 A 
ATOM     20  C   UNL     1      -4.370 -11.467   9.827  0.00  0.00    +0.015 A 
ATOM     21  C   UNL     1      -3.219  -9.359  10.093  0.00  0.00    +0.015 A 
ATOM     24  C   UNL     1      -4.163 -10.146   9.431  0.00  0.00    +0.059 A 
BRANCH  24  25
ATOM      3  O   UNL     1      -5.188 -10.165   7.268  0.00  0.00    -0.245 OA
ATOM     25  C   UNL     1      -4.932  -9.587   8.330  0.00  0.00    +0.337 C 
BRANCH  25   2
ATOM      2  O   UNL     1      -5.362  -8.321   8.586  0.00  0.00    -0.477 OA
ATOM     27  H   UNL     1      -4.923  -7.662   8.005  0.00  0.00    +0.295 HD
ENDBRANCH  25   2
ENDBRANCH  24  25
ENDBRANCH  12  13
ENDBRANCH   4  12
TORSDOF 5
ENDMDL
MODEL 5
REMARK VINA RESULT:      -7.4     14.700     15.987
REMARK  Name = 45784228
REMARK  5 active torsions:
REMARK  status: ('A' for Active; 'I' for Inactive)
REMARK    1  A    between atoms: O_2  and  C_25
REMARK    2  A    between atoms: N_4  and  C_12
REMARK    3  A    between atoms: C_7  and  C_11
REMARK    4  A    between atoms: C_12  and  C_13
REMARK    5  A    between atoms: C_24  and  C_25
REMARK                            x       y       z     vdW  Elec       q    Type
REMARK                         _______ _______ _______ _____ _____    ______ ____
ROOT
ATOM      4  N   UNL     1      16.218   8.536   5.294  0.00  0.00    -0.297 NA
ATOM      7  C   UNL     1      14.108   7.515   5.190  0.00  0.00    +0.070 C 
ATOM      8  C   UNL     1      14.144   8.722   4.237  0.00  0.00    +0.028 C 
ATOM      9  C   UNL     1      15.323   7.709   6.108  0.00  0.00    +0.096 C 
ATOM     10  C   UNL     1      15.349   9.541   4.682  0.00  0.00    +0.085 C 
ENDROOT
BRANCH   7  11
ATOM      1  F   UNL     1       8.658   5.360   9.481  0.00  0.00    -0.205 F 
ATOM      5  N   UNL     1      12.633   6.305   6.821  0.00  0.00    -0.341 N 
ATOM      6  N   UNL     1      11.758   8.123   5.891  0.00  0.00    -0.232 NA
ATOM     11  C   UNL     1      12.815   7.345   5.953  0.00  0.00    +0.113 A 
ATOM     14  C   UNL     1      11.375   6.419   7.353  0.00  0.00    +0.069 A 
ATOM     15  C   UNL     1      10.849   7.561   6.758  0.00  0.00    +0.089 A 
ATOM     18  C   UNL     1      10.673   5.644   8.279  0.00  0.00    +0.066 A 
ATOM     19  C   UNL     1       9.547   7.969   7.091  0.00  0.00    +0.032 A 
ATOM     22  C   UNL     1       9.379   6.065   8.599  0.00  0.00    +0.125 A 
ATOM     23  C   UNL     1       8.823   7.208   8.017  0.00  0.00    +0.040 A 
ATOM     26  H   UNL     1      13.304   5.579   7.034  0.00  0.00    +0.167 HD
ENDBRANCH   7  11
BRANCH   4  12
ATOM     12  C   UNL     1      17.289   9.132   6.078  0.00  0.00    +0.119 C 
BRANCH  12  13
ATOM     13  C   UNL     1      18.637   8.585   5.692  0.00  0.00    -0.033 A 
ATOM     16  C   UNL     1      18.860   8.135   4.390  0.00  0.00    +0.006 A 
ATOM     17  C   UNL     1      19.663   8.529   6.634  0.00  0.00    +0.006 A 
ATOM     20  C   UNL     1      20.109   7.629   4.031  0.00  0.00    +0.015 A 
ATOM     21  C   UNL     1      20.913   8.023   6.276  0.00  0.00    +0.015 A 
ATOM     24  C   UNL     1      21.135   7.572   4.975  0.00  0.00    +0.059 A 
BRANCH  24  25
ATOM      3  O   UNL     1      23.515   7.637   4.731  0.00  0.00    -0.245 OA
ATOM     25  C   UNL     1      22.438   7.045   4.601  0.00  0.00    +0.337 C 
BRANCH  25   2
ATOM      2  O   UNL     1      22.361   5.792   4.075  0.00  0.00    -0.477 OA
ATOM     27  H   UNL     1      21.489   5.626   3.655  0.00  0.00    +0.295 HD
ENDBRANCH  25   2
ENDBRANCH  24  25
ENDBRANCH  12  13
ENDBRANCH   4  12
TORSDOF 5
ENDMDL
MODEL 6
REMARK VINA RESULT:      -7.4     27.517     29.825
REMARK  Name = 45784228
REMARK  5 active torsions:
REMARK  status: ('A' for Active; 'I' for Inactive)
REMARK    1  A    between atoms: O_2  and  C_25
REMARK    2  A    between atoms: N_4  and  C_12
REMARK    3  A    between atoms: C_7  and  C_11
REMARK    4  A    between atoms: C_12  and  C_13
REMARK    5  A    between atoms: C_24  and  C_25
REMARK                            x       y       z     vdW  Elec       q    Type
REMARK                         _______ _______ _______ _____ _____    ______ ____
ROOT
ATOM      4  N   UNL     1     -14.884   5.843  22.149  0.00  0.00    -0.297 NA
ATOM      7  C   UNL     1     -15.632   3.893  23.216  0.00  0.00    +0.070 C 
ATOM      8  C   UNL     1     -16.818   4.591  22.529  0.00  0.00    +0.028 C 
ATOM      9  C   UNL     1     -14.526   4.957  23.260  0.00  0.00    +0.096 C 
ATOM     10  C   UNL     1     -16.334   6.008  22.250  0.00  0.00    +0.085 C 
ENDROOT
BRANCH   7  11
ATOM      1  F   UNL     1     -16.660   2.588  30.288  0.00  0.00    -0.205 F 
ATOM      5  N   UNL     1     -15.796   4.046  25.716  0.00  0.00    -0.341 N 
ATOM      6  N   UNL     1     -16.358   2.088  24.829  0.00  0.00    -0.232 NA
ATOM     11  C   UNL     1     -15.939   3.307  24.575  0.00  0.00    +0.113 A 
ATOM     14  C   UNL     1     -16.145   3.250  26.777  0.00  0.00    +0.069 A 
ATOM     15  C   UNL     1     -16.492   2.034  26.198  0.00  0.00    +0.089 A 
ATOM     18  C   UNL     1     -16.186   3.484  28.152  0.00  0.00    +0.066 A 
ATOM     19  C   UNL     1     -16.907   0.976  27.023  0.00  0.00    +0.032 A 
ATOM     22  C   UNL     1     -16.602   2.421  28.959  0.00  0.00    +0.125 A 
ATOM     23  C   UNL     1     -16.956   1.187  28.407  0.00  0.00    +0.040 A 
ATOM     26  H   UNL     1     -15.487   5.008  25.772  0.00  0.00    +0.167 HD
ENDBRANCH   7  11
BRANCH   4  12
ATOM     12  C   UNL     1     -14.176   7.113  22.202  0.00  0.00    +0.119 C 
BRANCH  12  13
ATOM     13  C   UNL     1     -13.423   7.390  20.929  0.00  0.00    -0.033 A 
ATOM     16  C   UNL     1     -12.033   7.269  20.902  0.00  0.00    +0.006 A 
ATOM     17  C   UNL     1     -14.113   7.766  19.777  0.00  0.00    +0.006 A 
ATOM     20  C   UNL     1     -11.334   7.525  19.722  0.00  0.00    +0.015 A 
ATOM     21  C   UNL     1     -13.414   8.021  18.597  0.00  0.00    +0.015 A 
ATOM     24  C   UNL     1     -12.024   7.901  18.570  0.00  0.00    +0.059 A 
BRANCH  24  25
ATOM      3  O   UNL     1     -10.113   8.520  17.269  0.00  0.00    -0.245 OA
ATOM     25  C   UNL     1     -11.295   8.167  17.340  0.00  0.00    +0.337 C 
BRANCH  25   2
ATOM      2  O   UNL     1     -12.063   7.984  16.231  0.00  0.00    -0.477 OA
ATOM     27  H   UNL     1     -12.144   8.807  15.703  0.00  0.00    +0.295 HD
ENDBRANCH  25   2
ENDBRANCH  24  25
ENDBRANCH  12  13
ENDBRANCH   4  12
TORSDOF 5
ENDMDL
MODEL 7
REMARK VINA RESULT:      -7.3     28.797     31.298
REMARK  Name = 45784228
REMARK  5 active torsions:
REMARK  status: ('A' for Active; 'I' for Inactive)
REMARK    1  A    between atoms: O_2  and  C_25
REMARK    2  A    between atoms: N_4  and  C_12
REMARK    3  A    between atoms: C_7  and  C_11
REMARK    4  A    between atoms: C_12  and  C_13
REMARK    5  A    between atoms: C_24  and  C_25
REMARK                            x       y       z     vdW  Elec       q    Type
REMARK                         _______ _______ _______ _____ _____    ______ ____
ROOT
ATOM      4  N   UNL     1     -17.025   2.147  27.170  0.00  0.00    -0.297 NA
ATOM      7  C   UNL     1     -16.945   4.013  25.751  0.00  0.00    +0.070 C 
ATOM      8  C   UNL     1     -18.058   3.058  25.286  0.00  0.00    +0.028 C 
ATOM      9  C   UNL     1     -16.086   3.172  26.706  0.00  0.00    +0.096 C 
ATOM     10  C   UNL     1     -17.755   1.733  25.972  0.00  0.00    +0.085 C 
ENDROOT
BRANCH   7  11
ATOM      1  F   UNL     1     -11.909   5.981  20.900  0.00  0.00    -0.205 F 
ATOM      5  N   UNL     1     -14.864   4.242  24.368  0.00  0.00    -0.341 N 
ATOM      6  N   UNL     1     -16.536   5.605  23.832  0.00  0.00    -0.232 NA
ATOM     11  C   UNL     1     -16.142   4.645  24.638  0.00  0.00    +0.113 A 
ATOM     14  C   UNL     1     -14.402   4.993  23.317  0.00  0.00    +0.069 A 
ATOM     15  C   UNL     1     -15.464   5.835  23.000  0.00  0.00    +0.089 A 
ATOM     18  C   UNL     1     -13.184   5.006  22.636  0.00  0.00    +0.066 A 
ATOM     19  C   UNL     1     -15.320   6.752  21.945  0.00  0.00    +0.032 A 
ATOM     22  C   UNL     1     -13.058   5.924  21.589  0.00  0.00    +0.125 A 
ATOM     23  C   UNL     1     -14.106   6.783  21.248  0.00  0.00    +0.040 A 
ATOM     26  H   UNL     1     -14.348   3.521  24.854  0.00  0.00    +0.167 HD
ENDBRANCH   7  11
BRANCH   4  12
ATOM     12  C   UNL     1     -16.352   1.033  27.822  0.00  0.00    +0.119 C 
BRANCH  12  13
ATOM     13  C   UNL     1     -15.915   1.382  29.220  0.00  0.00    -0.033 A 
ATOM     16  C   UNL     1     -15.045   0.536  29.908  0.00  0.00    +0.006 A 
ATOM     17  C   UNL     1     -16.379   2.549  29.826  0.00  0.00    +0.006 A 
ATOM     20  C   UNL     1     -14.638   0.858  31.203  0.00  0.00    +0.015 A 
ATOM     21  C   UNL     1     -15.973   2.871  31.121  0.00  0.00    +0.015 A 
ATOM     24  C   UNL     1     -15.103   2.026  31.810  0.00  0.00    +0.059 A 
BRANCH  24  25
ATOM      3  O   UNL     1     -14.146   3.424  33.500  0.00  0.00    -0.245 OA
ATOM     25  C   UNL     1     -14.679   2.362  33.160  0.00  0.00    +0.337 C 
BRANCH  25   2
ATOM      2  O   UNL     1     -14.934   1.364  34.049  0.00  0.00    -0.477 OA
ATOM     27  H   UNL     1     -14.695   0.483  33.686  0.00  0.00    +0.295 HD
ENDBRANCH  25   2
ENDBRANCH  24  25
ENDBRANCH  12  13
ENDBRANCH   4  12
TORSDOF 5
ENDMDL
MODEL 8
REMARK VINA RESULT:      -7.2      4.910      9.048
REMARK  Name = 45784228
REMARK  5 active torsions:
REMARK  status: ('A' for Active; 'I' for Inactive)
REMARK    1  A    between atoms: O_2  and  C_25
REMARK    2  A    between atoms: N_4  and  C_12
REMARK    3  A    between atoms: C_7  and  C_11
REMARK    4  A    between atoms: C_12  and  C_13
REMARK    5  A    between atoms: C_24  and  C_25
REMARK                            x       y       z     vdW  Elec       q    Type
REMARK                         _______ _______ _______ _____ _____    ______ ____
ROOT
ATOM      4  N   UNL     1      11.465   9.596  21.156  0.00  0.00    -0.297 NA
ATOM      7  C   UNL     1      13.317   9.062  19.818  0.00  0.00    +0.070 C 
ATOM      8  C   UNL     1      12.054   8.403  19.237  0.00  0.00    +0.028 C 
ATOM      9  C   UNL     1      12.922   9.466  21.246  0.00  0.00    +0.096 C 
ATOM     10  C   UNL     1      11.032   8.443  20.366  0.00  0.00    +0.085 C 
ENDROOT
BRANCH   7  11
ATOM      1  F   UNL     1      19.714   5.811  20.949  0.00  0.00    -0.205 F 
ATOM      5  N   UNL     1      15.552   8.339  20.703  0.00  0.00    -0.341 N 
ATOM      6  N   UNL     1      14.840   7.273  18.888  0.00  0.00    -0.232 NA
ATOM     11  C   UNL     1      14.561   8.204  19.772  0.00  0.00    +0.113 A 
ATOM     14  C   UNL     1      16.537   7.435  20.399  0.00  0.00    +0.069 A 
ATOM     15  C   UNL     1      16.070   6.782  19.264  0.00  0.00    +0.089 A 
ATOM     18  C   UNL     1      17.760   7.141  21.004  0.00  0.00    +0.066 A 
ATOM     19  C   UNL     1      16.855   5.773  18.681  0.00  0.00    +0.032 A 
ATOM     22  C   UNL     1      18.529   6.135  20.412  0.00  0.00    +0.125 A 
ATOM     23  C   UNL     1      18.087   5.461  19.270  0.00  0.00    +0.040 A 
ATOM     26  H   UNL     1      15.561   8.989  21.478  0.00  0.00    +0.167 HD
ENDBRANCH   7  11
BRANCH   4  12
ATOM     12  C   UNL     1      10.831   9.640  22.465  0.00  0.00    +0.119 C 
BRANCH  12  13
ATOM     13  C   UNL     1      10.941  11.003  23.095  0.00  0.00    -0.033 A 
ATOM     16  C   UNL     1      11.010  11.124  24.484  0.00  0.00    +0.006 A 
ATOM     17  C   UNL     1      10.974  12.143  22.294  0.00  0.00    +0.006 A 
ATOM     20  C   UNL     1      11.113  12.386  25.069  0.00  0.00    +0.015 A 
ATOM     21  C   UNL     1      11.076  13.405  22.878  0.00  0.00    +0.015 A 
ATOM     24  C   UNL     1      11.146  13.526  24.267  0.00  0.00    +0.059 A 
BRANCH  24  25
ATOM      3  O   UNL     1      12.246  15.278  25.470  0.00  0.00    -0.245 OA
ATOM     25  C   UNL     1      11.253  14.842  24.877  0.00  0.00    +0.337 C 
BRANCH  25   2
ATOM      2  O   UNL     1      10.118  15.578  24.730  0.00  0.00    -0.477 OA
ATOM     27  H   UNL     1       9.311  15.037  24.871  0.00  0.00    +0.295 HD
ENDBRANCH  25   2
ENDBRANCH  24  25
ENDBRANCH  12  13
ENDBRANCH   4  12
TORSDOF 5
ENDMDL
MODEL 9
REMARK VINA RESULT:      -7.1      6.173     10.792
REMARK  Name = 45784228
REMARK  5 active torsions:
REMARK  status: ('A' for Active; 'I' for Inactive)
REMARK    1  A    between atoms: O_2  and  C_25
REMARK    2  A    between atoms: N_4  and  C_12
REMARK    3  A    between atoms: C_7  and  C_11
REMARK    4  A    between atoms: C_12  and  C_13
REMARK    5  A    between atoms: C_24  and  C_25
REMARK                            x       y       z     vdW  Elec       q    Type
REMARK                         _______ _______ _______ _____ _____    ______ ____
ROOT
ATOM      4  N   UNL     1      18.620   7.874  21.893  0.00  0.00    -0.297 NA
ATOM      7  C   UNL     1      20.180   6.228  22.494  0.00  0.00    +0.070 C 
ATOM      8  C   UNL     1      20.648   7.598  23.015  0.00  0.00    +0.028 C 
ATOM      9  C   UNL     1      19.095   6.557  21.459  0.00  0.00    +0.096 C 
ATOM     10  C   UNL     1      19.832   8.619  22.234  0.00  0.00    +0.085 C 
ENDROOT
BRANCH   7  11
ATOM      1  F   UNL     1      25.897   3.394  19.025  0.00  0.00    -0.205 F 
ATOM      5  N   UNL     1      22.205   5.840  21.065  0.00  0.00    -0.341 N 
ATOM      6  N   UNL     1      21.473   4.077  22.203  0.00  0.00    -0.232 NA
ATOM     11  C   UNL     1      21.276   5.349  21.939  0.00  0.00    +0.113 A 
ATOM     14  C   UNL     1      23.058   4.816  20.742  0.00  0.00    +0.069 A 
ATOM     15  C   UNL     1      22.581   3.727  21.465  0.00  0.00    +0.089 A 
ATOM     18  C   UNL     1      24.174   4.751  19.906  0.00  0.00    +0.066 A 
ATOM     19  C   UNL     1      23.242   2.492  21.360  0.00  0.00    +0.032 A 
ATOM     22  C   UNL     1      24.820   3.515  19.813  0.00  0.00    +0.125 A 
ATOM     23  C   UNL     1      24.364   2.403  20.527  0.00  0.00    +0.040 A 
ATOM     26  H   UNL     1      22.257   6.788  20.715  0.00  0.00    +0.167 HD
ENDBRANCH   7  11
BRANCH   4  12
ATOM     12  C   UNL     1      17.828   8.542  20.872  0.00  0.00    +0.119 C 
BRANCH  12  13
ATOM     13  C   UNL     1      16.417   8.020  20.825  0.00  0.00    -0.033 A 
ATOM     16  C   UNL     1      15.994   7.254  19.738  0.00  0.00    +0.006 A 
ATOM     17  C   UNL     1      15.533   8.301  21.866  0.00  0.00    +0.006 A 
ATOM     20  C   UNL     1      14.687   6.769  19.694  0.00  0.00    +0.015 A 
ATOM     21  C   UNL     1      14.226   7.816  21.822  0.00  0.00    +0.015 A 
ATOM     24  C   UNL     1      13.803   7.050  20.735  0.00  0.00    +0.059 A 
BRANCH  24  25
ATOM      3  O   UNL     1      11.647   6.535  21.637  0.00  0.00    -0.245 OA
ATOM     25  C   UNL     1      12.440   6.544  20.690  0.00  0.00    +0.337 C 
BRANCH  25   2
ATOM      2  O   UNL     1      12.105   6.063  19.462  0.00  0.00    -0.477 OA
ATOM     27  H   UNL     1      11.580   6.712  18.946  0.00  0.00    +0.295 HD
ENDBRANCH  25   2
ENDBRANCH  24  25
ENDBRANCH  12  13
ENDBRANCH   4  12
TORSDOF 5
ENDMDL
MODEL 10
REMARK VINA RESULT:      -7.1      4.825      8.785
REMARK  Name = 45784228
REMARK  5 active torsions:
REMARK  status: ('A' for Active; 'I' for Inactive)
REMARK    1  A    between atoms: O_2  and  C_25
REMARK    2  A    between atoms: N_4  and  C_12
REMARK    3  A    between atoms: C_7  and  C_11
REMARK    4  A    between atoms: C_12  and  C_13
REMARK    5  A    between atoms: C_24  and  C_25
REMARK                            x       y       z     vdW  Elec       q    Type
REMARK                         _______ _______ _______ _____ _____    ______ ____
ROOT
ATOM      4  N   UNL     1      12.665   8.352  19.531  0.00  0.00    -0.297 NA
ATOM      7  C   UNL     1      14.983   8.277  19.181  0.00  0.00    +0.070 C 
ATOM      8  C   UNL     1      14.261   7.614  17.995  0.00  0.00    +0.028 C 
ATOM      9  C   UNL     1      13.921   8.359  20.286  0.00  0.00    +0.096 C 
ATOM     10  C   UNL     1      12.851   7.333  18.498  0.00  0.00    +0.085 C 
ENDROOT
BRANCH   7  11
ATOM      1  F   UNL     1      21.128   6.165  22.427  0.00  0.00    -0.205 F 
ATOM      5  N   UNL     1      17.005   8.069  20.652  0.00  0.00    -0.341 N 
ATOM      6  N   UNL     1      16.752   6.474  19.127  0.00  0.00    -0.232 NA
ATOM     11  C   UNL     1      16.246   7.577  19.628  0.00  0.00    +0.113 A 
ATOM     14  C   UNL     1      18.074   7.226  20.823  0.00  0.00    +0.069 A 
ATOM     15  C   UNL     1      17.893   6.239  19.860  0.00  0.00    +0.089 A 
ATOM     18  C   UNL     1      19.150   7.243  21.712  0.00  0.00    +0.066 A 
ATOM     19  C   UNL     1      18.832   5.198  19.761  0.00  0.00    +0.032 A 
ATOM     22  C   UNL     1      20.074   6.200  21.600  0.00  0.00    +0.125 A 
ATOM     23  C   UNL     1      19.920   5.194  20.642  0.00  0.00    +0.040 A 
ATOM     26  H   UNL     1      16.817   8.904  21.190  0.00  0.00    +0.167 HD
ENDBRANCH   7  11
BRANCH   4  12
ATOM     12  C   UNL     1      11.511   8.080  20.375  0.00  0.00    +0.119 C 
BRANCH  12  13
ATOM     13  C   UNL     1      11.324   9.141  21.427  0.00  0.00    -0.033 A 
ATOM     16  C   UNL     1      10.963   8.779  22.725  0.00  0.00    +0.006 A 
ATOM     17  C   UNL     1      11.510  10.485  21.104  0.00  0.00    +0.006 A 
ATOM     20  C   UNL     1      10.790   9.761  23.700  0.00  0.00    +0.015 A 
ATOM     21  C   UNL     1      11.336  11.467  22.079  0.00  0.00    +0.015 A 
ATOM     24  C   UNL     1      10.976  11.105  23.377  0.00  0.00    +0.059 A 
BRANCH  24  25
ATOM      3  O   UNL     1      10.635  13.335  24.177  0.00  0.00    -0.245 OA
ATOM     25  C   UNL     1      10.796  12.129  24.394  0.00  0.00    +0.337 C 
BRANCH  25   2
ATOM      2  O   UNL     1      10.820  11.619  25.656  0.00  0.00    -0.477 OA
ATOM     27  H   UNL     1      10.798  12.326  26.336  0.00  0.00    +0.295 HD
ENDBRANCH  25   2
ENDBRANCH  24  25
ENDBRANCH  12  13
ENDBRANCH   4  12
TORSDOF 5
ENDMDL
