MODEL 1
REMARK VINA RESULT:      -7.5      0.000      0.000
REMARK  Name = 7673731
REMARK  7 active torsions:
REMARK  status: ('A' for Active; 'I' for Inactive)
REMARK    1  A    between atoms: N_8  and  C_19
REMARK    2  A    between atoms: C_11  and  C_14
REMARK    3  A    between atoms: C_14  and  C_19
REMARK    4  A    between atoms: C_18  and  C_27
REMARK    5  A    between atoms: C_19  and  C_30
REMARK    6  A    between atoms: C_20  and  C_23
REMARK    7  A    between atoms: C_31  and  C_32
REMARK                            x       y       z     vdW  Elec       q    Type
REMARK                         _______ _______ _______ _____ _____    ______ ____
ROOT
ATOM      2  O   UNL     1      11.833  13.782  22.359  0.00  0.00    -0.275 OA
ATOM      5  O   UNL     1      11.678   6.636  21.744  0.00  0.00    -0.270 OA
ATOM      6  N   UNL     1      11.555  11.475  22.493  0.00  0.00    -0.287 N 
ATOM      7  N   UNL     1      11.724   8.919  21.249  0.00  0.00    -0.294 N 
ATOM     18  C   UNL     1      12.632  11.210  21.528  0.00  0.00    +0.179 C 
ATOM     21  C   UNL     1      12.312  10.073  20.557  0.00  0.00    +0.140 C 
ATOM     22  C   UNL     1      10.929  10.297  23.114  0.00  0.00    +0.127 C 
ATOM     23  C   UNL     1      11.306  12.796  22.882  0.00  0.00    +0.219 C 
ATOM     26  C   UNL     1      10.567   9.241  22.078  0.00  0.00    +0.127 C 
ATOM     31  C   UNL     1      12.174   7.601  21.166  0.00  0.00    +0.247 C 
ENDROOT
BRANCH  31  32
ATOM      1  F   UNL     1      14.343   7.587  16.831  0.00  0.00    -0.205 F 
ATOM     32  C   UNL     1      13.337   7.321  20.317  0.00  0.00    +0.040 A 
ATOM     33  C   UNL     1      13.286   7.592  18.951  0.00  0.00    +0.051 A 
ATOM     34  C   UNL     1      14.496   6.781  20.877  0.00  0.00    +0.013 A 
ATOM     35  C   UNL     1      14.392   7.326  18.144  0.00  0.00    +0.124 A 
ATOM     36  C   UNL     1      15.603   6.514  20.072  0.00  0.00    +0.004 A 
ATOM     37  C   UNL     1      15.551   6.786  18.704  0.00  0.00    +0.038 A 
ENDBRANCH  31  32
BRANCH  23  20
ATOM      9  N   UNL     1      11.274  15.090  25.827  0.00  0.00    -0.316 NA
ATOM     20  C   UNL     1      10.328  12.995  24.005  0.00  0.00    +0.078 C 
ATOM     24  C   UNL     1       9.762  14.416  23.989  0.00  0.00    +0.028 C 
ATOM     25  C   UNL     1      10.977  12.680  25.355  0.00  0.00    +0.028 C 
ATOM     28  C   UNL     1      10.768  15.447  24.502  0.00  0.00    +0.081 C 
ATOM     29  C   UNL     1      11.933  13.785  25.810  0.00  0.00    +0.081 C 
ATOM     39  H   UNL     1      11.938  15.798  26.138  0.00  0.00    +0.122 HD
ENDBRANCH  23  20
BRANCH  18  27
ATOM      3  O   UNL     1      13.851  10.924  23.563  0.00  0.00    -0.274 OA
ATOM      8  N   UNL     1      14.969  10.676  21.536  0.00  0.00    -0.302 N 
ATOM     27  C   UNL     1      13.864  10.918  22.335  0.00  0.00    +0.236 C 
ATOM     38  H   UNL     1      14.887  10.774  20.528  0.00  0.00    +0.150 HD
BRANCH   8  19
ATOM     19  C   UNL     1      16.281  10.391  22.067  0.00  0.00    +0.159 C 
BRANCH  19  30
ATOM      4  O   UNL     1      17.375  12.541  21.775  0.00  0.00    -0.274 OA
ATOM     10  N   UNL     1      16.938  11.817  23.910  0.00  0.00    -0.328 N 
ATOM     30  C   UNL     1      16.911  11.696  22.536  0.00  0.00    +0.231 C 
ATOM     40  H   UNL     1      17.340  12.637  24.352  0.00  0.00    +0.145 HD
ATOM     41  H   UNL     1      16.568  11.102  24.528  0.00  0.00    +0.145 HD
ENDBRANCH  19  30
BRANCH  19  14
ATOM     14  C   UNL     1      17.160   9.634  21.066  0.00  0.00    +0.035 C 
BRANCH  14  11
ATOM     11  C   UNL     1      18.400   8.990  21.683  0.00  0.00    -0.009 C 
ATOM     12  C   UNL     1      19.666   9.755  21.276  0.00  0.00    +0.003 C 
ATOM     13  C   UNL     1      18.501   7.512  21.281  0.00  0.00    +0.003 C 
ATOM     15  C   UNL     1      20.927   9.098  21.836  0.00  0.00    +0.000 C 
ATOM     16  C   UNL     1      19.763   6.860  21.842  0.00  0.00    +0.000 C 
ATOM     17  C   UNL     1      21.019   7.628  21.442  0.00  0.00    +0.000 C 
ENDBRANCH  14  11
ENDBRANCH  19  14
ENDBRANCH   8  19
ENDBRANCH  18  27
TORSDOF 7
ENDMDL
MODEL 2
REMARK VINA RESULT:      -7.1     29.415     31.625
REMARK  Name = 7673731
REMARK  7 active torsions:
REMARK  status: ('A' for Active; 'I' for Inactive)
REMARK    1  A    between atoms: N_8  and  C_19
REMARK    2  A    between atoms: C_11  and  C_14
REMARK    3  A    between atoms: C_14  and  C_19
REMARK    4  A    between atoms: C_18  and  C_27
REMARK    5  A    between atoms: C_19  and  C_30
REMARK    6  A    between atoms: C_20  and  C_23
REMARK    7  A    between atoms: C_31  and  C_32
REMARK                            x       y       z     vdW  Elec       q    Type
REMARK                         _______ _______ _______ _____ _____    ______ ____
ROOT
ATOM      2  O   UNL     1      -5.791  -8.759  11.820  0.00  0.00    -0.275 OA
ATOM      5  O   UNL     1      -4.755 -14.271  16.295  0.00  0.00    -0.270 OA
ATOM      6  N   UNL     1      -5.467 -10.774  12.939  0.00  0.00    -0.287 N 
ATOM      7  N   UNL     1      -4.679 -12.157  15.300  0.00  0.00    -0.294 N 
ATOM     18  C   UNL     1      -5.753 -10.182  14.253  0.00  0.00    +0.179 C 
ATOM     21  C   UNL     1      -4.840 -10.699  15.365  0.00  0.00    +0.140 C 
ATOM     22  C   UNL     1      -5.233 -12.227  12.913  0.00  0.00    +0.127 C 
ATOM     23  C   UNL     1      -5.594  -9.977  11.796  0.00  0.00    +0.219 C 
ATOM     26  C   UNL     1      -4.254 -12.658  13.997  0.00  0.00    +0.127 C 
ATOM     31  C   UNL     1      -4.893 -13.050  16.351  0.00  0.00    +0.247 C 
ENDROOT
BRANCH  31  32
ATOM      1  F   UNL     1      -8.331 -12.179  19.655  0.00  0.00    -0.205 F 
ATOM     32  C   UNL     1      -5.316 -12.504  17.646  0.00  0.00    +0.040 A 
ATOM     33  C   UNL     1      -6.648 -12.602  18.043  0.00  0.00    +0.051 A 
ATOM     34  C   UNL     1      -4.384 -11.884  18.480  0.00  0.00    +0.013 A 
ATOM     35  C   UNL     1      -7.051 -12.084  19.273  0.00  0.00    +0.124 A 
ATOM     36  C   UNL     1      -4.785 -11.365  19.711  0.00  0.00    +0.004 A 
ATOM     37  C   UNL     1      -6.119 -11.464  20.108  0.00  0.00    +0.038 A 
ENDBRANCH  31  32
BRANCH  23  20
ATOM      9  N   UNL     1      -4.882  -8.743   8.345  0.00  0.00    -0.316 NA
ATOM     20  C   UNL     1      -5.476 -10.675  10.470  0.00  0.00    +0.078 C 
ATOM     24  C   UNL     1      -4.073 -10.500   9.886  0.00  0.00    +0.028 C 
ATOM     25  C   UNL     1      -6.541 -10.174   9.493  0.00  0.00    +0.028 C 
ATOM     28  C   UNL     1      -3.851  -9.097   9.320  0.00  0.00    +0.081 C 
ATOM     29  C   UNL     1      -6.216  -8.784   8.943  0.00  0.00    +0.081 C 
ATOM     39  H   UNL     1      -4.702  -7.806   7.987  0.00  0.00    +0.122 HD
ENDBRANCH  23  20
BRANCH  18  27
ATOM      3  O   UNL     1      -7.799 -11.387  13.994  0.00  0.00    -0.274 OA
ATOM      8  N   UNL     1      -7.734  -9.583  15.463  0.00  0.00    -0.302 N 
ATOM     27  C   UNL     1      -7.197 -10.470  14.545  0.00  0.00    +0.236 C 
ATOM     38  H   UNL     1      -7.168  -8.810  15.800  0.00  0.00    +0.150 HD
BRANCH   8  19
ATOM     19  C   UNL     1      -9.111  -9.632  15.897  0.00  0.00    +0.159 C 
BRANCH  19  30
ATOM      4  O   UNL     1     -10.620  -8.715  14.227  0.00  0.00    -0.274 OA
ATOM     10  N   UNL     1      -9.646  -7.277  15.729  0.00  0.00    -0.328 N 
ATOM     30  C   UNL     1      -9.883  -8.525  15.192  0.00  0.00    +0.231 C 
ATOM     40  H   UNL     1     -10.093  -6.451  15.346  0.00  0.00    +0.145 HD
ATOM     41  H   UNL     1      -9.020  -7.131  16.515  0.00  0.00    +0.145 HD
ENDBRANCH  19  30
BRANCH  19  14
ATOM     14  C   UNL     1      -9.240  -9.568  17.422  0.00  0.00    +0.035 C 
BRANCH  14  11
ATOM     11  C   UNL     1     -10.564 -10.106  17.961  0.00  0.00    -0.009 C 
ATOM     12  C   UNL     1     -10.613  -9.988  19.491  0.00  0.00    +0.003 C 
ATOM     13  C   UNL     1     -10.779 -11.559  17.519  0.00  0.00    +0.003 C 
ATOM     15  C   UNL     1     -11.906 -10.569  20.060  0.00  0.00    +0.000 C 
ATOM     16  C   UNL     1     -12.072 -12.138  18.091  0.00  0.00    +0.000 C 
ATOM     17  C   UNL     1     -12.121 -12.010  19.611  0.00  0.00    +0.000 C 
ENDBRANCH  14  11
ENDBRANCH  19  14
ENDBRANCH   8  19
ENDBRANCH  18  27
TORSDOF 7
ENDMDL
MODEL 3
REMARK VINA RESULT:      -6.9     16.284     19.270
REMARK  Name = 7673731
REMARK  7 active torsions:
REMARK  status: ('A' for Active; 'I' for Inactive)
REMARK    1  A    between atoms: N_8  and  C_19
REMARK    2  A    between atoms: C_11  and  C_14
REMARK    3  A    between atoms: C_14  and  C_19
REMARK    4  A    between atoms: C_18  and  C_27
REMARK    5  A    between atoms: C_19  and  C_30
REMARK    6  A    between atoms: C_20  and  C_23
REMARK    7  A    between atoms: C_31  and  C_32
REMARK                            x       y       z     vdW  Elec       q    Type
REMARK                         _______ _______ _______ _____ _____    ______ ____
ROOT
ATOM      2  O   UNL     1      10.144   7.906   4.200  0.00  0.00    -0.275 OA
ATOM      5  O   UNL     1      13.128   2.478   0.580  0.00  0.00    -0.270 OA
ATOM      6  N   UNL     1      10.953   5.912   3.313  0.00  0.00    -0.287 N 
ATOM      7  N   UNL     1      12.076   4.496   1.113  0.00  0.00    -0.294 N 
ATOM     18  C   UNL     1      11.888   6.600   2.413  0.00  0.00    +0.179 C 
ATOM     21  C   UNL     1      11.982   5.959   1.028  0.00  0.00    +0.140 C 
ATOM     22  C   UNL     1      11.014   4.441   3.322  0.00  0.00    +0.127 C 
ATOM     23  C   UNL     1      10.193   6.673   4.209  0.00  0.00    +0.219 C 
ATOM     26  C   UNL     1      11.025   3.871   1.910  0.00  0.00    +0.127 C 
ATOM     31  C   UNL     1      13.053   3.704   0.509  0.00  0.00    +0.247 C 
ENDROOT
BRANCH  31  32
ATOM      1  F   UNL     1      14.383   6.399  -3.294  0.00  0.00    -0.205 F 
ATOM     32  C   UNL     1      14.088   4.372  -0.287  0.00  0.00    +0.040 A 
ATOM     33  C   UNL     1      13.737   5.082  -1.435  0.00  0.00    +0.051 A 
ATOM     34  C   UNL     1      15.426   4.298   0.103  0.00  0.00    +0.013 A 
ATOM     35  C   UNL     1      14.721   5.717  -2.192  0.00  0.00    +0.124 A 
ATOM     36  C   UNL     1      16.411   4.933  -0.653  0.00  0.00    +0.004 A 
ATOM     37  C   UNL     1      16.058   5.642  -1.802  0.00  0.00    +0.038 A 
ENDBRANCH  31  32
BRANCH  23  20
ATOM      9  N   UNL     1       8.844   7.608   7.562  0.00  0.00    -0.316 NA
ATOM     20  C   UNL     1       9.397   5.914   5.233  0.00  0.00    +0.078 C 
ATOM     24  C   UNL     1       8.037   6.575   5.464  0.00  0.00    +0.028 C 
ATOM     25  C   UNL     1      10.174   5.788   6.544  0.00  0.00    +0.028 C 
ATOM     28  C   UNL     1       8.148   7.851   6.300  0.00  0.00    +0.081 C 
ATOM     29  C   UNL     1      10.195   7.098   7.334  0.00  0.00    +0.081 C 
ATOM     39  H   UNL     1       8.897   8.476   8.093  0.00  0.00    +0.122 HD
ENDBRANCH  23  20
BRANCH  18  27
ATOM      3  O   UNL     1      14.225   6.135   2.589  0.00  0.00    -0.274 OA
ATOM      8  N   UNL     1      13.148   7.184   4.366  0.00  0.00    -0.302 N 
ATOM     27  C   UNL     1      13.219   6.610   3.108  0.00  0.00    +0.236 C 
ATOM     38  H   UNL     1      12.247   7.476   4.732  0.00  0.00    +0.150 HD
BRANCH   8  19
ATOM     19  C   UNL     1      14.287   7.296   5.248  0.00  0.00    +0.159 C 
BRANCH  19  30
ATOM      4  O   UNL     1      13.407   8.480   7.179  0.00  0.00    -0.274 OA
ATOM     10  N   UNL     1      13.825   6.231   7.372  0.00  0.00    -0.328 N 
ATOM     30  C   UNL     1      13.784   7.423   6.680  0.00  0.00    +0.231 C 
ATOM     40  H   UNL     1      13.525   6.180   8.340  0.00  0.00    +0.145 HD
ATOM     41  H   UNL     1      14.156   5.368   6.953  0.00  0.00    +0.145 HD
ENDBRANCH  19  30
BRANCH  19  14
ATOM     14  C   UNL     1      15.222   8.440   4.845  0.00  0.00    +0.035 C 
BRANCH  14  11
ATOM     11  C   UNL     1      16.706   8.132   5.036  0.00  0.00    -0.009 C 
ATOM     12  C   UNL     1      17.310   9.033   6.122  0.00  0.00    +0.003 C 
ATOM     13  C   UNL     1      17.468   8.287   3.713  0.00  0.00    +0.003 C 
ATOM     15  C   UNL     1      18.807   8.783   6.295  0.00  0.00    +0.000 C 
ATOM     16  C   UNL     1      18.964   8.038   3.890  0.00  0.00    +0.000 C 
ATOM     17  C   UNL     1      19.558   8.928   4.976  0.00  0.00    +0.000 C 
ENDBRANCH  14  11
ENDBRANCH  19  14
ENDBRANCH   8  19
ENDBRANCH  18  27
TORSDOF 7
ENDMDL
MODEL 4
REMARK VINA RESULT:      -6.9     27.970     30.949
REMARK  Name = 7673731
REMARK  7 active torsions:
REMARK  status: ('A' for Active; 'I' for Inactive)
REMARK    1  A    between atoms: N_8  and  C_19
REMARK    2  A    between atoms: C_11  and  C_14
REMARK    3  A    between atoms: C_14  and  C_19
REMARK    4  A    between atoms: C_18  and  C_27
REMARK    5  A    between atoms: C_19  and  C_30
REMARK    6  A    between atoms: C_20  and  C_23
REMARK    7  A    between atoms: C_31  and  C_32
REMARK                            x       y       z     vdW  Elec       q    Type
REMARK                         _______ _______ _______ _____ _____    ______ ____
ROOT
ATOM      2  O   UNL     1      -8.032  -8.065   9.686  0.00  0.00    -0.275 OA
ATOM      5  O   UNL     1      -2.990 -12.900  11.320  0.00  0.00    -0.270 OA
ATOM      6  N   UNL     1      -6.560  -9.852   9.919  0.00  0.00    -0.287 N 
ATOM      7  N   UNL     1      -4.120 -10.886  10.961  0.00  0.00    -0.294 N 
ATOM     18  C   UNL     1      -6.077  -9.386  11.227  0.00  0.00    +0.179 C 
ATOM     21  C   UNL     1      -4.571  -9.565  11.418  0.00  0.00    +0.140 C 
ATOM     22  C   UNL     1      -6.032 -11.143   9.448  0.00  0.00    +0.127 C 
ATOM     23  C   UNL     1      -7.591  -9.147   9.288  0.00  0.00    +0.219 C 
ATOM     26  C   UNL     1      -4.518 -11.219   9.597  0.00  0.00    +0.127 C 
ATOM     31  C   UNL     1      -3.369 -11.795  11.706  0.00  0.00    +0.247 C 
ENDROOT
BRANCH  31  32
ATOM      1  F   UNL     1      -0.704  -9.155  14.776  0.00  0.00    -0.205 F 
ATOM     32  C   UNL     1      -2.986 -11.419  13.072  0.00  0.00    +0.040 A 
ATOM     33  C   UNL     1      -2.008 -10.447  13.279  0.00  0.00    +0.051 A 
ATOM     34  C   UNL     1      -3.599 -12.034  14.164  0.00  0.00    +0.013 A 
ATOM     35  C   UNL     1      -1.643 -10.089  14.577  0.00  0.00    +0.124 A 
ATOM     36  C   UNL     1      -3.236 -11.677  15.462  0.00  0.00    +0.004 A 
ATOM     37  C   UNL     1      -2.257 -10.704  15.669  0.00  0.00    +0.038 A 
ENDBRANCH  31  32
BRANCH  23  20
ATOM      9  N   UNL     1      -9.567  -7.745   6.448  0.00  0.00    -0.316 NA
ATOM     20  C   UNL     1      -8.175  -9.769   8.051  0.00  0.00    +0.078 C 
ATOM     24  C   UNL     1      -7.562  -9.153   6.792  0.00  0.00    +0.028 C 
ATOM     25  C   UNL     1      -9.699  -9.633   8.040  0.00  0.00    +0.028 C 
ATOM     28  C   UNL     1      -8.106  -7.752   6.508  0.00  0.00    +0.081 C 
ATOM     29  C   UNL     1     -10.152  -8.211   7.704  0.00  0.00    +0.081 C 
ATOM     39  H   UNL     1      -9.893  -6.799   6.254  0.00  0.00    +0.122 HD
ENDBRANCH  23  20
BRANCH  18  27
ATOM      3  O   UNL     1      -7.561 -11.105  11.970  0.00  0.00    -0.274 OA
ATOM      8  N   UNL     1      -6.702  -9.606  13.530  0.00  0.00    -0.302 N 
ATOM     27  C   UNL     1      -6.859 -10.141  12.263  0.00  0.00    +0.236 C 
ATOM     38  H   UNL     1      -6.158  -8.757  13.650  0.00  0.00    +0.150 HD
BRANCH   8  19
ATOM     19  C   UNL     1      -7.365 -10.136  14.699  0.00  0.00    +0.159 C 
BRANCH  19  30
ATOM      4  O   UNL     1      -9.353  -8.738  14.696  0.00  0.00    -0.274 OA
ATOM     10  N   UNL     1      -9.602 -10.997  14.365  0.00  0.00    -0.328 N 
ATOM     30  C   UNL     1      -8.857  -9.856  14.582  0.00  0.00    +0.231 C 
ATOM     40  H   UNL     1     -10.612 -10.950  14.276  0.00  0.00    +0.145 HD
ATOM     41  H   UNL     1      -9.182 -11.918  14.291  0.00  0.00    +0.145 HD
ENDBRANCH  19  30
BRANCH  19  14
ATOM     14  C   UNL     1      -6.762  -9.599  16.001  0.00  0.00    +0.035 C 
BRANCH  14  11
ATOM     11  C   UNL     1      -6.601 -10.650  17.098  0.00  0.00    -0.009 C 
ATOM     12  C   UNL     1      -5.319 -10.400  17.904  0.00  0.00    +0.003 C 
ATOM     13  C   UNL     1      -6.603 -12.063  16.499  0.00  0.00    +0.003 C 
ATOM     15  C   UNL     1      -5.108 -11.470  18.973  0.00  0.00    +0.000 C 
ATOM     16  C   UNL     1      -6.390 -13.130  17.571  0.00  0.00    +0.000 C 
ATOM     17  C   UNL     1      -5.120 -12.873  18.376  0.00  0.00    +0.000 C 
ENDBRANCH  14  11
ENDBRANCH  19  14
ENDBRANCH   8  19
ENDBRANCH  18  27
TORSDOF 7
ENDMDL
MODEL 5
REMARK VINA RESULT:      -6.7     29.412     31.367
REMARK  Name = 7673731
REMARK  7 active torsions:
REMARK  status: ('A' for Active; 'I' for Inactive)
REMARK    1  A    between atoms: N_8  and  C_19
REMARK    2  A    between atoms: C_11  and  C_14
REMARK    3  A    between atoms: C_14  and  C_19
REMARK    4  A    between atoms: C_18  and  C_27
REMARK    5  A    between atoms: C_19  and  C_30
REMARK    6  A    between atoms: C_20  and  C_23
REMARK    7  A    between atoms: C_31  and  C_32
REMARK                            x       y       z     vdW  Elec       q    Type
REMARK                         _______ _______ _______ _____ _____    ______ ____
ROOT
ATOM      2  O   UNL     1      -5.902  -9.899  17.851  0.00  0.00    -0.275 OA
ATOM      5  O   UNL     1     -13.005  -9.472  16.935  0.00  0.00    -0.270 OA
ATOM      6  N   UNL     1      -8.217 -10.116  17.742  0.00  0.00    -0.287 N 
ATOM      7  N   UNL     1     -10.764  -8.921  17.305  0.00  0.00    -0.294 N 
ATOM     18  C   UNL     1      -8.351  -9.043  16.748  0.00  0.00    +0.179 C 
ATOM     21  C   UNL     1      -9.562  -8.141  16.986  0.00  0.00    +0.140 C 
ATOM     22  C   UNL     1      -9.452 -10.832  18.104  0.00  0.00    +0.127 C 
ATOM     23  C   UNL     1      -6.936 -10.500  18.155  0.00  0.00    +0.219 C 
ATOM     26  C   UNL     1     -10.592  -9.868  18.403  0.00  0.00    +0.127 C 
ATOM     31  C   UNL     1     -11.999  -8.819  16.664  0.00  0.00    +0.247 C 
ENDROOT
BRANCH  31  32
ATOM      1  F   UNL     1     -12.188  -7.785  11.932  0.00  0.00    -0.205 F 
ATOM     32  C   UNL     1     -12.130  -7.851  15.569  0.00  0.00    +0.040 A 
ATOM     33  C   UNL     1     -12.096  -8.287  14.245  0.00  0.00    +0.051 A 
ATOM     34  C   UNL     1     -12.288  -6.494  15.852  0.00  0.00    +0.013 A 
ATOM     35  C   UNL     1     -12.220  -7.367  13.203  0.00  0.00    +0.124 A 
ATOM     36  C   UNL     1     -12.412  -5.573  14.811  0.00  0.00    +0.004 A 
ATOM     37  C   UNL     1     -12.378  -6.010  13.486  0.00  0.00    +0.038 A 
ENDBRANCH  31  32
BRANCH  23  20
ATOM      9  N   UNL     1      -4.388 -13.213  18.443  0.00  0.00    -0.316 NA
ATOM     20  C   UNL     1      -6.846 -11.722  19.026  0.00  0.00    +0.078 C 
ATOM     24  C   UNL     1      -5.612 -11.658  19.927  0.00  0.00    +0.028 C 
ATOM     25  C   UNL     1      -6.837 -12.995  18.177  0.00  0.00    +0.028 C 
ATOM     28  C   UNL     1      -4.318 -11.942  19.162  0.00  0.00    +0.081 C 
ATOM     29  C   UNL     1      -5.492 -13.223  17.485  0.00  0.00    +0.081 C 
ATOM     39  H   UNL     1      -3.511 -13.371  17.949  0.00  0.00    +0.122 HD
ENDBRANCH  23  20
BRANCH  18  27
ATOM      3  O   UNL     1      -9.422 -10.300  15.021  0.00  0.00    -0.274 OA
ATOM      8  N   UNL     1      -7.226  -9.597  14.705  0.00  0.00    -0.302 N 
ATOM     27  C   UNL     1      -8.415  -9.712  15.406  0.00  0.00    +0.236 C 
ATOM     38  H   UNL     1      -6.425  -9.156  15.149  0.00  0.00    +0.150 HD
BRANCH   8  19
ATOM     19  C   UNL     1      -7.020 -10.173  13.397  0.00  0.00    +0.159 C 
BRANCH  19  30
ATOM      4  O   UNL     1      -6.109 -12.394  13.020  0.00  0.00    -0.274 OA
ATOM     10  N   UNL     1      -4.869 -10.894  14.239  0.00  0.00    -0.328 N 
ATOM     30  C   UNL     1      -5.974 -11.274  13.507  0.00  0.00    +0.231 C 
ATOM     40  H   UNL     1      -4.101 -11.538  14.394  0.00  0.00    +0.145 HD
ATOM     41  H   UNL     1      -4.778  -9.971  14.651  0.00  0.00    +0.145 HD
ENDBRANCH  19  30
BRANCH  19  14
ATOM     14  C   UNL     1      -6.662  -9.116  12.348  0.00  0.00    +0.035 C 
BRANCH  14  11
ATOM     11  C   UNL     1      -5.821  -9.645  11.187  0.00  0.00    -0.009 C 
ATOM     12  C   UNL     1      -4.850  -8.567  10.687  0.00  0.00    +0.003 C 
ATOM     13  C   UNL     1      -6.722 -10.139  10.047  0.00  0.00    +0.003 C 
ATOM     15  C   UNL     1      -4.035  -9.053   9.490  0.00  0.00    +0.000 C 
ATOM     16  C   UNL     1      -5.904 -10.623   8.851  0.00  0.00    +0.000 C 
ATOM     17  C   UNL     1      -4.933  -9.552   8.363  0.00  0.00    +0.000 C 
ENDBRANCH  14  11
ENDBRANCH  19  14
ENDBRANCH   8  19
ENDBRANCH  18  27
TORSDOF 7
ENDMDL
MODEL 6
REMARK VINA RESULT:      -6.7     15.975     19.838
REMARK  Name = 7673731
REMARK  7 active torsions:
REMARK  status: ('A' for Active; 'I' for Inactive)
REMARK    1  A    between atoms: N_8  and  C_19
REMARK    2  A    between atoms: C_11  and  C_14
REMARK    3  A    between atoms: C_14  and  C_19
REMARK    4  A    between atoms: C_18  and  C_27
REMARK    5  A    between atoms: C_19  and  C_30
REMARK    6  A    between atoms: C_20  and  C_23
REMARK    7  A    between atoms: C_31  and  C_32
REMARK                            x       y       z     vdW  Elec       q    Type
REMARK                         _______ _______ _______ _____ _____    ______ ____
ROOT
ATOM      2  O   UNL     1      14.239   4.170   1.743  0.00  0.00    -0.275 OA
ATOM      5  O   UNL     1       8.438   8.375   2.105  0.00  0.00    -0.270 OA
ATOM      6  N   UNL     1      12.465   5.655   1.492  0.00  0.00    -0.287 N 
ATOM      7  N   UNL     1       9.914   6.580   2.353  0.00  0.00    -0.294 N 
ATOM     18  C   UNL     1      12.128   5.618   2.921  0.00  0.00    +0.179 C 
ATOM     21  C   UNL     1      10.623   5.604   3.190  0.00  0.00    +0.140 C 
ATOM     22  C   UNL     1      11.686   6.586   0.659  0.00  0.00    +0.127 C 
ATOM     23  C   UNL     1      13.587   4.949   1.043  0.00  0.00    +0.219 C 
ATOM     26  C   UNL     1      10.192   6.461   0.925  0.00  0.00    +0.127 C 
ATOM     31  C   UNL     1       9.033   7.561   2.809  0.00  0.00    +0.247 C 
ENDROOT
BRANCH  31  32
ATOM      1  F   UNL     1       8.751  10.119   6.917  0.00  0.00    -0.205 F 
ATOM     32  C   UNL     1       8.778   7.642   4.252  0.00  0.00    +0.040 A 
ATOM     33  C   UNL     1       8.888   8.866   4.912  0.00  0.00    +0.051 A 
ATOM     34  C   UNL     1       8.425   6.496   4.965  0.00  0.00    +0.013 A 
ATOM     35  C   UNL     1       8.645   8.944   6.283  0.00  0.00    +0.124 A 
ATOM     36  C   UNL     1       8.183   6.572   6.336  0.00  0.00    +0.004 A 
ATOM     37  C   UNL     1       8.293   7.797   6.996  0.00  0.00    +0.038 A 
ENDBRANCH  31  32
BRANCH  23  20
ATOM      9  N   UNL     1      16.921   5.216  -0.616  0.00  0.00    -0.316 NA
ATOM     20  C   UNL     1      13.997   5.172  -0.386  0.00  0.00    +0.078 C 
ATOM     24  C   UNL     1      14.798   3.981  -0.914  0.00  0.00    +0.028 C 
ATOM     25  C   UNL     1      14.792   6.472  -0.528  0.00  0.00    +0.028 C 
ATOM     28  C   UNL     1      16.226   3.953  -0.366  0.00  0.00    +0.081 C 
ATOM     29  C   UNL     1      16.220   6.339   0.003  0.00  0.00    +0.081 C 
ATOM     39  H   UNL     1      17.868   5.161  -0.242  0.00  0.00    +0.122 HD
ENDBRANCH  23  20
BRANCH  18  27
ATOM      3  O   UNL     1      13.421   7.626   2.880  0.00  0.00    -0.274 OA
ATOM      8  N   UNL     1      12.616   6.847   4.920  0.00  0.00    -0.302 N 
ATOM     27  C   UNL     1      12.790   6.811   3.547  0.00  0.00    +0.236 C 
ATOM     38  H   UNL     1      12.142   6.077   5.384  0.00  0.00    +0.150 HD
BRANCH   8  19
ATOM     19  C   UNL     1      13.174   7.881   5.760  0.00  0.00    +0.159 C 
BRANCH  19  30
ATOM      4  O   UNL     1      15.467   7.702   6.546  0.00  0.00    -0.274 OA
ATOM     10  N   UNL     1      13.918   6.203   7.338  0.00  0.00    -0.328 N 
ATOM     30  C   UNL     1      14.311   7.285   6.578  0.00  0.00    +0.231 C 
ATOM     40  H   UNL     1      14.583   5.709   7.924  0.00  0.00    +0.145 HD
ATOM     41  H   UNL     1      12.964   5.857   7.343  0.00  0.00    +0.145 HD
ENDBRANCH  19  30
BRANCH  19  14
ATOM     14  C   UNL     1      12.109   8.558   6.629  0.00  0.00    +0.035 C 
BRANCH  14  11
ATOM     11  C   UNL     1      12.358  10.045   6.879  0.00  0.00    -0.009 C 
ATOM     12  C   UNL     1      11.712  10.486   8.200  0.00  0.00    +0.003 C 
ATOM     13  C   UNL     1      11.835  10.886   5.708  0.00  0.00    +0.003 C 
ATOM     15  C   UNL     1      11.900  11.982   8.447  0.00  0.00    +0.000 C 
ATOM     16  C   UNL     1      12.023  12.381   5.959  0.00  0.00    +0.000 C 
ATOM     17  C   UNL     1      11.388  12.815   7.277  0.00  0.00    +0.000 C 
ENDBRANCH  14  11
ENDBRANCH  19  14
ENDBRANCH   8  19
ENDBRANCH  18  27
TORSDOF 7
ENDMDL
MODEL 7
REMARK VINA RESULT:      -6.6     25.351     28.831
REMARK  Name = 7673731
REMARK  7 active torsions:
REMARK  status: ('A' for Active; 'I' for Inactive)
REMARK    1  A    between atoms: N_8  and  C_19
REMARK    2  A    between atoms: C_11  and  C_14
REMARK    3  A    between atoms: C_14  and  C_19
REMARK    4  A    between atoms: C_18  and  C_27
REMARK    5  A    between atoms: C_19  and  C_30
REMARK    6  A    between atoms: C_20  and  C_23
REMARK    7  A    between atoms: C_31  and  C_32
REMARK                            x       y       z     vdW  Elec       q    Type
REMARK                         _______ _______ _______ _____ _____    ______ ____
ROOT
ATOM      2  O   UNL     1     -11.187   8.429  20.128  0.00  0.00    -0.275 OA
ATOM      5  O   UNL     1     -17.982   6.304  21.014  0.00  0.00    -0.270 OA
ATOM      6  N   UNL     1     -13.470   7.979  20.101  0.00  0.00    -0.287 N 
ATOM      7  N   UNL     1     -15.647   6.342  20.932  0.00  0.00    -0.294 N 
ATOM     18  C   UNL     1     -13.446   7.369  21.438  0.00  0.00    +0.179 C 
ATOM     21  C   UNL     1     -14.335   6.130  21.557  0.00  0.00    +0.140 C 
ATOM     22  C   UNL     1     -14.791   8.108  19.463  0.00  0.00    +0.127 C 
ATOM     23  C   UNL     1     -12.293   8.538  19.592  0.00  0.00    +0.219 C 
ATOM     26  C   UNL     1     -15.587   6.813  19.552  0.00  0.00    +0.127 C 
ATOM     31  C   UNL     1     -16.884   6.129  21.540  0.00  0.00    +0.247 C 
ENDROOT
BRANCH  31  32
ATOM      1  F   UNL     1     -15.763   2.798  24.878  0.00  0.00    -0.205 F 
ATOM     32  C   UNL     1     -16.899   5.650  22.927  0.00  0.00    +0.040 A 
ATOM     33  C   UNL     1     -16.313   4.427  23.250  0.00  0.00    +0.051 A 
ATOM     34  C   UNL     1     -17.501   6.419  23.924  0.00  0.00    +0.013 A 
ATOM     35  C   UNL     1     -16.327   3.972  24.568  0.00  0.00    +0.124 A 
ATOM     36  C   UNL     1     -17.516   5.965  25.243  0.00  0.00    +0.004 A 
ATOM     37  C   UNL     1     -16.928   4.741  25.565  0.00  0.00    +0.038 A 
ENDBRANCH  31  32
BRANCH  23  20
ATOM      9  N   UNL     1      -9.772   9.701  17.096  0.00  0.00    -0.316 NA
ATOM     20  C   UNL     1     -12.413   9.313  18.309  0.00  0.00    +0.078 C 
ATOM     24  C   UNL     1     -11.923   8.481  17.123  0.00  0.00    +0.028 C 
ATOM     25  C   UNL     1     -11.654  10.638  18.400  0.00  0.00    +0.028 C 
ATOM     28  C   UNL     1     -10.398   8.380  17.077  0.00  0.00    +0.081 C 
ATOM     29  C   UNL     1     -10.139  10.446  18.299  0.00  0.00    +0.081 C 
ATOM     39  H   UNL     1      -8.758   9.596  17.061  0.00  0.00    +0.122 HD
ENDBRANCH  23  20
BRANCH  18  27
ATOM      3  O   UNL     1     -14.841   8.314  23.132  0.00  0.00    -0.274 OA
ATOM      8  N   UNL     1     -13.037   9.552  22.338  0.00  0.00    -0.302 N 
ATOM     27  C   UNL     1     -13.862   8.442  22.402  0.00  0.00    +0.236 C 
ATOM     38  H   UNL     1     -12.299   9.587  21.641  0.00  0.00    +0.150 HD
BRANCH   8  19
ATOM     19  C   UNL     1     -13.235  10.731  23.149  0.00  0.00    +0.159 C 
BRANCH  19  30
ATOM      4  O   UNL     1     -15.084  12.060  22.299  0.00  0.00    -0.274 OA
ATOM     10  N   UNL     1     -12.978  12.460  21.475  0.00  0.00    -0.328 N 
ATOM     30  C   UNL     1     -13.881  11.811  22.290  0.00  0.00    +0.231 C 
ATOM     40  H   UNL     1     -13.281  13.197  20.846  0.00  0.00    +0.145 HD
ATOM     41  H   UNL     1     -11.989  12.232  21.464  0.00  0.00    +0.145 HD
ENDBRANCH  19  30
BRANCH  19  14
ATOM     14  C   UNL     1     -11.938  11.200  23.816  0.00  0.00    +0.035 C 
BRANCH  14  11
ATOM     11  C   UNL     1     -12.000  11.247  25.342  0.00  0.00    -0.009 C 
ATOM     12  C   UNL     1     -10.715  10.671  25.953  0.00  0.00    +0.003 C 
ATOM     13  C   UNL     1     -13.234  10.495  25.858  0.00  0.00    +0.003 C 
ATOM     15  C   UNL     1     -10.774  10.657  27.479  0.00  0.00    +0.000 C 
ATOM     16  C   UNL     1     -13.289  10.482  27.384  0.00  0.00    +0.000 C 
ATOM     17  C   UNL     1     -12.007   9.917  27.988  0.00  0.00    +0.000 C 
ENDBRANCH  14  11
ENDBRANCH  19  14
ENDBRANCH   8  19
ENDBRANCH  18  27
TORSDOF 7
ENDMDL
MODEL 8
REMARK VINA RESULT:      -6.6     15.505     18.666
REMARK  Name = 7673731
REMARK  7 active torsions:
REMARK  status: ('A' for Active; 'I' for Inactive)
REMARK    1  A    between atoms: N_8  and  C_19
REMARK    2  A    between atoms: C_11  and  C_14
REMARK    3  A    between atoms: C_14  and  C_19
REMARK    4  A    between atoms: C_18  and  C_27
REMARK    5  A    between atoms: C_19  and  C_30
REMARK    6  A    between atoms: C_20  and  C_23
REMARK    7  A    between atoms: C_31  and  C_32
REMARK                            x       y       z     vdW  Elec       q    Type
REMARK                         _______ _______ _______ _____ _____    ______ ____
ROOT
ATOM      2  O   UNL     1      11.432   6.757   6.789  0.00  0.00    -0.275 OA
ATOM      5  O   UNL     1      16.702  11.378   5.253  0.00  0.00    -0.270 OA
ATOM      6  N   UNL     1      12.845   8.525   6.244  0.00  0.00    -0.287 N 
ATOM      7  N   UNL     1      15.471   9.624   6.186  0.00  0.00    -0.294 N 
ATOM     18  C   UNL     1      13.994   7.640   6.011  0.00  0.00    +0.179 C 
ATOM     21  C   UNL     1      15.314   8.206   6.534  0.00  0.00    +0.140 C 
ATOM     22  C   UNL     1      13.052   9.955   5.962  0.00  0.00    +0.127 C 
ATOM     23  C   UNL     1      11.604   7.957   6.553  0.00  0.00    +0.219 C 
ATOM     26  C   UNL     1      14.347  10.468   6.579  0.00  0.00    +0.127 C 
ATOM     31  C   UNL     1      16.571  10.190   5.541  0.00  0.00    +0.247 C 
ENDROOT
BRANCH  31  32
ATOM      1  F   UNL     1      20.550   7.676   6.699  0.00  0.00    -0.205 F 
ATOM     32  C   UNL     1      17.682   9.307   5.167  0.00  0.00    +0.040 A 
ATOM     33  C   UNL     1      18.607   8.903   6.130  0.00  0.00    +0.051 A 
ATOM     34  C   UNL     1      17.814   8.871   3.848  0.00  0.00    +0.013 A 
ATOM     35  C   UNL     1      19.662   8.064   5.775  0.00  0.00    +0.124 A 
ATOM     36  C   UNL     1      18.869   8.032   3.492  0.00  0.00    +0.004 A 
ATOM     37  C   UNL     1      19.795   7.628   4.456  0.00  0.00    +0.038 A 
ENDBRANCH  31  32
BRANCH  23  20
ATOM      9  N   UNL     1       7.921   7.369   6.729  0.00  0.00    -0.316 NA
ATOM     20  C   UNL     1      10.426   8.889   6.595  0.00  0.00    +0.078 C 
ATOM     24  C   UNL     1       9.640   8.714   7.895  0.00  0.00    +0.028 C 
ATOM     25  C   UNL     1       9.523   8.682   5.377  0.00  0.00    +0.028 C 
ATOM     28  C   UNL     1       8.799   7.436   7.896  0.00  0.00    +0.081 C 
ATOM     29  C   UNL     1       8.688   7.405   5.485  0.00  0.00    +0.081 C 
ATOM     39  H   UNL     1       7.376   6.509   6.764  0.00  0.00    +0.122 HD
ENDBRANCH  23  20
BRANCH  18  27
ATOM      3  O   UNL     1      15.036   7.672   3.862  0.00  0.00    -0.274 OA
ATOM      8  N   UNL     1      12.868   6.846   4.050  0.00  0.00    -0.302 N 
ATOM     27  C   UNL     1      14.047   7.391   4.532  0.00  0.00    +0.236 C 
ATOM     38  H   UNL     1      12.080   6.726   4.679  0.00  0.00    +0.150 HD
BRANCH   8  19
ATOM     19  C   UNL     1      12.654   6.533   2.656  0.00  0.00    +0.159 C 
BRANCH  19  30
ATOM      4  O   UNL     1      10.476   7.490   2.164  0.00  0.00    -0.274 OA
ATOM     10  N   UNL     1      12.346   8.566   1.379  0.00  0.00    -0.328 N 
ATOM     30  C   UNL     1      11.698   7.561   2.066  0.00  0.00    +0.231 C 
ATOM     40  H   UNL     1      11.823   9.311   0.930  0.00  0.00    +0.145 HD
ATOM     41  H   UNL     1      13.356   8.603   1.290  0.00  0.00    +0.145 HD
ENDBRANCH  19  30
BRANCH  19  14
ATOM     14  C   UNL     1      12.176   5.092   2.452  0.00  0.00    +0.035 C 
BRANCH  14  11
ATOM     11  C   UNL     1      13.057   4.266   1.516  0.00  0.00    -0.009 C 
ATOM     12  C   UNL     1      14.508   4.763   1.560  0.00  0.00    +0.003 C 
ATOM     13  C   UNL     1      12.510   4.304   0.083  0.00  0.00    +0.003 C 
ATOM     15  C   UNL     1      15.399   3.987   0.592  0.00  0.00    +0.000 C 
ATOM     16  C   UNL     1      13.404   3.529  -0.883  0.00  0.00    +0.000 C 
ATOM     17  C   UNL     1      14.848   4.019  -0.829  0.00  0.00    +0.000 C 
ENDBRANCH  14  11
ENDBRANCH  19  14
ENDBRANCH   8  19
ENDBRANCH  18  27
TORSDOF 7
ENDMDL
MODEL 9
REMARK VINA RESULT:      -6.6     27.909     31.214
REMARK  Name = 7673731
REMARK  7 active torsions:
REMARK  status: ('A' for Active; 'I' for Inactive)
REMARK    1  A    between atoms: N_8  and  C_19
REMARK    2  A    between atoms: C_11  and  C_14
REMARK    3  A    between atoms: C_14  and  C_19
REMARK    4  A    between atoms: C_18  and  C_27
REMARK    5  A    between atoms: C_19  and  C_30
REMARK    6  A    between atoms: C_20  and  C_23
REMARK    7  A    between atoms: C_31  and  C_32
REMARK                            x       y       z     vdW  Elec       q    Type
REMARK                         _______ _______ _______ _____ _____    ______ ____
ROOT
ATOM      2  O   UNL     1      -5.848 -10.791  16.522  0.00  0.00    -0.275 OA
ATOM      5  O   UNL     1      -6.289 -17.190  13.308  0.00  0.00    -0.270 OA
ATOM      6  N   UNL     1      -5.955 -13.017  15.851  0.00  0.00    -0.287 N 
ATOM      7  N   UNL     1      -6.589 -14.936  13.845  0.00  0.00    -0.294 N 
ATOM     18  C   UNL     1      -5.732 -12.685  14.438  0.00  0.00    +0.179 C 
ATOM     21  C   UNL     1      -6.584 -13.514  13.476  0.00  0.00    +0.140 C 
ATOM     22  C   UNL     1      -6.034 -14.449  16.183  0.00  0.00    +0.127 C 
ATOM     23  C   UNL     1      -5.915 -11.991  16.802  0.00  0.00    +0.219 C 
ATOM     26  C   UNL     1      -6.961 -15.196  15.232  0.00  0.00    +0.127 C 
ATOM     31  C   UNL     1      -6.281 -16.000  12.998  0.00  0.00    +0.247 C 
ENDROOT
BRANCH  31  32
ATOM      1  F   UNL     1      -2.995 -15.757   9.442  0.00  0.00    -0.205 F 
ATOM     32  C   UNL     1      -5.917 -15.695  11.609  0.00  0.00    +0.040 A 
ATOM     33  C   UNL     1      -4.603 -15.874  11.177  0.00  0.00    +0.051 A 
ATOM     34  C   UNL     1      -6.884 -15.224  10.721  0.00  0.00    +0.013 A 
ATOM     35  C   UNL     1      -4.257 -15.584   9.858  0.00  0.00    +0.124 A 
ATOM     36  C   UNL     1      -6.539 -14.933   9.402  0.00  0.00    +0.004 A 
ATOM     37  C   UNL     1      -5.224 -15.113   8.969  0.00  0.00    +0.038 A 
ENDBRANCH  31  32
BRANCH  23  20
ATOM      9  N   UNL     1      -7.671 -10.585  19.782  0.00  0.00    -0.316 NA
ATOM     20  C   UNL     1      -5.960 -12.406  18.246  0.00  0.00    +0.078 C 
ATOM     24  C   UNL     1      -7.385 -12.773  18.662  0.00  0.00    +0.028 C 
ATOM     25  C   UNL     1      -5.392 -11.308  19.147  0.00  0.00    +0.028 C 
ATOM     28  C   UNL     1      -8.270 -11.539  18.849  0.00  0.00    +0.081 C 
ATOM     29  C   UNL     1      -6.361 -10.136  19.313  0.00  0.00    +0.081 C 
ATOM     39  H   UNL     1      -8.287  -9.780  19.884  0.00  0.00    +0.122 HD
ENDBRANCH  23  20
BRANCH  18  27
ATOM      3  O   UNL     1      -3.756 -13.992  14.129  0.00  0.00    -0.274 OA
ATOM      8  N   UNL     1      -3.596 -11.672  14.044  0.00  0.00    -0.302 N 
ATOM     27  C   UNL     1      -4.265 -12.876  14.182  0.00  0.00    +0.236 C 
ATOM     38  H   UNL     1      -4.100 -10.801  14.184  0.00  0.00    +0.150 HD
BRANCH   8  19
ATOM     19  C   UNL     1      -2.173 -11.581  13.813  0.00  0.00    +0.159 C 
BRANCH  19  30
ATOM      4  O   UNL     1      -1.111  -9.573  14.676  0.00  0.00    -0.274 OA
ATOM     10  N   UNL     1      -1.529 -11.301  16.129  0.00  0.00    -0.328 N 
ATOM     30  C   UNL     1      -1.559 -10.696  14.890  0.00  0.00    +0.231 C 
ATOM     40  H   UNL     1      -1.138 -10.821  16.933  0.00  0.00    +0.145 HD
ATOM     41  H   UNL     1      -1.887 -12.238  16.289  0.00  0.00    +0.145 HD
ENDBRANCH  19  30
BRANCH  19  14
ATOM     14  C   UNL     1      -1.845 -11.103  12.395  0.00  0.00    +0.035 C 
BRANCH  14  11
ATOM     11  C   UNL     1      -3.071 -10.760  11.550  0.00  0.00    -0.009 C 
ATOM     12  C   UNL     1      -3.501 -11.967  10.706  0.00  0.00    +0.003 C 
ATOM     13  C   UNL     1      -2.792  -9.542  10.659  0.00  0.00    +0.003 C 
ATOM     15  C   UNL     1      -4.693 -11.633   9.811  0.00  0.00    +0.000 C 
ATOM     16  C   UNL     1      -3.985  -9.212   9.765  0.00  0.00    +0.000 C 
ATOM     17  C   UNL     1      -4.416 -10.417   8.934  0.00  0.00    +0.000 C 
ENDBRANCH  14  11
ENDBRANCH  19  14
ENDBRANCH   8  19
ENDBRANCH  18  27
TORSDOF 7
ENDMDL
MODEL 10
REMARK VINA RESULT:      -6.4      1.809      2.380
REMARK  Name = 7673731
REMARK  7 active torsions:
REMARK  status: ('A' for Active; 'I' for Inactive)
REMARK    1  A    between atoms: N_8  and  C_19
REMARK    2  A    between atoms: C_11  and  C_14
REMARK    3  A    between atoms: C_14  and  C_19
REMARK    4  A    between atoms: C_18  and  C_27
REMARK    5  A    between atoms: C_19  and  C_30
REMARK    6  A    between atoms: C_20  and  C_23
REMARK    7  A    between atoms: C_31  and  C_32
REMARK                            x       y       z     vdW  Elec       q    Type
REMARK                         _______ _______ _______ _____ _____    ______ ____
ROOT
ATOM      2  O   UNL     1      12.451  13.480  23.263  0.00  0.00    -0.275 OA
ATOM      5  O   UNL     1      11.827   7.180  19.886  0.00  0.00    -0.270 OA
ATOM      6  N   UNL     1      12.250  11.277  22.538  0.00  0.00    -0.287 N 
ATOM      7  N   UNL     1      11.633   9.439  20.453  0.00  0.00    -0.294 N 
ATOM     18  C   UNL     1      12.586  11.620  21.149  0.00  0.00    +0.179 C 
ATOM     21  C   UNL     1      11.750  10.864  20.117  0.00  0.00    +0.140 C 
ATOM     22  C   UNL     1      12.061   9.847  22.832  0.00  0.00    +0.127 C 
ATOM     23  C   UNL     1      12.291  12.282  23.512  0.00  0.00    +0.219 C 
ATOM     26  C   UNL     1      11.155   9.178  21.807  0.00  0.00    +0.127 C 
ATOM     31  C   UNL     1      11.929   8.373  19.604  0.00  0.00    +0.247 C 
ENDROOT
BRANCH  31  32
ATOM      1  F   UNL     1      11.053   9.446  14.958  0.00  0.00    -0.205 F 
ATOM     32  C   UNL     1      12.402   8.680  18.249  0.00  0.00    +0.040 A 
ATOM     33  C   UNL     1      11.485   8.922  17.227  0.00  0.00    +0.051 A 
ATOM     34  C   UNL     1      13.771   8.729  17.982  0.00  0.00    +0.013 A 
ATOM     35  C   UNL     1      11.934   9.213  15.940  0.00  0.00    +0.124 A 
ATOM     36  C   UNL     1      14.222   9.020  16.695  0.00  0.00    +0.004 A 
ATOM     37  C   UNL     1      13.303   9.262  15.673  0.00  0.00    +0.038 A 
ENDBRANCH  31  32
BRANCH  23  20
ATOM      9  N   UNL     1      11.921  14.175  26.708  0.00  0.00    -0.316 NA
ATOM     20  C   UNL     1      12.125  11.844  24.940  0.00  0.00    +0.078 C 
ATOM     24  C   UNL     1      10.791  12.331  25.507  0.00  0.00    +0.028 C 
ATOM     25  C   UNL     1      13.295  12.331  25.798  0.00  0.00    +0.028 C 
ATOM     28  C   UNL     1      10.808  13.827  25.825  0.00  0.00    +0.081 C 
ATOM     29  C   UNL     1      13.207  13.827  26.104  0.00  0.00    +0.081 C 
ATOM     39  H   UNL     1      11.900  15.176  26.901  0.00  0.00    +0.122 HD
ENDBRANCH  23  20
BRANCH  18  27
ATOM      3  O   UNL     1      14.639  11.557  19.928  0.00  0.00    -0.274 OA
ATOM      8  N   UNL     1      14.617  10.810  22.132  0.00  0.00    -0.302 N 
ATOM     27  C   UNL     1      14.052  11.341  20.985  0.00  0.00    +0.236 C 
ATOM     38  H   UNL     1      14.023  10.597  22.929  0.00  0.00    +0.150 HD
BRANCH   8  19
ATOM     19  C   UNL     1      16.008  10.434  22.227  0.00  0.00    +0.159 C 
BRANCH  19  30
ATOM      4  O   UNL     1      16.528  12.384  23.581  0.00  0.00    -0.274 OA
ATOM     10  N   UNL     1      17.895  11.889  21.804  0.00  0.00    -0.328 N 
ATOM     30  C   UNL     1      16.818  11.658  22.633  0.00  0.00    +0.231 C 
ATOM     40  H   UNL     1      18.512  12.679  21.960  0.00  0.00    +0.145 HD
ATOM     41  H   UNL     1      18.113  11.291  21.013  0.00  0.00    +0.145 HD
ENDBRANCH  19  30
BRANCH  19  14
ATOM     14  C   UNL     1      16.522   9.782  20.940  0.00  0.00    +0.035 C 
BRANCH  14  11
ATOM     11  C   UNL     1      16.994   8.340  21.112  0.00  0.00    -0.009 C 
ATOM     12  C   UNL     1      18.512   8.291  21.337  0.00  0.00    +0.003 C 
ATOM     13  C   UNL     1      16.594   7.489  19.900  0.00  0.00    +0.003 C 
ATOM     15  C   UNL     1      19.018   6.855  21.459  0.00  0.00    +0.000 C 
ATOM     16  C   UNL     1      17.103   6.054  20.025  0.00  0.00    +0.000 C 
ATOM     17  C   UNL     1      18.610   6.010  20.257  0.00  0.00    +0.000 C 
ENDBRANCH  14  11
ENDBRANCH  19  14
ENDBRANCH   8  19
ENDBRANCH  18  27
TORSDOF 7
ENDMDL
