MODEL 1
REMARK VINA RESULT:      -6.3      0.000      0.000
REMARK  Name = 45783493
REMARK  10 active torsions:
REMARK  status: ('A' for Active; 'I' for Inactive)
REMARK    1  A    between atoms: O_5  and  C_31
REMARK    2  A    between atoms: O_5  and  C_32
REMARK    3  A    between atoms: N_6  and  C_15
REMARK    4  A    between atoms: N_10  and  C_29
REMARK    5  A    between atoms: N_10  and  C_30
REMARK    6  A    between atoms: C_11  and  C_16
REMARK    7  A    between atoms: C_15  and  C_17
REMARK    8  A    between atoms: C_20  and  C_24
REMARK    9  A    between atoms: C_23  and  C_25
REMARK   10  A    between atoms: C_30  and  C_31
REMARK                            x       y       z     vdW  Elec       q    Type
REMARK                         _______ _______ _______ _____ _____    ______ ____
ROOT
ATOM      4  O   UNL     1     -12.075  11.886  19.209  0.00  0.00    -0.336 OA
ATOM      7  N   UNL     1     -11.299  10.306  20.593  0.00  0.00    -0.190 NA
ATOM      8  N   UNL     1     -12.776  12.044  20.411  0.00  0.00    -0.056 NA
ATOM     16  C   UNL     1     -11.228  10.842  19.401  0.00  0.00    +0.245 A 
ATOM     20  C   UNL     1     -12.262  11.077  21.177  0.00  0.00    +0.204 A 
ENDROOT
BRANCH  20  24
ATOM      9  N   UNL     1     -12.424  11.330  24.883  0.00  0.00    -0.240 NA
ATOM     24  C   UNL     1     -12.690  10.854  22.528  0.00  0.00    +0.041 A 
ATOM     26  C   UNL     1     -13.739   9.987  22.814  0.00  0.00    +0.016 A 
ATOM     27  C   UNL     1     -12.071  11.495  23.588  0.00  0.00    +0.124 A 
ATOM     28  C   UNL     1     -14.131   9.791  24.134  0.00  0.00    +0.044 A 
ATOM     29  C   UNL     1     -13.448  10.480  25.123  0.00  0.00    +0.119 A 
BRANCH  29  10
ATOM     10  N   UNL     1     -13.859  10.271  26.461  0.00  0.00    -0.327 N 
ATOM     33  H   UNL     1     -14.481   9.489  26.627  0.00  0.00    +0.148 HD
BRANCH  10  30
ATOM     30  C   UNL     1     -13.436  11.109  27.537  0.00  0.00    +0.131 C 
BRANCH  30  31
ATOM     31  C   UNL     1     -12.416  10.379  28.394  0.00  0.00    +0.178 C 
BRANCH  31   5
ATOM      5  O   UNL     1     -11.111  10.851  28.083  0.00  0.00    -0.381 OA
ATOM     32  C   UNL     1     -10.399   9.922  27.278  0.00  0.00    +0.194 C 
ENDBRANCH  31   5
ENDBRANCH  30  31
ENDBRANCH  10  30
ENDBRANCH  29  10
ENDBRANCH  20  24
BRANCH  16  11
ATOM      6  N   UNL     1     -11.005   9.526  17.301  0.00  0.00    -0.287 NA
ATOM     11  C   UNL     1     -10.344  10.464  18.230  0.00  0.00    +0.146 C 
ATOM     12  C   UNL     1      -9.964  11.675  17.358  0.00  0.00    +0.030 C 
ATOM     13  C   UNL     1     -10.393  11.300  15.948  0.00  0.00    +0.017 C 
ATOM     14  C   UNL     1     -10.436   9.786  15.978  0.00  0.00    +0.085 C 
BRANCH   6  15
ATOM     15  C   UNL     1     -10.860   8.130  17.694  0.00  0.00    +0.120 C 
BRANCH  15  17
ATOM     17  C   UNL     1     -11.877   7.732  18.732  0.00  0.00    -0.033 A 
ATOM     18  C   UNL     1     -11.466   7.092  19.900  0.00  0.00    +0.005 A 
ATOM     19  C   UNL     1     -13.229   8.006  18.524  0.00  0.00    +0.005 A 
ATOM     21  C   UNL     1     -12.407   6.723  20.861  0.00  0.00    +0.012 A 
ATOM     22  C   UNL     1     -14.170   7.638  19.485  0.00  0.00    +0.012 A 
ATOM     23  C   UNL     1     -13.760   6.996  20.654  0.00  0.00    +0.055 A 
BRANCH  23  25
ATOM      1  F   UNL     1     -14.258   6.548  22.950  0.00  0.00    -0.166 F 
ATOM      2  F   UNL     1     -15.306   5.374  21.450  0.00  0.00    -0.166 F 
ATOM      3  F   UNL     1     -15.826   7.462  21.764  0.00  0.00    -0.166 F 
ATOM     25  C   UNL     1     -14.765   6.606  21.683  0.00  0.00    +0.417 C 
ENDBRANCH  23  25
ENDBRANCH  15  17
ENDBRANCH   6  15
ENDBRANCH  16  11
TORSDOF 9
ENDMDL
MODEL 2
REMARK VINA RESULT:      -6.2      6.955     10.992
REMARK  Name = 45783493
REMARK  10 active torsions:
REMARK  status: ('A' for Active; 'I' for Inactive)
REMARK    1  A    between atoms: O_5  and  C_31
REMARK    2  A    between atoms: O_5  and  C_32
REMARK    3  A    between atoms: N_6  and  C_15
REMARK    4  A    between atoms: N_10  and  C_29
REMARK    5  A    between atoms: N_10  and  C_30
REMARK    6  A    between atoms: C_11  and  C_16
REMARK    7  A    between atoms: C_15  and  C_17
REMARK    8  A    between atoms: C_20  and  C_24
REMARK    9  A    between atoms: C_23  and  C_25
REMARK   10  A    between atoms: C_30  and  C_31
REMARK                            x       y       z     vdW  Elec       q    Type
REMARK                         _______ _______ _______ _____ _____    ______ ____
ROOT
ATOM      4  O   UNL     1     -16.704   2.326  23.878  0.00  0.00    -0.336 OA
ATOM      7  N   UNL     1     -15.309   3.925  24.595  0.00  0.00    -0.190 NA
ATOM      8  N   UNL     1     -16.301   3.032  22.738  0.00  0.00    -0.056 NA
ATOM     16  C   UNL     1     -16.075   2.917  24.928  0.00  0.00    +0.245 A 
ATOM     20  C   UNL     1     -15.481   3.958  23.241  0.00  0.00    +0.204 A 
ENDROOT
BRANCH  20  24
ATOM      9  N   UNL     1     -14.973   6.722  20.807  0.00  0.00    -0.240 NA
ATOM     24  C   UNL     1     -14.817   4.930  22.421  0.00  0.00    +0.041 A 
ATOM     26  C   UNL     1     -13.431   5.043  22.424  0.00  0.00    +0.016 A 
ATOM     27  C   UNL     1     -15.536   5.784  21.603  0.00  0.00    +0.124 A 
ATOM     28  C   UNL     1     -12.815   5.995  21.619  0.00  0.00    +0.044 A 
ATOM     29  C   UNL     1     -13.624   6.803  20.836  0.00  0.00    +0.119 A 
BRANCH  29  10
ATOM     10  N   UNL     1     -12.983   7.768  20.022  0.00  0.00    -0.327 N 
ATOM     33  H   UNL     1     -13.584   8.423  19.537  0.00  0.00    +0.148 HD
BRANCH  10  30
ATOM     30  C   UNL     1     -11.564   7.830  19.872  0.00  0.00    +0.131 C 
BRANCH  30  31
ATOM     31  C   UNL     1     -11.207   8.628  18.630  0.00  0.00    +0.178 C 
BRANCH  31   5
ATOM      5  O   UNL     1     -10.717   7.748  17.626  0.00  0.00    -0.381 OA
ATOM     32  C   UNL     1     -10.535   8.419  16.388  0.00  0.00    +0.194 C 
ENDBRANCH  31   5
ENDBRANCH  30  31
ENDBRANCH  10  30
ENDBRANCH  29  10
ENDBRANCH  20  24
BRANCH  16  11
ATOM      6  N   UNL     1     -17.403   3.060  27.027  0.00  0.00    -0.287 NA
ATOM     11  C   UNL     1     -16.348   2.329  26.296  0.00  0.00    +0.146 C 
ATOM     12  C   UNL     1     -16.854   0.876  26.230  0.00  0.00    +0.030 C 
ATOM     13  C   UNL     1     -18.166   0.876  27.000  0.00  0.00    +0.017 C 
ATOM     14  C   UNL     1     -18.048   2.084  27.907  0.00  0.00    +0.085 C 
BRANCH   6  15
ATOM     15  C   UNL     1     -16.899   4.212  27.763  0.00  0.00    +0.120 C 
BRANCH  15  17
ATOM     17  C   UNL     1     -16.286   3.812  29.080  0.00  0.00    -0.033 A 
ATOM     18  C   UNL     1     -16.967   4.063  30.270  0.00  0.00    +0.005 A 
ATOM     19  C   UNL     1     -15.038   3.190  29.107  0.00  0.00    +0.005 A 
ATOM     21  C   UNL     1     -16.400   3.693  31.490  0.00  0.00    +0.012 A 
ATOM     22  C   UNL     1     -14.471   2.819  30.326  0.00  0.00    +0.012 A 
ATOM     23  C   UNL     1     -15.152   3.070  31.518  0.00  0.00    +0.055 A 
BRANCH  23  25
ATOM      1  F   UNL     1     -13.300   2.128  32.703  0.00  0.00    -0.166 F 
ATOM      2  F   UNL     1     -15.292   1.737  33.481  0.00  0.00    -0.166 F 
ATOM      3  F   UNL     1     -14.403   3.709  33.697  0.00  0.00    -0.166 F 
ATOM     25  C   UNL     1     -14.548   2.671  32.821  0.00  0.00    +0.417 C 
ENDBRANCH  23  25
ENDBRANCH  15  17
ENDBRANCH   6  15
ENDBRANCH  16  11
TORSDOF 9
ENDMDL
MODEL 3
REMARK VINA RESULT:      -6.0     19.232     22.350
REMARK  Name = 45783493
REMARK  10 active torsions:
REMARK  status: ('A' for Active; 'I' for Inactive)
REMARK    1  A    between atoms: O_5  and  C_31
REMARK    2  A    between atoms: O_5  and  C_32
REMARK    3  A    between atoms: N_6  and  C_15
REMARK    4  A    between atoms: N_10  and  C_29
REMARK    5  A    between atoms: N_10  and  C_30
REMARK    6  A    between atoms: C_11  and  C_16
REMARK    7  A    between atoms: C_15  and  C_17
REMARK    8  A    between atoms: C_20  and  C_24
REMARK    9  A    between atoms: C_23  and  C_25
REMARK   10  A    between atoms: C_30  and  C_31
REMARK                            x       y       z     vdW  Elec       q    Type
REMARK                         _______ _______ _______ _____ _____    ______ ____
ROOT
ATOM      4  O   UNL     1      -6.997 -11.033  20.086  0.00  0.00    -0.336 OA
ATOM      7  N   UNL     1      -7.130 -11.947  18.046  0.00  0.00    -0.190 NA
ATOM      8  N   UNL     1      -5.866 -10.591  19.388  0.00  0.00    -0.056 NA
ATOM     16  C   UNL     1      -7.686 -11.826  19.225  0.00  0.00    +0.245 A 
ATOM     20  C   UNL     1      -6.016 -11.172  18.194  0.00  0.00    +0.204 A 
ENDROOT
BRANCH  20  24
ATOM      9  N   UNL     1      -2.769 -10.969  16.393  0.00  0.00    -0.240 NA
ATOM     24  C   UNL     1      -5.071 -10.999  17.128  0.00  0.00    +0.041 A 
ATOM     26  C   UNL     1      -5.495 -10.706  15.836  0.00  0.00    +0.016 A 
ATOM     27  C   UNL     1      -3.710 -11.119  17.352  0.00  0.00    +0.124 A 
ATOM     28  C   UNL     1      -4.556 -10.545  14.822  0.00  0.00    +0.044 A 
ATOM     29  C   UNL     1      -3.218 -10.685  15.150  0.00  0.00    +0.119 A 
BRANCH  29  10
ATOM     10  N   UNL     1      -2.274 -10.519  14.108  0.00  0.00    -0.327 N 
ATOM     33  H   UNL     1      -1.514  -9.873  14.284  0.00  0.00    +0.148 HD
BRANCH  10  30
ATOM     30  C   UNL     1      -2.370 -11.212  12.863  0.00  0.00    +0.131 C 
BRANCH  30  31
ATOM     31  C   UNL     1      -2.040 -10.270  11.718  0.00  0.00    +0.178 C 
BRANCH  31   5
ATOM      5  O   UNL     1      -2.965 -10.472  10.656  0.00  0.00    -0.381 OA
ATOM     32  C   UNL     1      -3.353  -9.242  10.062  0.00  0.00    +0.194 C 
ENDBRANCH  31   5
ENDBRANCH  30  31
ENDBRANCH  10  30
ENDBRANCH  29  10
ENDBRANCH  20  24
BRANCH  16  11
ATOM      6  N   UNL     1     -10.164 -11.947  19.030  0.00  0.00    -0.287 NA
ATOM     11  C   UNL     1      -8.970 -12.436  19.748  0.00  0.00    +0.146 C 
ATOM     12  C   UNL     1      -9.012 -13.966  19.582  0.00  0.00    +0.030 C 
ATOM     13  C   UNL     1     -10.293 -14.247  18.812  0.00  0.00    +0.017 C 
ATOM     14  C   UNL     1     -11.149 -13.027  19.086  0.00  0.00    +0.085 C 
BRANCH   6  15
ATOM     15  C   UNL     1     -10.688 -10.699  19.568  0.00  0.00    +0.120 C 
BRANCH  15  17
ATOM     17  C   UNL     1     -10.798  -9.634  18.509  0.00  0.00    -0.033 A 
ATOM     18  C   UNL     1     -12.048  -9.285  17.999  0.00  0.00    +0.005 A 
ATOM     19  C   UNL     1      -9.650  -8.996  18.040  0.00  0.00    +0.005 A 
ATOM     21  C   UNL     1     -12.151  -8.299  17.019  0.00  0.00    +0.012 A 
ATOM     22  C   UNL     1      -9.752  -8.009  17.060  0.00  0.00    +0.012 A 
ATOM     23  C   UNL     1     -11.002  -7.660  16.549  0.00  0.00    +0.055 A 
BRANCH  23  25
ATOM      1  F   UNL     1     -12.078  -5.673  15.766  0.00  0.00    -0.166 F 
ATOM      2  F   UNL     1     -11.418  -7.109  14.274  0.00  0.00    -0.166 F 
ATOM      3  F   UNL     1      -9.965  -5.884  15.330  0.00  0.00    -0.166 F 
ATOM     25  C   UNL     1     -11.113  -6.603  15.504  0.00  0.00    +0.417 C 
ENDBRANCH  23  25
ENDBRANCH  15  17
ENDBRANCH   6  15
ENDBRANCH  16  11
TORSDOF 9
ENDMDL
MODEL 4
REMARK VINA RESULT:      -6.0     27.886     29.818
REMARK  Name = 45783493
REMARK  10 active torsions:
REMARK  status: ('A' for Active; 'I' for Inactive)
REMARK    1  A    between atoms: O_5  and  C_31
REMARK    2  A    between atoms: O_5  and  C_32
REMARK    3  A    between atoms: N_6  and  C_15
REMARK    4  A    between atoms: N_10  and  C_29
REMARK    5  A    between atoms: N_10  and  C_30
REMARK    6  A    between atoms: C_11  and  C_16
REMARK    7  A    between atoms: C_15  and  C_17
REMARK    8  A    between atoms: C_20  and  C_24
REMARK    9  A    between atoms: C_23  and  C_25
REMARK   10  A    between atoms: C_30  and  C_31
REMARK                            x       y       z     vdW  Elec       q    Type
REMARK                         _______ _______ _______ _____ _____    ______ ____
ROOT
ATOM      4  O   UNL     1      15.305   9.632  21.723  0.00  0.00    -0.336 OA
ATOM      7  N   UNL     1      15.256   7.495  21.055  0.00  0.00    -0.190 NA
ATOM      8  N   UNL     1      16.642   9.233  21.597  0.00  0.00    -0.056 NA
ATOM     16  C   UNL     1      14.556   8.550  21.386  0.00  0.00    +0.245 A 
ATOM     20  C   UNL     1      16.531   7.962  21.200  0.00  0.00    +0.204 A 
ENDROOT
BRANCH  20  24
ATOM      9  N   UNL     1      18.675   5.344  19.660  0.00  0.00    -0.240 NA
ATOM     24  C   UNL     1      17.672   7.132  20.939  0.00  0.00    +0.041 A 
ATOM     26  C   UNL     1      18.848   7.282  21.667  0.00  0.00    +0.016 A 
ATOM     27  C   UNL     1      17.637   6.158  19.956  0.00  0.00    +0.124 A 
ATOM     28  C   UNL     1      19.938   6.464  21.391  0.00  0.00    +0.044 A 
ATOM     29  C   UNL     1      19.801   5.519  20.387  0.00  0.00    +0.119 A 
BRANCH  29  10
ATOM     10  N   UNL     1      20.920   4.693  20.118  0.00  0.00    -0.327 N 
ATOM     33  H   UNL     1      21.493   4.953  19.325  0.00  0.00    +0.148 HD
BRANCH  10  30
ATOM     30  C   UNL     1      21.238   3.546  20.906  0.00  0.00    +0.131 C 
BRANCH  30  31
ATOM     31  C   UNL     1      22.510   3.796  21.698  0.00  0.00    +0.178 C 
BRANCH  31   5
ATOM      5  O   UNL     1      23.260   2.591  21.785  0.00  0.00    -0.381 OA
ATOM     32  C   UNL     1      24.027   2.368  20.611  0.00  0.00    +0.194 C 
ENDBRANCH  31   5
ENDBRANCH  30  31
ENDBRANCH  10  30
ENDBRANCH  29  10
ENDBRANCH  20  24
BRANCH  16  11
ATOM      6  N   UNL     1      12.463   8.992  20.115  0.00  0.00    -0.287 NA
ATOM     11  C   UNL     1      13.053   8.726  21.442  0.00  0.00    +0.146 C 
ATOM     12  C   UNL     1      12.325   7.467  21.948  0.00  0.00    +0.030 C 
ATOM     13  C   UNL     1      11.306   7.136  20.869  0.00  0.00    +0.017 C 
ATOM     14  C   UNL     1      11.102   8.455  20.153  0.00  0.00    +0.085 C 
BRANCH   6  15
ATOM     15  C   UNL     1      12.486  10.401  19.748  0.00  0.00    +0.120 C 
BRANCH  15  17
ATOM     17  C   UNL     1      13.310  10.646  18.511  0.00  0.00    -0.033 A 
ATOM     18  C   UNL     1      14.058  11.816  18.392  0.00  0.00    +0.005 A 
ATOM     19  C   UNL     1      13.325   9.700  17.485  0.00  0.00    +0.005 A 
ATOM     21  C   UNL     1      14.821  12.043  17.247  0.00  0.00    +0.012 A 
ATOM     22  C   UNL     1      14.089   9.926  16.340  0.00  0.00    +0.012 A 
ATOM     23  C   UNL     1      14.837  11.097  16.221  0.00  0.00    +0.055 A 
BRANCH  23  25
ATOM      1  F   UNL     1      15.273  12.441  14.291  0.00  0.00    -0.166 F 
ATOM      2  F   UNL     1      15.601  10.299  14.115  0.00  0.00    -0.166 F 
ATOM      3  F   UNL     1      16.984  11.526  15.259  0.00  0.00    -0.166 F 
ATOM     25  C   UNL     1      15.656  11.338  14.999  0.00  0.00    +0.417 C 
ENDBRANCH  23  25
ENDBRANCH  15  17
ENDBRANCH   6  15
ENDBRANCH  16  11
TORSDOF 9
ENDMDL
MODEL 5
REMARK VINA RESULT:      -6.0     28.153     31.822
REMARK  Name = 45783493
REMARK  10 active torsions:
REMARK  status: ('A' for Active; 'I' for Inactive)
REMARK    1  A    between atoms: O_5  and  C_31
REMARK    2  A    between atoms: O_5  and  C_32
REMARK    3  A    between atoms: N_6  and  C_15
REMARK    4  A    between atoms: N_10  and  C_29
REMARK    5  A    between atoms: N_10  and  C_30
REMARK    6  A    between atoms: C_11  and  C_16
REMARK    7  A    between atoms: C_15  and  C_17
REMARK    8  A    between atoms: C_20  and  C_24
REMARK    9  A    between atoms: C_23  and  C_25
REMARK   10  A    between atoms: C_30  and  C_31
REMARK                            x       y       z     vdW  Elec       q    Type
REMARK                         _______ _______ _______ _____ _____    ______ ____
ROOT
ATOM      4  O   UNL     1      10.318   7.727  -1.184  0.00  0.00    -0.336 OA
ATOM      7  N   UNL     1       9.934   5.626  -0.512  0.00  0.00    -0.190 NA
ATOM      8  N   UNL     1      10.445   7.735   0.210  0.00  0.00    -0.056 NA
ATOM     16  C   UNL     1      10.016   6.448  -1.527  0.00  0.00    +0.245 A 
ATOM     20  C   UNL     1      10.204   6.461   0.533  0.00  0.00    +0.204 A 
ENDROOT
BRANCH  20  24
ATOM      9  N   UNL     1       9.602   6.323   4.200  0.00  0.00    -0.240 NA
ATOM     24  C   UNL     1      10.226   5.991   1.888  0.00  0.00    +0.041 A 
ATOM     26  C   UNL     1      10.857   4.797   2.222  0.00  0.00    +0.016 A 
ATOM     27  C   UNL     1       9.619   6.710   2.904  0.00  0.00    +0.124 A 
ATOM     28  C   UNL     1      10.861   4.366   3.544  0.00  0.00    +0.044 A 
ATOM     29  C   UNL     1      10.226   5.158   4.486  0.00  0.00    +0.119 A 
BRANCH  29  10
ATOM     10  N   UNL     1      10.238   4.705   5.828  0.00  0.00    -0.327 N 
ATOM     33  H   UNL     1      10.031   3.725   5.977  0.00  0.00    +0.148 HD
BRANCH  10  30
ATOM     30  C   UNL     1      10.517   5.569   6.930  0.00  0.00    +0.131 C 
BRANCH  30  31
ATOM     31  C   UNL     1       9.489   5.360   8.028  0.00  0.00    +0.178 C 
BRANCH  31   5
ATOM      5  O   UNL     1       9.940   4.343   8.914  0.00  0.00    -0.381 OA
ATOM     32  C   UNL     1       9.433   4.533  10.227  0.00  0.00    +0.194 C 
ENDBRANCH  31   5
ENDBRANCH  30  31
ENDBRANCH  10  30
ENDBRANCH  29  10
ENDBRANCH  20  24
BRANCH  16  11
ATOM      6  N   UNL     1      10.173   4.784  -3.371  0.00  0.00    -0.287 NA
ATOM     11  C   UNL     1       9.825   6.172  -3.004  0.00  0.00    +0.146 C 
ATOM     12  C   UNL     1       8.364   6.342  -3.458  0.00  0.00    +0.030 C 
ATOM     13  C   UNL     1       7.997   5.023  -4.121  0.00  0.00    +0.017 C 
ATOM     14  C   UNL     1       9.337   4.440  -4.522  0.00  0.00    +0.085 C 
BRANCH   6  15
ATOM     15  C   UNL     1      11.591   4.601  -3.650  0.00  0.00    +0.120 C 
BRANCH  15  17
ATOM     17  C   UNL     1      12.390   4.406  -2.389  0.00  0.00    -0.033 A 
ATOM     18  C   UNL     1      13.349   5.348  -2.019  0.00  0.00    +0.005 A 
ATOM     19  C   UNL     1      12.169   3.283  -1.591  0.00  0.00    +0.005 A 
ATOM     21  C   UNL     1      14.090   5.168  -0.851  0.00  0.00    +0.012 A 
ATOM     22  C   UNL     1      12.909   3.103  -0.422  0.00  0.00    +0.012 A 
ATOM     23  C   UNL     1      13.869   4.045  -0.052  0.00  0.00    +0.055 A 
BRANCH  23  25
ATOM      1  F   UNL     1      15.938   3.432   0.980  0.00  0.00    -0.166 F 
ATOM      2  F   UNL     1      14.105   2.927   2.034  0.00  0.00    -0.166 F 
ATOM      3  F   UNL     1      14.782   4.992   1.946  0.00  0.00    -0.166 F 
ATOM     25  C   UNL     1      14.658   3.855   1.199  0.00  0.00    +0.417 C 
ENDBRANCH  23  25
ENDBRANCH  15  17
ENDBRANCH   6  15
ENDBRANCH  16  11
TORSDOF 9
ENDMDL
MODEL 6
REMARK VINA RESULT:      -5.9     19.571     22.517
REMARK  Name = 45783493
REMARK  10 active torsions:
REMARK  status: ('A' for Active; 'I' for Inactive)
REMARK    1  A    between atoms: O_5  and  C_31
REMARK    2  A    between atoms: O_5  and  C_32
REMARK    3  A    between atoms: N_6  and  C_15
REMARK    4  A    between atoms: N_10  and  C_29
REMARK    5  A    between atoms: N_10  and  C_30
REMARK    6  A    between atoms: C_11  and  C_16
REMARK    7  A    between atoms: C_15  and  C_17
REMARK    8  A    between atoms: C_20  and  C_24
REMARK    9  A    between atoms: C_23  and  C_25
REMARK   10  A    between atoms: C_30  and  C_31
REMARK                            x       y       z     vdW  Elec       q    Type
REMARK                         _______ _______ _______ _____ _____    ______ ____
ROOT
ATOM      4  O   UNL     1      -8.371  -9.632   7.197  0.00  0.00    -0.336 OA
ATOM      7  N   UNL     1      -7.542  -7.806   8.195  0.00  0.00    -0.190 NA
ATOM      8  N   UNL     1      -9.474  -8.840   7.538  0.00  0.00    -0.056 NA
ATOM     16  C   UNL     1      -7.274  -8.951   7.620  0.00  0.00    +0.245 A 
ATOM     20  C   UNL     1      -8.905  -7.782   8.122  0.00  0.00    +0.204 A 
ENDROOT
BRANCH  20  24
ATOM      9  N   UNL     1     -11.558  -5.912   9.936  0.00  0.00    -0.240 NA
ATOM     24  C   UNL     1      -9.668  -6.684   8.642  0.00  0.00    +0.041 A 
ATOM     26  C   UNL     1      -9.296  -5.368   8.387  0.00  0.00    +0.016 A 
ATOM     27  C   UNL     1     -10.796  -6.901   9.415  0.00  0.00    +0.124 A 
ATOM     28  C   UNL     1     -10.054  -4.324   8.906  0.00  0.00    +0.044 A 
ATOM     29  C   UNL     1     -11.166  -4.647   9.667  0.00  0.00    +0.119 A 
BRANCH  29  10
ATOM     10  N   UNL     1     -11.928  -3.573  10.189  0.00  0.00    -0.327 N 
ATOM     33  H   UNL     1     -11.408  -2.800  10.585  0.00  0.00    +0.148 HD
BRANCH  10  30
ATOM     30  C   UNL     1     -13.356  -3.563  10.173  0.00  0.00    +0.131 C 
BRANCH  30  31
ATOM     31  C   UNL     1     -13.890  -3.367  11.582  0.00  0.00    +0.178 C 
BRANCH  31   5
ATOM      5  O   UNL     1     -12.805  -3.341  12.500  0.00  0.00    -0.381 OA
ATOM     32  C   UNL     1     -12.904  -4.389  13.454  0.00  0.00    +0.194 C 
ENDBRANCH  31   5
ENDBRANCH  30  31
ENDBRANCH  10  30
ENDBRANCH  29  10
ENDBRANCH  20  24
BRANCH  16  11
ATOM      6  N   UNL     1      -5.284 -10.074   8.606  0.00  0.00    -0.287 NA
ATOM     11  C   UNL     1      -5.932  -9.606   7.365  0.00  0.00    +0.146 C 
ATOM     12  C   UNL     1      -6.043 -10.864   6.484  0.00  0.00    +0.030 C 
ATOM     13  C   UNL     1      -5.377 -11.972   7.287  0.00  0.00    +0.017 C 
ATOM     14  C   UNL     1      -4.461 -11.225   8.234  0.00  0.00    +0.085 C 
BRANCH   6  15
ATOM     15  C   UNL     1      -4.507  -9.038   9.274  0.00  0.00    +0.120 C 
BRANCH  15  17
ATOM     17  C   UNL     1      -3.893  -9.536  10.556  0.00  0.00    -0.033 A 
ATOM     18  C   UNL     1      -2.506  -9.597  10.687  0.00  0.00    +0.005 A 
ATOM     19  C   UNL     1      -4.712  -9.935  11.613  0.00  0.00    +0.005 A 
ATOM     21  C   UNL     1      -1.937 -10.058  11.873  0.00  0.00    +0.012 A 
ATOM     22  C   UNL     1      -4.143 -10.395  12.800  0.00  0.00    +0.012 A 
ATOM     23  C   UNL     1      -2.756 -10.457  12.931  0.00  0.00    +0.055 A 
BRANCH  23  25
ATOM      1  F   UNL     1      -3.063 -11.246  15.168  0.00  0.00    -0.166 F 
ATOM      2  F   UNL     1      -1.304 -10.033  14.766  0.00  0.00    -0.166 F 
ATOM      3  F   UNL     1      -1.405 -12.083  14.049  0.00  0.00    -0.166 F 
ATOM     25  C   UNL     1      -2.147 -10.946  14.201  0.00  0.00    +0.417 C 
ENDBRANCH  23  25
ENDBRANCH  15  17
ENDBRANCH   6  15
ENDBRANCH  16  11
TORSDOF 9
ENDMDL
MODEL 7
REMARK VINA RESULT:      -5.9     30.508     32.107
REMARK  Name = 45783493
REMARK  10 active torsions:
REMARK  status: ('A' for Active; 'I' for Inactive)
REMARK    1  A    between atoms: O_5  and  C_31
REMARK    2  A    between atoms: O_5  and  C_32
REMARK    3  A    between atoms: N_6  and  C_15
REMARK    4  A    between atoms: N_10  and  C_29
REMARK    5  A    between atoms: N_10  and  C_30
REMARK    6  A    between atoms: C_11  and  C_16
REMARK    7  A    between atoms: C_15  and  C_17
REMARK    8  A    between atoms: C_20  and  C_24
REMARK    9  A    between atoms: C_23  and  C_25
REMARK   10  A    between atoms: C_30  and  C_31
REMARK                            x       y       z     vdW  Elec       q    Type
REMARK                         _______ _______ _______ _____ _____    ______ ____
ROOT
ATOM      4  O   UNL     1      19.299   6.622  20.596  0.00  0.00    -0.336 OA
ATOM      7  N   UNL     1      18.044   8.355  21.259  0.00  0.00    -0.190 NA
ATOM      8  N   UNL     1      18.024   6.408  20.056  0.00  0.00    -0.056 NA
ATOM     16  C   UNL     1      19.223   7.788  21.289  0.00  0.00    +0.245 A 
ATOM     20  C   UNL     1      17.341   7.471  20.490  0.00  0.00    +0.204 A 
ENDROOT
BRANCH  20  24
ATOM      9  N   UNL     1      13.934   8.959  20.513  0.00  0.00    -0.240 NA
ATOM     24  C   UNL     1      15.957   7.680  20.176  0.00  0.00    +0.041 A 
ATOM     26  C   UNL     1      15.296   6.859  19.270  0.00  0.00    +0.016 A 
ATOM     27  C   UNL     1      15.238   8.707  20.765  0.00  0.00    +0.124 A 
ATOM     28  C   UNL     1      13.954   7.086  18.984  0.00  0.00    +0.044 A 
ATOM     29  C   UNL     1      13.324   8.140  19.627  0.00  0.00    +0.119 A 
BRANCH  29  10
ATOM     10  N   UNL     1      11.958   8.360  19.326  0.00  0.00    -0.327 N 
ATOM     33  H   UNL     1      11.692   8.286  18.351  0.00  0.00    +0.148 HD
BRANCH  10  30
ATOM     30  C   UNL     1      10.990   8.677  20.326  0.00  0.00    +0.131 C 
BRANCH  30  31
ATOM     31  C   UNL     1      10.773   7.480  21.237  0.00  0.00    +0.178 C 
BRANCH  31   5
ATOM      5  O   UNL     1      10.477   7.933  22.552  0.00  0.00    -0.381 OA
ATOM     32  C   UNL     1      10.934   9.261  22.762  0.00  0.00    +0.194 C 
ENDBRANCH  31   5
ENDBRANCH  30  31
ENDBRANCH  10  30
ENDBRANCH  29  10
ENDBRANCH  20  24
BRANCH  16  11
ATOM      6  N   UNL     1      21.546   7.214  21.974  0.00  0.00    -0.287 NA
ATOM     11  C   UNL     1      20.492   8.248  21.977  0.00  0.00    +0.146 C 
ATOM     12  C   UNL     1      21.136   9.464  21.287  0.00  0.00    +0.030 C 
ATOM     13  C   UNL     1      22.566   9.041  20.988  0.00  0.00    +0.017 C 
ATOM     14  C   UNL     1      22.823   7.926  21.981  0.00  0.00    +0.085 C 
BRANCH   6  15
ATOM     15  C   UNL     1      21.435   6.277  23.084  0.00  0.00    +0.120 C 
BRANCH  15  17
ATOM     17  C   UNL     1      22.186   5.000  22.818  0.00  0.00    -0.033 A 
ATOM     18  C   UNL     1      21.850   4.209  21.720  0.00  0.00    +0.005 A 
ATOM     19  C   UNL     1      23.220   4.608  23.670  0.00  0.00    +0.005 A 
ATOM     21  C   UNL     1      22.546   3.026  21.472  0.00  0.00    +0.012 A 
ATOM     22  C   UNL     1      23.917   3.426  23.422  0.00  0.00    +0.012 A 
ATOM     23  C   UNL     1      23.580   2.634  22.324  0.00  0.00    +0.055 A 
BRANCH  23  25
ATOM      1  F   UNL     1      23.937   0.737  20.913  0.00  0.00    -0.166 F 
ATOM      2  F   UNL     1      24.179   0.452  23.054  0.00  0.00    -0.166 F 
ATOM      3  F   UNL     1      25.674   1.552  21.921  0.00  0.00    -0.166 F 
ATOM     25  C   UNL     1      24.327   1.372  22.057  0.00  0.00    +0.417 C 
ENDBRANCH  23  25
ENDBRANCH  15  17
ENDBRANCH   6  15
ENDBRANCH  16  11
TORSDOF 9
ENDMDL
MODEL 8
REMARK VINA RESULT:      -5.9     32.661     36.581
REMARK  Name = 45783493
REMARK  10 active torsions:
REMARK  status: ('A' for Active; 'I' for Inactive)
REMARK    1  A    between atoms: O_5  and  C_31
REMARK    2  A    between atoms: O_5  and  C_32
REMARK    3  A    between atoms: N_6  and  C_15
REMARK    4  A    between atoms: N_10  and  C_29
REMARK    5  A    between atoms: N_10  and  C_30
REMARK    6  A    between atoms: C_11  and  C_16
REMARK    7  A    between atoms: C_15  and  C_17
REMARK    8  A    between atoms: C_20  and  C_24
REMARK    9  A    between atoms: C_23  and  C_25
REMARK   10  A    between atoms: C_30  and  C_31
REMARK                            x       y       z     vdW  Elec       q    Type
REMARK                         _______ _______ _______ _____ _____    ______ ____
ROOT
ATOM      4  O   UNL     1      -2.322 -15.359  -1.099  0.00  0.00    -0.336 OA
ATOM      7  N   UNL     1      -1.017 -13.546  -0.944  0.00  0.00    -0.190 NA
ATOM      8  N   UNL     1      -1.867 -15.094  -2.397  0.00  0.00    -0.056 NA
ATOM     16  C   UNL     1      -1.775 -14.401  -0.306  0.00  0.00    +0.245 A 
ATOM     20  C   UNL     1      -1.104 -14.012  -2.224  0.00  0.00    +0.204 A 
ENDROOT
BRANCH  20  24
ATOM      9  N   UNL     1      -0.503 -12.365  -5.503  0.00  0.00    -0.240 NA
ATOM     24  C   UNL     1      -0.415 -13.372  -3.307  0.00  0.00    +0.041 A 
ATOM     26  C   UNL     1       0.954 -13.131  -3.244  0.00  0.00    +0.016 A 
ATOM     27  C   UNL     1      -1.091 -12.973  -4.448  0.00  0.00    +0.124 A 
ATOM     28  C   UNL     1       1.594 -12.508  -4.309  0.00  0.00    +0.044 A 
ATOM     29  C   UNL     1       0.828 -12.148  -5.406  0.00  0.00    +0.119 A 
BRANCH  29  10
ATOM     10  N   UNL     1       1.494 -11.514  -6.482  0.00  0.00    -0.327 N 
ATOM     33  H   UNL     1       1.229 -10.555  -6.676  0.00  0.00    +0.148 HD
BRANCH  10  30
ATOM     30  C   UNL     1       2.485 -12.173  -7.271  0.00  0.00    +0.131 C 
BRANCH  30  31
ATOM     31  C   UNL     1       1.870 -13.359  -7.994  0.00  0.00    +0.178 C 
BRANCH  31   5
ATOM      5  O   UNL     1       2.596 -14.538  -7.673  0.00  0.00    -0.381 OA
ATOM     32  C   UNL     1       3.998 -14.313  -7.706  0.00  0.00    +0.194 C 
ENDBRANCH  31   5
ENDBRANCH  30  31
ENDBRANCH  10  30
ENDBRANCH  29  10
ENDBRANCH  20  24
BRANCH  16  11
ATOM      6  N   UNL     1      -1.027 -13.968   2.027  0.00  0.00    -0.287 NA
ATOM     11  C   UNL     1      -2.119 -14.467   1.167  0.00  0.00    +0.146 C 
ATOM     12  C   UNL     1      -3.335 -13.598   1.534  0.00  0.00    +0.030 C 
ATOM     13  C   UNL     1      -2.848 -12.683   2.648  0.00  0.00    +0.017 C 
ATOM     14  C   UNL     1      -1.663 -13.428   3.229  0.00  0.00    +0.085 C 
BRANCH   6  15
ATOM     15  C   UNL     1      -0.034 -14.985   2.344  0.00  0.00    +0.120 C 
BRANCH  15  17
ATOM     17  C   UNL     1       1.137 -14.940   1.397  0.00  0.00    -0.033 A 
ATOM     18  C   UNL     1       1.367 -16.001   0.523  0.00  0.00    +0.005 A 
ATOM     19  C   UNL     1       1.989 -13.835   1.395  0.00  0.00    +0.005 A 
ATOM     21  C   UNL     1       2.451 -15.960  -0.354  0.00  0.00    +0.012 A 
ATOM     22  C   UNL     1       3.072 -13.793   0.517  0.00  0.00    +0.012 A 
ATOM     23  C   UNL     1       3.304 -14.855  -0.357  0.00  0.00    +0.055 A 
BRANCH  23  25
ATOM      1  F   UNL     1       5.224 -15.940  -1.281  0.00  0.00    -0.166 F 
ATOM      2  F   UNL     1       5.318 -13.783  -1.027  0.00  0.00    -0.166 F 
ATOM      3  F   UNL     1       4.095 -14.646  -2.604  0.00  0.00    -0.166 F 
ATOM     25  C   UNL     1       4.460 -14.809  -1.298  0.00  0.00    +0.417 C 
ENDBRANCH  23  25
ENDBRANCH  15  17
ENDBRANCH   6  15
ENDBRANCH  16  11
TORSDOF 9
ENDMDL
MODEL 9
REMARK VINA RESULT:      -5.8      4.369      6.029
REMARK  Name = 45783493
REMARK  10 active torsions:
REMARK  status: ('A' for Active; 'I' for Inactive)
REMARK    1  A    between atoms: O_5  and  C_31
REMARK    2  A    between atoms: O_5  and  C_32
REMARK    3  A    between atoms: N_6  and  C_15
REMARK    4  A    between atoms: N_10  and  C_29
REMARK    5  A    between atoms: N_10  and  C_30
REMARK    6  A    between atoms: C_11  and  C_16
REMARK    7  A    between atoms: C_15  and  C_17
REMARK    8  A    between atoms: C_20  and  C_24
REMARK    9  A    between atoms: C_23  and  C_25
REMARK   10  A    between atoms: C_30  and  C_31
REMARK                            x       y       z     vdW  Elec       q    Type
REMARK                         _______ _______ _______ _____ _____    ______ ____
ROOT
ATOM      4  O   UNL     1     -11.683  11.060  20.122  0.00  0.00    -0.336 OA
ATOM      7  N   UNL     1     -11.540   9.013  19.224  0.00  0.00    -0.190 NA
ATOM      8  N   UNL     1     -12.350  10.201  21.004  0.00  0.00    -0.056 NA
ATOM     16  C   UNL     1     -11.238  10.280  19.102  0.00  0.00    +0.245 A 
ATOM     20  C   UNL     1     -12.223   9.013  20.407  0.00  0.00    +0.204 A 
ENDROOT
BRANCH  20  24
ATOM      9  N   UNL     1     -14.657   6.640  21.914  0.00  0.00    -0.240 NA
ATOM     24  C   UNL     1     -12.766   7.807  20.963  0.00  0.00    +0.041 A 
ATOM     26  C   UNL     1     -11.984   6.665  21.097  0.00  0.00    +0.016 A 
ATOM     27  C   UNL     1     -14.084   7.744  21.382  0.00  0.00    +0.124 A 
ATOM     28  C   UNL     1     -12.538   5.510  21.639  0.00  0.00    +0.044 A 
ATOM     29  C   UNL     1     -13.867   5.549  22.029  0.00  0.00    +0.119 A 
BRANCH  29  10
ATOM     10  N   UNL     1     -14.417   4.366  22.579  0.00  0.00    -0.327 N 
ATOM     33  H   UNL     1     -14.457   3.559  21.968  0.00  0.00    +0.148 HD
BRANCH  10  30
ATOM     30  C   UNL     1     -14.902   4.292  23.919  0.00  0.00    +0.131 C 
BRANCH  30  31
ATOM     31  C   UNL     1     -16.262   3.616  23.943  0.00  0.00    +0.178 C 
BRANCH  31   5
ATOM      5  O   UNL     1     -16.376   2.741  22.828  0.00  0.00    -0.381 OA
ATOM     32  C   UNL     1     -17.707   2.699  22.333  0.00  0.00    +0.194 C 
ENDBRANCH  31   5
ENDBRANCH  30  31
ENDBRANCH  10  30
ENDBRANCH  29  10
ENDBRANCH  20  24
BRANCH  16  11
ATOM      6  N   UNL     1     -11.011  10.687  16.657  0.00  0.00    -0.287 NA
ATOM     11  C   UNL     1     -10.472  10.983  18.000  0.00  0.00    +0.146 C 
ATOM     12  C   UNL     1     -10.535  12.517  18.116  0.00  0.00    +0.030 C 
ATOM     13  C   UNL     1     -11.062  12.997  16.773  0.00  0.00    +0.017 C 
ATOM     14  C   UNL     1     -10.726  11.859  15.830  0.00  0.00    +0.085 C 
BRANCH   6  15
ATOM     15  C   UNL     1     -10.471   9.464  16.078  0.00  0.00    +0.120 C 
BRANCH  15  17
ATOM     17  C   UNL     1     -11.497   8.732  15.254  0.00  0.00    -0.033 A 
ATOM     18  C   UNL     1     -12.838   8.749  15.635  0.00  0.00    +0.005 A 
ATOM     19  C   UNL     1     -11.106   8.039  14.108  0.00  0.00    +0.005 A 
ATOM     21  C   UNL     1     -13.789   8.072  14.873  0.00  0.00    +0.012 A 
ATOM     22  C   UNL     1     -12.057   7.363  13.344  0.00  0.00    +0.012 A 
ATOM     23  C   UNL     1     -13.399   7.379  13.726  0.00  0.00    +0.055 A 
BRANCH  23  25
ATOM      1  F   UNL     1     -15.537   6.314  13.608  0.00  0.00    -0.166 F 
ATOM      2  F   UNL     1     -13.940   5.492  12.383  0.00  0.00    -0.166 F 
ATOM      3  F   UNL     1     -14.872   7.381  11.842  0.00  0.00    -0.166 F 
ATOM     25  C   UNL     1     -14.416   6.658  12.908  0.00  0.00    +0.417 C 
ENDBRANCH  23  25
ENDBRANCH  15  17
ENDBRANCH   6  15
ENDBRANCH  16  11
TORSDOF 9
ENDMDL
MODEL 10
REMARK VINA RESULT:      -5.8     18.948     21.699
REMARK  Name = 45783493
REMARK  10 active torsions:
REMARK  status: ('A' for Active; 'I' for Inactive)
REMARK    1  A    between atoms: O_5  and  C_31
REMARK    2  A    between atoms: O_5  and  C_32
REMARK    3  A    between atoms: N_6  and  C_15
REMARK    4  A    between atoms: N_10  and  C_29
REMARK    5  A    between atoms: N_10  and  C_30
REMARK    6  A    between atoms: C_11  and  C_16
REMARK    7  A    between atoms: C_15  and  C_17
REMARK    8  A    between atoms: C_20  and  C_24
REMARK    9  A    between atoms: C_23  and  C_25
REMARK   10  A    between atoms: C_30  and  C_31
REMARK                            x       y       z     vdW  Elec       q    Type
REMARK                         _______ _______ _______ _____ _____    ______ ____
ROOT
ATOM      4  O   UNL     1      -8.842 -11.942  17.102  0.00  0.00    -0.336 OA
ATOM      7  N   UNL     1      -7.910  -9.998  16.495  0.00  0.00    -0.190 NA
ATOM      8  N   UNL     1      -9.903 -11.084  16.785  0.00  0.00    -0.056 NA
ATOM     16  C   UNL     1      -7.706 -11.224  16.905  0.00  0.00    +0.245 A 
ATOM     20  C   UNL     1      -9.274  -9.958  16.436  0.00  0.00    +0.204 A 
ENDROOT
BRANCH  20  24
ATOM      9  N   UNL     1     -11.263  -7.623  14.335  0.00  0.00    -0.240 NA
ATOM     24  C   UNL     1      -9.976  -8.777  16.025  0.00  0.00    +0.041 A 
ATOM     26  C   UNL     1     -10.067  -7.670  16.861  0.00  0.00    +0.016 A 
ATOM     27  C   UNL     1     -10.585  -8.704  14.784  0.00  0.00    +0.124 A 
ATOM     28  C   UNL     1     -10.755  -6.539  16.436  0.00  0.00    +0.044 A 
ATOM     29  C   UNL     1     -11.330  -6.566  15.175  0.00  0.00    +0.119 A 
BRANCH  29  10
ATOM     10  N   UNL     1     -12.028  -5.407  14.756  0.00  0.00    -0.327 N 
ATOM     33  H   UNL     1     -11.939  -4.588  15.344  0.00  0.00    +0.148 HD
BRANCH  10  30
ATOM     30  C   UNL     1     -12.826  -5.374  13.573  0.00  0.00    +0.131 C 
BRANCH  30  31
ATOM     31  C   UNL     1     -12.411  -4.204  12.698  0.00  0.00    +0.178 C 
BRANCH  31   5
ATOM      5  O   UNL     1     -13.307  -3.119  12.900  0.00  0.00    -0.381 OA
ATOM     32  C   UNL     1     -14.661  -3.545  12.851  0.00  0.00    +0.194 C 
ENDBRANCH  31   5
ENDBRANCH  30  31
ENDBRANCH  10  30
ENDBRANCH  29  10
ENDBRANCH  20  24
BRANCH  16  11
ATOM      6  N   UNL     1      -5.336 -11.567  16.228  0.00  0.00    -0.287 NA
ATOM     11  C   UNL     1      -6.399 -11.938  17.183  0.00  0.00    +0.146 C 
ATOM     12  C   UNL     1      -5.818 -11.598  18.567  0.00  0.00    +0.030 C 
ATOM     13  C   UNL     1      -4.406 -11.101  18.295  0.00  0.00    +0.017 C 
ATOM     14  C   UNL     1      -4.069 -11.705  16.947  0.00  0.00    +0.085 C 
BRANCH   6  15
ATOM     15  C   UNL     1      -5.360 -12.357  15.004  0.00  0.00    +0.120 C 
BRANCH  15  17
ATOM     17  C   UNL     1      -4.884 -11.565  13.815  0.00  0.00    -0.033 A 
ATOM     18  C   UNL     1      -3.559 -11.666  13.396  0.00  0.00    +0.005 A 
ATOM     19  C   UNL     1      -5.771 -10.732  13.133  0.00  0.00    +0.005 A 
ATOM     21  C   UNL     1      -3.117 -10.933  12.295  0.00  0.00    +0.012 A 
ATOM     22  C   UNL     1      -5.330  -9.999  12.030  0.00  0.00    +0.012 A 
ATOM     23  C   UNL     1      -4.004 -10.099  11.611  0.00  0.00    +0.055 A 
BRANCH  23  25
ATOM      1  F   UNL     1      -3.712  -9.964   9.241  0.00  0.00    -0.166 F 
ATOM      2  F   UNL     1      -2.201  -9.026  10.492  0.00  0.00    -0.166 F 
ATOM      3  F   UNL     1      -4.165  -8.117  10.283  0.00  0.00    -0.166 F 
ATOM     25  C   UNL     1      -3.533  -9.319  10.431  0.00  0.00    +0.417 C 
ENDBRANCH  23  25
ENDBRANCH  15  17
ENDBRANCH   6  15
ENDBRANCH  16  11
TORSDOF 9
ENDMDL
