MODEL 1
REMARK VINA RESULT:      -6.7      0.000      0.000
REMARK  Name = 38027112
REMARK  12 active torsions:
REMARK  status: ('A' for Active; 'I' for Inactive)
REMARK    1  A    between atoms: N_5  and  C_15
REMARK    2  A    between atoms: N_6  and  C_22
REMARK    3  A    between atoms: N_7  and  C_23
REMARK    4  A    between atoms: C_8  and  C_12
REMARK    5  A    between atoms: C_9  and  C_15
REMARK    6  A    between atoms: C_11  and  C_16
REMARK    7  A    between atoms: C_12  and  C_17
REMARK    8  A    between atoms: C_12  and  C_18
REMARK    9  A    between atoms: C_13  and  C_19
REMARK   10  A    between atoms: C_16  and  C_20
REMARK   11  A    between atoms: C_21  and  C_26
REMARK   12  A    between atoms: C_22  and  C_23
REMARK                            x       y       z     vdW  Elec       q    Type
REMARK                         _______ _______ _______ _____ _____    ______ ____
ROOT
ATOM      8  C   UNL     1      13.281  10.253  20.537  0.00  0.00    +0.000 C 
ATOM      9  C   UNL     1      13.137   9.793  22.010  0.00  0.00    +0.032 C 
ATOM     10  C   UNL     1      12.067   9.801  19.713  0.00  0.00    +0.012 C 
ATOM     11  C   UNL     1      11.887   8.270  19.731  0.00  0.00    +0.023 C 
ATOM     13  C   UNL     1      12.001   7.707  21.132  0.00  0.00    -0.073 C 
ATOM     14  C   UNL     1      12.550   8.407  22.141  0.00  0.00    -0.022 C 
ATOM     19  C   UNL     1      11.427   6.336  21.359  0.00  0.00    +0.039 C 
ENDROOT
BRANCH   8  12
ATOM     12  C   UNL     1      13.445  11.772  20.430  0.00  0.00    -0.013 C 
ATOM     17  C   UNL     1      12.499  12.478  21.397  0.00  0.00    +0.007 C 
ATOM     18  C   UNL     1      13.198  12.234  18.998  0.00  0.00    +0.007 C 
ENDBRANCH   8  12
BRANCH   9  15
ATOM     15  C   UNL     1      14.484   9.849  22.741  0.00  0.00    +0.112 C 
BRANCH  15   5
ATOM      3  O   UNL     1      16.980  10.283  21.392  0.00  0.00    -0.270 OA
ATOM      5  N   UNL     1      15.372   8.845  22.247  0.00  0.00    -0.311 N 
ATOM     21  C   UNL     1      16.571   9.144  21.600  0.00  0.00    +0.244 C 
ATOM     34  H   UNL     1      15.146   7.879  22.463  0.00  0.00    +0.149 HD
BRANCH  21  26
ATOM      1  F   UNL     1      19.593   4.770  19.796  0.00  0.00    -0.205 F 
ATOM     26  C   UNL     1      17.370   7.987  21.122  0.00  0.00    +0.037 A 
ATOM     29  C   UNL     1      16.859   7.144  20.136  0.00  0.00    +0.016 A 
ATOM     30  C   UNL     1      18.634   7.743  21.661  0.00  0.00    +0.016 A 
ATOM     31  C   UNL     1      17.609   6.057  19.688  0.00  0.00    +0.039 A 
ATOM     32  C   UNL     1      19.384   6.655  21.214  0.00  0.00    +0.039 A 
ATOM     33  C   UNL     1      18.873   5.814  20.227  0.00  0.00    +0.123 A 
ENDBRANCH  21  26
ENDBRANCH  15   5
ENDBRANCH   9  15
BRANCH  11  16
ATOM     16  C   UNL     1      12.877   7.587  18.782  0.00  0.00    +0.103 C 
BRANCH  16  20
ATOM      2  O   UNL     1      11.781   8.093  16.686  0.00  0.00    -0.276 OA
ATOM      6  N   UNL     1      14.004   8.698  16.989  0.00  0.00    -0.314 N 
ATOM     20  C   UNL     1      12.795   8.141  17.377  0.00  0.00    +0.214 C 
ATOM     35  H   UNL     1      14.783   8.696  17.642  0.00  0.00    +0.149 HD
BRANCH   6  22
ATOM     22  C   UNL     1      14.216   9.300  15.694  0.00  0.00    +0.119 C 
BRANCH  22  23
ATOM     23  C   UNL     1      13.775  10.757  15.685  0.00  0.00    +0.103 C 
BRANCH  23   7
ATOM      4  O   UNL     1      17.684  12.184  15.143  0.00  0.00    -0.377 OA
ATOM      7  N   UNL     1      14.901  11.627  15.350  0.00  0.00    -0.297 NA
ATOM     24  C   UNL     1      15.727  11.027  14.294  0.00  0.00    +0.112 C 
ATOM     25  C   UNL     1      15.721  11.897  16.539  0.00  0.00    +0.112 C 
ATOM     27  C   UNL     1      16.903  11.946  13.971  0.00  0.00    +0.175 C 
ATOM     28  C   UNL     1      16.895  12.797  16.163  0.00  0.00    +0.175 C 
ENDBRANCH  23   7
ENDBRANCH  22  23
ENDBRANCH   6  22
ENDBRANCH  16  20
ENDBRANCH  11  16
TORSDOF 9
ENDMDL
MODEL 2
REMARK VINA RESULT:      -6.6     26.856     29.550
REMARK  Name = 38027112
REMARK  12 active torsions:
REMARK  status: ('A' for Active; 'I' for Inactive)
REMARK    1  A    between atoms: N_5  and  C_15
REMARK    2  A    between atoms: N_6  and  C_22
REMARK    3  A    between atoms: N_7  and  C_23
REMARK    4  A    between atoms: C_8  and  C_12
REMARK    5  A    between atoms: C_9  and  C_15
REMARK    6  A    between atoms: C_11  and  C_16
REMARK    7  A    between atoms: C_12  and  C_17
REMARK    8  A    between atoms: C_12  and  C_18
REMARK    9  A    between atoms: C_13  and  C_19
REMARK   10  A    between atoms: C_16  and  C_20
REMARK   11  A    between atoms: C_21  and  C_26
REMARK   12  A    between atoms: C_22  and  C_23
REMARK                            x       y       z     vdW  Elec       q    Type
REMARK                         _______ _______ _______ _____ _____    ______ ____
ROOT
ATOM      8  C   UNL     1      -3.036 -12.170  12.605  0.00  0.00    +0.000 C 
ATOM      9  C   UNL     1      -1.980 -11.047  12.449  0.00  0.00    +0.032 C 
ATOM     10  C   UNL     1      -3.622 -12.548  11.236  0.00  0.00    +0.012 C 
ATOM     11  C   UNL     1      -4.286 -11.348  10.533  0.00  0.00    +0.023 C 
ATOM     13  C   UNL     1      -3.405 -10.116  10.575  0.00  0.00    -0.073 C 
ATOM     14  C   UNL     1      -2.372 -10.004  11.428  0.00  0.00    -0.022 C 
ATOM     19  C   UNL     1      -3.713  -9.030   9.581  0.00  0.00    +0.039 C 
ENDROOT
BRANCH   8  12
ATOM     12  C   UNL     1      -2.450 -13.412  13.280  0.00  0.00    -0.013 C 
ATOM     17  C   UNL     1      -2.302 -14.546  12.270  0.00  0.00    +0.007 C 
ATOM     18  C   UNL     1      -3.324 -13.843  14.453  0.00  0.00    +0.007 C 
ENDBRANCH   8  12
BRANCH   9  15
ATOM     15  C   UNL     1      -1.695 -10.365  13.792  0.00  0.00    +0.112 C 
BRANCH  15   5
ATOM      3  O   UNL     1      -1.930 -10.913  16.600  0.00  0.00    -0.270 OA
ATOM      5  N   UNL     1      -2.883 -10.281  14.581  0.00  0.00    -0.311 N 
ATOM     21  C   UNL     1      -2.910 -10.566  15.946  0.00  0.00    +0.244 C 
ATOM     34  H   UNL     1      -3.714  -9.911  14.129  0.00  0.00    +0.149 HD
BRANCH  21  26
ATOM      1  F   UNL     1      -7.900 -10.154  18.485  0.00  0.00    -0.205 F 
ATOM     26  C   UNL     1      -4.230 -10.457  16.618  0.00  0.00    +0.037 A 
ATOM     29  C   UNL     1      -4.409 -10.986  17.895  0.00  0.00    +0.016 A 
ATOM     30  C   UNL     1      -5.291  -9.824  15.970  0.00  0.00    +0.016 A 
ATOM     31  C   UNL     1      -5.648 -10.884  18.527  0.00  0.00    +0.039 A 
ATOM     32  C   UNL     1      -6.532  -9.723  16.601  0.00  0.00    +0.039 A 
ATOM     33  C   UNL     1      -6.710 -10.252  17.879  0.00  0.00    +0.123 A 
ENDBRANCH  21  26
ENDBRANCH  15   5
ENDBRANCH   9  15
BRANCH  11  16
ATOM     16  C   UNL     1      -5.668 -11.056  11.126  0.00  0.00    +0.103 C 
BRANCH  16  20
ATOM      2  O   UNL     1      -7.076 -12.035   9.420  0.00  0.00    -0.276 OA
ATOM      6  N   UNL     1      -7.306  -9.781   9.938  0.00  0.00    -0.314 N 
ATOM     20  C   UNL     1      -6.749 -11.045  10.069  0.00  0.00    +0.214 C 
ATOM     35  H   UNL     1      -6.970  -9.028  10.530  0.00  0.00    +0.149 HD
BRANCH   6  22
ATOM     22  C   UNL     1      -8.361  -9.477   9.000  0.00  0.00    +0.119 C 
BRANCH  22  23
ATOM     23  C   UNL     1      -8.122  -8.139   8.316  0.00  0.00    +0.103 C 
BRANCH  23   7
ATOM      4  O   UNL     1     -11.155  -5.260   8.670  0.00  0.00    -0.377 OA
ATOM      7  N   UNL     1      -9.010  -7.119   8.872  0.00  0.00    -0.297 NA
ATOM     24  C   UNL     1     -10.409  -7.564   8.824  0.00  0.00    +0.112 C 
ATOM     25  C   UNL     1      -8.860  -5.849   8.149  0.00  0.00    +0.112 C 
ATOM     27  C   UNL     1     -11.318  -6.479   9.397  0.00  0.00    +0.175 C 
ATOM     28  C   UNL     1      -9.804  -4.804   8.739  0.00  0.00    +0.175 C 
ENDBRANCH  23   7
ENDBRANCH  22  23
ENDBRANCH   6  22
ENDBRANCH  16  20
ENDBRANCH  11  16
TORSDOF 9
ENDMDL
MODEL 3
REMARK VINA RESULT:      -6.4      2.819      6.467
REMARK  Name = 38027112
REMARK  12 active torsions:
REMARK  status: ('A' for Active; 'I' for Inactive)
REMARK    1  A    between atoms: N_5  and  C_15
REMARK    2  A    between atoms: N_6  and  C_22
REMARK    3  A    between atoms: N_7  and  C_23
REMARK    4  A    between atoms: C_8  and  C_12
REMARK    5  A    between atoms: C_9  and  C_15
REMARK    6  A    between atoms: C_11  and  C_16
REMARK    7  A    between atoms: C_12  and  C_17
REMARK    8  A    between atoms: C_12  and  C_18
REMARK    9  A    between atoms: C_13  and  C_19
REMARK   10  A    between atoms: C_16  and  C_20
REMARK   11  A    between atoms: C_21  and  C_26
REMARK   12  A    between atoms: C_22  and  C_23
REMARK                            x       y       z     vdW  Elec       q    Type
REMARK                         _______ _______ _______ _____ _____    ______ ____
ROOT
ATOM      8  C   UNL     1      12.097   9.179  20.634  0.00  0.00    +0.000 C 
ATOM      9  C   UNL     1      11.999   8.909  19.112  0.00  0.00    +0.032 C 
ATOM     10  C   UNL     1      12.120  10.690  20.910  0.00  0.00    +0.012 C 
ATOM     11  C   UNL     1      13.302  11.392  20.213  0.00  0.00    +0.023 C 
ATOM     13  C   UNL     1      13.433  10.967  18.765  0.00  0.00    -0.073 C 
ATOM     14  C   UNL     1      12.833   9.862  18.287  0.00  0.00    -0.022 C 
ATOM     19  C   UNL     1      14.234  11.868  17.865  0.00  0.00    +0.039 C 
ENDROOT
BRANCH   8  12
ATOM     12  C   UNL     1      10.943   8.528  21.402  0.00  0.00    -0.013 C 
ATOM     17  C   UNL     1      10.488   9.433  22.544  0.00  0.00    +0.007 C 
ATOM     18  C   UNL     1      11.360   7.160  21.930  0.00  0.00    +0.007 C 
ENDBRANCH   8  12
BRANCH   9  15
ATOM     15  C   UNL     1      12.395   7.466  18.779  0.00  0.00    +0.112 C 
BRANCH  15   5
ATOM      3  O   UNL     1      14.827   7.268  17.268  0.00  0.00    -0.270 OA
ATOM      5  N   UNL     1      13.694   7.165  19.291  0.00  0.00    -0.311 N 
ATOM     21  C   UNL     1      14.829   7.088  18.483  0.00  0.00    +0.244 C 
ATOM     34  H   UNL     1      13.790   7.095  20.299  0.00  0.00    +0.149 HD
BRANCH  21  26
ATOM      1  F   UNL     1      19.640   5.772  21.060  0.00  0.00    -0.205 F 
ATOM     26  C   UNL     1      16.102   6.740  19.164  0.00  0.00    +0.037 A 
ATOM     29  C   UNL     1      16.942   5.769  18.621  0.00  0.00    +0.016 A 
ATOM     30  C   UNL     1      16.457   7.385  20.349  0.00  0.00    +0.016 A 
ATOM     31  C   UNL     1      18.137   5.441  19.260  0.00  0.00    +0.039 A 
ATOM     32  C   UNL     1      17.652   7.057  20.990  0.00  0.00    +0.039 A 
ATOM     33  C   UNL     1      18.492   6.087  20.445  0.00  0.00    +0.123 A 
ENDBRANCH  21  26
ENDBRANCH  15   5
ENDBRANCH   9  15
BRANCH  11  16
ATOM     16  C   UNL     1      14.610  11.159  20.974  0.00  0.00    +0.103 C 
BRANCH  16  20
ATOM      2  O   UNL     1      14.874  13.315  22.040  0.00  0.00    -0.276 OA
ATOM      6  N   UNL     1      14.752  11.399  23.349  0.00  0.00    -0.314 N 
ATOM     20  C   UNL     1      14.759  12.097  22.151  0.00  0.00    +0.214 C 
ATOM     35  H   UNL     1      14.643  10.389  23.334  0.00  0.00    +0.149 HD
BRANCH   6  22
ATOM     22  C   UNL     1      14.881  12.040  24.637  0.00  0.00    +0.119 C 
BRANCH  22  23
ATOM     23  C   UNL     1      13.568  11.999  25.407  0.00  0.00    +0.103 C 
BRANCH  23   7
ATOM      4  O   UNL     1      10.331  14.546  24.606  0.00  0.00    -0.377 OA
ATOM      7  N   UNL     1      12.537  12.751  24.694  0.00  0.00    -0.297 NA
ATOM     24  C   UNL     1      12.715  14.195  24.892  0.00  0.00    +0.112 C 
ATOM     25  C   UNL     1      11.197  12.343  25.135  0.00  0.00    +0.112 C 
ATOM     27  C   UNL     1      11.620  14.959  24.151  0.00  0.00    +0.175 C 
ATOM     28  C   UNL     1      10.138  13.149  24.387  0.00  0.00    +0.175 C 
ENDBRANCH  23   7
ENDBRANCH  22  23
ENDBRANCH   6  22
ENDBRANCH  16  20
ENDBRANCH  11  16
TORSDOF 9
ENDMDL
MODEL 4
REMARK VINA RESULT:      -6.4     26.892     29.574
REMARK  Name = 38027112
REMARK  12 active torsions:
REMARK  status: ('A' for Active; 'I' for Inactive)
REMARK    1  A    between atoms: N_5  and  C_15
REMARK    2  A    between atoms: N_6  and  C_22
REMARK    3  A    between atoms: N_7  and  C_23
REMARK    4  A    between atoms: C_8  and  C_12
REMARK    5  A    between atoms: C_9  and  C_15
REMARK    6  A    between atoms: C_11  and  C_16
REMARK    7  A    between atoms: C_12  and  C_17
REMARK    8  A    between atoms: C_12  and  C_18
REMARK    9  A    between atoms: C_13  and  C_19
REMARK   10  A    between atoms: C_16  and  C_20
REMARK   11  A    between atoms: C_21  and  C_26
REMARK   12  A    between atoms: C_22  and  C_23
REMARK                            x       y       z     vdW  Elec       q    Type
REMARK                         _______ _______ _______ _____ _____    ______ ____
ROOT
ATOM      8  C   UNL     1      -3.023 -12.261  13.056  0.00  0.00    +0.000 C 
ATOM      9  C   UNL     1      -1.937 -11.161  12.945  0.00  0.00    +0.032 C 
ATOM     10  C   UNL     1      -3.489 -12.697  11.659  0.00  0.00    +0.012 C 
ATOM     11  C   UNL     1      -4.066 -11.523  10.844  0.00  0.00    +0.023 C 
ATOM     13  C   UNL     1      -3.171 -10.302  10.908  0.00  0.00    -0.073 C 
ATOM     14  C   UNL     1      -2.217 -10.164  11.846  0.00  0.00    -0.022 C 
ATOM     19  C   UNL     1      -3.369  -9.262   9.841  0.00  0.00    +0.039 C 
ENDROOT
BRANCH   8  12
ATOM     12  C   UNL     1      -2.522 -13.478  13.840  0.00  0.00    -0.013 C 
ATOM     17  C   UNL     1      -2.011 -14.552  12.884  0.00  0.00    +0.007 C 
ATOM     18  C   UNL     1      -3.629 -14.029  14.732  0.00  0.00    +0.007 C 
ENDBRANCH   8  12
BRANCH   9  15
ATOM     15  C   UNL     1      -1.763 -10.420  14.276  0.00  0.00    +0.112 C 
BRANCH  15   5
ATOM      3  O   UNL     1      -2.375 -11.059  17.006  0.00  0.00    -0.270 OA
ATOM      5  N   UNL     1      -3.021 -10.249  14.930  0.00  0.00    -0.311 N 
ATOM     21  C   UNL     1      -3.234 -10.587  16.266  0.00  0.00    +0.244 C 
ATOM     34  H   UNL     1      -3.755  -9.777  14.409  0.00  0.00    +0.149 HD
BRANCH  21  26
ATOM      1  F   UNL     1      -8.422  -9.775  18.254  0.00  0.00    -0.205 F 
ATOM     26  C   UNL     1      -4.607 -10.373  16.792  0.00  0.00    +0.037 A 
ATOM     29  C   UNL     1      -5.578  -9.780  15.986  0.00  0.00    +0.016 A 
ATOM     30  C   UNL     1      -4.924 -10.764  18.093  0.00  0.00    +0.016 A 
ATOM     31  C   UNL     1      -6.867  -9.578  16.479  0.00  0.00    +0.039 A 
ATOM     32  C   UNL     1      -6.213 -10.561  18.587  0.00  0.00    +0.039 A 
ATOM     33  C   UNL     1      -7.184  -9.969  17.781  0.00  0.00    +0.123 A 
ENDBRANCH  21  26
ENDBRANCH  15   5
ENDBRANCH   9  15
BRANCH  11  16
ATOM     16  C   UNL     1      -5.490 -11.185  11.294  0.00  0.00    +0.103 C 
BRANCH  16  20
ATOM      2  O   UNL     1      -6.392 -11.600   9.088  0.00  0.00    -0.276 OA
ATOM      6  N   UNL     1      -7.269  -9.876  10.376  0.00  0.00    -0.314 N 
ATOM     20  C   UNL     1      -6.414 -10.938  10.122  0.00  0.00    +0.214 C 
ATOM     35  H   UNL     1      -7.213  -9.398  11.271  0.00  0.00    +0.149 HD
BRANCH   6  22
ATOM     22  C   UNL     1      -8.258  -9.416   9.430  0.00  0.00    +0.119 C 
BRANCH  22  23
ATOM     23  C   UNL     1      -7.708  -8.296   8.559  0.00  0.00    +0.103 C 
BRANCH  23   7
ATOM      4  O   UNL     1      -7.426  -8.279   4.372  0.00  0.00    -0.377 OA
ATOM      7  N   UNL     1      -7.977  -8.570   7.149  0.00  0.00    -0.297 NA
ATOM     24  C   UNL     1      -6.830  -9.238   6.520  0.00  0.00    +0.112 C 
ATOM     25  C   UNL     1      -8.295  -7.330   6.428  0.00  0.00    +0.112 C 
ATOM     27  C   UNL     1      -7.128  -9.503   5.046  0.00  0.00    +0.175 C 
ATOM     28  C   UNL     1      -8.561  -7.640   4.957  0.00  0.00    +0.175 C 
ENDBRANCH  23   7
ENDBRANCH  22  23
ENDBRANCH   6  22
ENDBRANCH  16  20
ENDBRANCH  11  16
TORSDOF 9
ENDMDL
MODEL 5
REMARK VINA RESULT:      -6.3      3.705      6.932
REMARK  Name = 38027112
REMARK  12 active torsions:
REMARK  status: ('A' for Active; 'I' for Inactive)
REMARK    1  A    between atoms: N_5  and  C_15
REMARK    2  A    between atoms: N_6  and  C_22
REMARK    3  A    between atoms: N_7  and  C_23
REMARK    4  A    between atoms: C_8  and  C_12
REMARK    5  A    between atoms: C_9  and  C_15
REMARK    6  A    between atoms: C_11  and  C_16
REMARK    7  A    between atoms: C_12  and  C_17
REMARK    8  A    between atoms: C_12  and  C_18
REMARK    9  A    between atoms: C_13  and  C_19
REMARK   10  A    between atoms: C_16  and  C_20
REMARK   11  A    between atoms: C_21  and  C_26
REMARK   12  A    between atoms: C_22  and  C_23
REMARK                            x       y       z     vdW  Elec       q    Type
REMARK                         _______ _______ _______ _____ _____    ______ ____
ROOT
ATOM      8  C   UNL     1      17.148   7.774  21.227  0.00  0.00    +0.000 C 
ATOM      9  C   UNL     1      18.696   7.786  21.155  0.00  0.00    +0.032 C 
ATOM     10  C   UNL     1      16.566   8.960  20.444  0.00  0.00    +0.012 C 
ATOM     11  C   UNL     1      17.070  10.316  20.979  0.00  0.00    +0.023 C 
ATOM     13  C   UNL     1      18.570  10.314  21.190  0.00  0.00    -0.073 C 
ATOM     14  C   UNL     1      19.282   9.175  21.252  0.00  0.00    -0.022 C 
ATOM     19  C   UNL     1      19.241  11.657  21.282  0.00  0.00    +0.039 C 
ENDROOT
BRANCH   8  12
ATOM     12  C   UNL     1      16.565   6.463  20.693  0.00  0.00    -0.013 C 
ATOM     17  C   UNL     1      17.225   6.087  19.370  0.00  0.00    +0.007 C 
ATOM     18  C   UNL     1      15.053   6.581  20.528  0.00  0.00    +0.007 C 
ENDBRANCH   8  12
BRANCH   9  15
ATOM     15  C   UNL     1      19.307   6.897  22.244  0.00  0.00    +0.112 C 
BRANCH  15   5
ATOM      3  O   UNL     1      21.381   5.559  23.711  0.00  0.00    -0.270 OA
ATOM      5  N   UNL     1      20.332   6.062  21.703  0.00  0.00    -0.311 N 
ATOM     21  C   UNL     1      21.306   5.448  22.490  0.00  0.00    +0.244 C 
ATOM     34  H   UNL     1      20.280   5.849  20.711  0.00  0.00    +0.149 HD
BRANCH  21  26
ATOM      1  F   UNL     1      25.133   2.364  19.776  0.00  0.00    -0.205 F 
ATOM     26  C   UNL     1      22.318   4.632  21.772  0.00  0.00    +0.037 A 
ATOM     29  C   UNL     1      22.433   3.268  22.040  0.00  0.00    +0.016 A 
ATOM     30  C   UNL     1      23.154   5.230  20.828  0.00  0.00    +0.016 A 
ATOM     31  C   UNL     1      23.384   2.502  21.366  0.00  0.00    +0.039 A 
ATOM     32  C   UNL     1      24.106   4.464  20.155  0.00  0.00    +0.039 A 
ATOM     33  C   UNL     1      24.220   3.100  20.423  0.00  0.00    +0.123 A 
ENDBRANCH  21  26
ENDBRANCH  15   5
ENDBRANCH   9  15
BRANCH  11  16
ATOM     16  C   UNL     1      16.335  10.709  22.265  0.00  0.00    +0.103 C 
BRANCH  16  20
ATOM      2  O   UNL     1      14.931  12.270  21.063  0.00  0.00    -0.276 OA
ATOM      6  N   UNL     1      14.064  11.125  22.890  0.00  0.00    -0.314 N 
ATOM     20  C   UNL     1      15.056  11.464  21.981  0.00  0.00    +0.214 C 
ATOM     35  H   UNL     1      14.266  10.437  23.610  0.00  0.00    +0.149 HD
BRANCH   6  22
ATOM     22  C   UNL     1      12.738  11.695  22.860  0.00  0.00    +0.119 C 
BRANCH  22  23
ATOM     23  C   UNL     1      11.679  10.643  23.161  0.00  0.00    +0.103 C 
BRANCH  23   7
ATOM      4  O   UNL     1      10.803   7.719  20.281  0.00  0.00    -0.377 OA
ATOM      7  N   UNL     1      11.815   9.510  22.248  0.00  0.00    -0.297 NA
ATOM     24  C   UNL     1      11.610   9.934  20.857  0.00  0.00    +0.112 C 
ATOM     25  C   UNL     1      10.865   8.445  22.595  0.00  0.00    +0.112 C 
ATOM     27  C   UNL     1      11.743   8.733  19.923  0.00  0.00    +0.175 C 
ATOM     28  C   UNL     1      11.017   7.278  21.622  0.00  0.00    +0.175 C 
ENDBRANCH  23   7
ENDBRANCH  22  23
ENDBRANCH   6  22
ENDBRANCH  16  20
ENDBRANCH  11  16
TORSDOF 9
ENDMDL
MODEL 6
REMARK VINA RESULT:      -6.3      2.976      6.385
REMARK  Name = 38027112
REMARK  12 active torsions:
REMARK  status: ('A' for Active; 'I' for Inactive)
REMARK    1  A    between atoms: N_5  and  C_15
REMARK    2  A    between atoms: N_6  and  C_22
REMARK    3  A    between atoms: N_7  and  C_23
REMARK    4  A    between atoms: C_8  and  C_12
REMARK    5  A    between atoms: C_9  and  C_15
REMARK    6  A    between atoms: C_11  and  C_16
REMARK    7  A    between atoms: C_12  and  C_17
REMARK    8  A    between atoms: C_12  and  C_18
REMARK    9  A    between atoms: C_13  and  C_19
REMARK   10  A    between atoms: C_16  and  C_20
REMARK   11  A    between atoms: C_21  and  C_26
REMARK   12  A    between atoms: C_22  and  C_23
REMARK                            x       y       z     vdW  Elec       q    Type
REMARK                         _______ _______ _______ _____ _____    ______ ____
ROOT
ATOM      8  C   UNL     1      13.175   8.718  19.450  0.00  0.00    +0.000 C 
ATOM      9  C   UNL     1      13.533   8.162  18.049  0.00  0.00    +0.032 C 
ATOM     10  C   UNL     1      12.576  10.127  19.330  0.00  0.00    +0.012 C 
ATOM     11  C   UNL     1      13.540  11.115  18.644  0.00  0.00    +0.023 C 
ATOM     13  C   UNL     1      14.144  10.528  17.386  0.00  0.00    -0.073 C 
ATOM     14  C   UNL     1      14.120   9.208  17.130  0.00  0.00    -0.022 C 
ATOM     19  C   UNL     1      14.738  11.500  16.404  0.00  0.00    +0.039 C 
ENDROOT
BRANCH   8  12
ATOM     12  C   UNL     1      12.201   7.801  20.194  0.00  0.00    -0.013 C 
ATOM     17  C   UNL     1      10.867   8.509  20.414  0.00  0.00    +0.007 C 
ATOM     18  C   UNL     1      12.801   7.353  21.522  0.00  0.00    +0.007 C 
ENDBRANCH   8  12
BRANCH   9  15
ATOM     15  C   UNL     1      14.498   6.975  18.155  0.00  0.00    +0.112 C 
BRANCH  15   5
ATOM      3  O   UNL     1      16.868   5.412  18.579  0.00  0.00    -0.270 OA
ATOM      5  N   UNL     1      15.555   7.261  19.072  0.00  0.00    -0.311 N 
ATOM     21  C   UNL     1      16.677   6.444  19.216  0.00  0.00    +0.244 C 
ATOM     34  H   UNL     1      15.513   8.147  19.567  0.00  0.00    +0.149 HD
BRANCH  21  26
ATOM      1  F   UNL     1      20.448   8.039  23.058  0.00  0.00    -0.205 F 
ATOM     26  C   UNL     1      17.675   6.866  20.232  0.00  0.00    +0.037 A 
ATOM     29  C   UNL     1      18.791   6.070  20.487  0.00  0.00    +0.016 A 
ATOM     30  C   UNL     1      17.495   8.060  20.932  0.00  0.00    +0.016 A 
ATOM     31  C   UNL     1      19.728   6.465  21.441  0.00  0.00    +0.039 A 
ATOM     32  C   UNL     1      18.432   8.455  21.887  0.00  0.00    +0.039 A 
ATOM     33  C   UNL     1      19.548   7.659  22.141  0.00  0.00    +0.123 A 
ENDBRANCH  21  26
ENDBRANCH  15   5
ENDBRANCH   9  15
BRANCH  11  16
ATOM     16  C   UNL     1      14.631  11.583  19.612  0.00  0.00    +0.103 C 
BRANCH  16  20
ATOM      2  O   UNL     1      14.052  13.931  19.660  0.00  0.00    -0.276 OA
ATOM      6  N   UNL     1      14.252  12.761  21.658  0.00  0.00    -0.314 N 
ATOM     20  C   UNL     1      14.279  12.894  20.278  0.00  0.00    +0.214 C 
ATOM     35  H   UNL     1      14.447  11.854  22.073  0.00  0.00    +0.149 HD
BRANCH   6  22
ATOM     22  C   UNL     1      13.946  13.854  22.551  0.00  0.00    +0.119 C 
BRANCH  22  23
ATOM     23  C   UNL     1      14.134  13.448  24.005  0.00  0.00    +0.103 C 
BRANCH  23   7
ATOM      4  O   UNL     1      10.115  12.377  24.559  0.00  0.00    -0.377 OA
ATOM      7  N   UNL     1      12.839  13.196  24.634  0.00  0.00    -0.297 NA
ATOM     24  C   UNL     1      12.466  11.781  24.513  0.00  0.00    +0.112 C 
ATOM     25  C   UNL     1      11.798  14.044  24.038  0.00  0.00    +0.112 C 
ATOM     27  C   UNL     1      11.106  11.545  25.164  0.00  0.00    +0.175 C 
ATOM     28  C   UNL     1      10.453  13.756  24.702  0.00  0.00    +0.175 C 
ENDBRANCH  23   7
ENDBRANCH  22  23
ENDBRANCH   6  22
ENDBRANCH  16  20
ENDBRANCH  11  16
TORSDOF 9
ENDMDL
MODEL 7
REMARK VINA RESULT:      -6.3     27.463     30.290
REMARK  Name = 38027112
REMARK  12 active torsions:
REMARK  status: ('A' for Active; 'I' for Inactive)
REMARK    1  A    between atoms: N_5  and  C_15
REMARK    2  A    between atoms: N_6  and  C_22
REMARK    3  A    between atoms: N_7  and  C_23
REMARK    4  A    between atoms: C_8  and  C_12
REMARK    5  A    between atoms: C_9  and  C_15
REMARK    6  A    between atoms: C_11  and  C_16
REMARK    7  A    between atoms: C_12  and  C_17
REMARK    8  A    between atoms: C_12  and  C_18
REMARK    9  A    between atoms: C_13  and  C_19
REMARK   10  A    between atoms: C_16  and  C_20
REMARK   11  A    between atoms: C_21  and  C_26
REMARK   12  A    between atoms: C_22  and  C_23
REMARK                            x       y       z     vdW  Elec       q    Type
REMARK                         _______ _______ _______ _____ _____    ______ ____
ROOT
ATOM      8  C   UNL     1      -6.167 -10.715  15.720  0.00  0.00    +0.000 C 
ATOM      9  C   UNL     1      -6.814 -10.724  17.127  0.00  0.00    +0.032 C 
ATOM     10  C   UNL     1      -5.197 -11.895  15.568  0.00  0.00    +0.012 C 
ATOM     11  C   UNL     1      -4.073 -11.866  16.622  0.00  0.00    +0.023 C 
ATOM     13  C   UNL     1      -4.614 -11.610  18.013  0.00  0.00    -0.073 C 
ATOM     14  C   UNL     1      -5.846 -11.111  18.221  0.00  0.00    -0.022 C 
ATOM     19  C   UNL     1      -3.722 -11.982  19.165  0.00  0.00    +0.039 C 
ENDROOT
BRANCH   8  12
ATOM     12  C   UNL     1      -7.221 -10.762  14.610  0.00  0.00    -0.013 C 
ATOM     17  C   UNL     1      -8.215 -11.890  14.869  0.00  0.00    +0.007 C 
ATOM     18  C   UNL     1      -6.553 -10.932  13.249  0.00  0.00    +0.007 C 
ENDBRANCH   8  12
BRANCH   9  15
ATOM     15  C   UNL     1      -7.440  -9.364  17.458  0.00  0.00    +0.112 C 
BRANCH  15   5
ATOM      3  O   UNL     1     -10.047  -9.174  16.272  0.00  0.00    -0.270 OA
ATOM      5  N   UNL     1      -8.693  -9.529  18.123  0.00  0.00    -0.311 N 
ATOM     21  C   UNL     1      -9.920  -9.420  17.469  0.00  0.00    +0.244 C 
ATOM     34  H   UNL     1      -8.667  -9.826  19.094  0.00  0.00    +0.149 HD
BRANCH  21  26
ATOM      1  F   UNL     1     -14.508 -10.079  20.636  0.00  0.00    -0.205 F 
ATOM     26  C   UNL     1     -11.133  -9.594  18.307  0.00  0.00    +0.037 A 
ATOM     29  C   UNL     1     -11.011  -9.976  19.643  0.00  0.00    +0.016 A 
ATOM     30  C   UNL     1     -12.397  -9.376  17.757  0.00  0.00    +0.016 A 
ATOM     31  C   UNL     1     -12.150 -10.140  20.430  0.00  0.00    +0.039 A 
ATOM     32  C   UNL     1     -13.537  -9.541  18.544  0.00  0.00    +0.039 A 
ATOM     33  C   UNL     1     -13.414  -9.921  19.880  0.00  0.00    +0.123 A 
ENDBRANCH  21  26
ENDBRANCH  15   5
ENDBRANCH   9  15
BRANCH  11  16
ATOM     16  C   UNL     1      -2.997 -10.840  16.253  0.00  0.00    +0.103 C 
BRANCH  16  20
ATOM      2  O   UNL     1      -1.591 -12.198  14.827  0.00  0.00    -0.276 OA
ATOM      6  N   UNL     1      -2.530 -10.246  13.984  0.00  0.00    -0.314 N 
ATOM     20  C   UNL     1      -2.288 -11.196  14.966  0.00  0.00    +0.214 C 
ATOM     35  H   UNL     1      -3.131  -9.455  14.197  0.00  0.00    +0.149 HD
BRANCH   6  22
ATOM     22  C   UNL     1      -1.977 -10.329  12.653  0.00  0.00    +0.119 C 
BRANCH  22  23
ATOM     23  C   UNL     1      -2.706 -11.372  11.817  0.00  0.00    +0.103 C 
BRANCH  23   7
ATOM      4  O   UNL     1      -4.508  -9.755   8.389  0.00  0.00    -0.377 OA
ATOM      7  N   UNL     1      -3.672 -10.728  10.930  0.00  0.00    -0.297 NA
ATOM     24  C   UNL     1      -4.085 -11.641   9.857  0.00  0.00    +0.112 C 
ATOM     25  C   UNL     1      -3.113  -9.497  10.357  0.00  0.00    +0.112 C 
ATOM     27  C   UNL     1      -5.083 -10.943   8.936  0.00  0.00    +0.175 C 
ATOM     28  C   UNL     1      -4.134  -8.848   9.426  0.00  0.00    +0.175 C 
ENDBRANCH  23   7
ENDBRANCH  22  23
ENDBRANCH   6  22
ENDBRANCH  16  20
ENDBRANCH  11  16
TORSDOF 9
ENDMDL
MODEL 8
REMARK VINA RESULT:      -6.2      2.719      4.151
REMARK  Name = 38027112
REMARK  12 active torsions:
REMARK  status: ('A' for Active; 'I' for Inactive)
REMARK    1  A    between atoms: N_5  and  C_15
REMARK    2  A    between atoms: N_6  and  C_22
REMARK    3  A    between atoms: N_7  and  C_23
REMARK    4  A    between atoms: C_8  and  C_12
REMARK    5  A    between atoms: C_9  and  C_15
REMARK    6  A    between atoms: C_11  and  C_16
REMARK    7  A    between atoms: C_12  and  C_17
REMARK    8  A    between atoms: C_12  and  C_18
REMARK    9  A    between atoms: C_13  and  C_19
REMARK   10  A    between atoms: C_16  and  C_20
REMARK   11  A    between atoms: C_21  and  C_26
REMARK   12  A    between atoms: C_22  and  C_23
REMARK                            x       y       z     vdW  Elec       q    Type
REMARK                         _______ _______ _______ _____ _____    ______ ____
ROOT
ATOM      8  C   UNL     1      13.180   9.268  20.041  0.00  0.00    +0.000 C 
ATOM      9  C   UNL     1      12.272   8.180  19.414  0.00  0.00    +0.032 C 
ATOM     10  C   UNL     1      12.932  10.626  19.368  0.00  0.00    +0.012 C 
ATOM     11  C   UNL     1      13.197  10.582  17.850  0.00  0.00    +0.023 C 
ATOM     13  C   UNL     1      12.549   9.377  17.201  0.00  0.00    -0.073 C 
ATOM     14  C   UNL     1      12.130   8.319  17.917  0.00  0.00    -0.022 C 
ATOM     19  C   UNL     1      12.352   9.435  15.711  0.00  0.00    +0.039 C 
ENDROOT
BRANCH   8  12
ATOM     12  C   UNL     1      12.963   9.389  21.552  0.00  0.00    -0.013 C 
ATOM     17  C   UNL     1      11.628  10.067  21.843  0.00  0.00    +0.007 C 
ATOM     18  C   UNL     1      14.113  10.158  22.194  0.00  0.00    +0.007 C 
ENDBRANCH   8  12
BRANCH   9  15
ATOM     15  C   UNL     1      12.781   6.773  19.751  0.00  0.00    +0.112 C 
BRANCH  15   5
ATOM      3  O   UNL     1      15.121   6.880  18.092  0.00  0.00    -0.270 OA
ATOM      5  N   UNL     1      14.138   6.817  20.193  0.00  0.00    -0.311 N 
ATOM     21  C   UNL     1      15.221   6.868  19.316  0.00  0.00    +0.244 C 
ATOM     34  H   UNL     1      14.297   6.903  21.192  0.00  0.00    +0.149 HD
BRANCH  21  26
ATOM      1  F   UNL     1      20.328   6.925  21.650  0.00  0.00    -0.205 F 
ATOM     26  C   UNL     1      16.572   6.883  19.934  0.00  0.00    +0.037 A 
ATOM     29  C   UNL     1      16.882   7.827  20.911  0.00  0.00    +0.016 A 
ATOM     30  C   UNL     1      17.531   5.951  19.536  0.00  0.00    +0.016 A 
ATOM     31  C   UNL     1      18.150   7.842  21.492  0.00  0.00    +0.039 A 
ATOM     32  C   UNL     1      18.800   5.966  20.115  0.00  0.00    +0.039 A 
ATOM     33  C   UNL     1      19.110   6.910  21.093  0.00  0.00    +0.123 A 
ENDBRANCH  21  26
ENDBRANCH  15   5
ENDBRANCH   9  15
BRANCH  11  16
ATOM     16  C   UNL     1      14.699  10.627  17.550  0.00  0.00    +0.103 C 
BRANCH  16  20
ATOM      2  O   UNL     1      16.252  12.220  16.603  0.00  0.00    -0.276 OA
ATOM      6  N   UNL     1      13.968  12.538  16.313  0.00  0.00    -0.314 N 
ATOM     20  C   UNL     1      15.090  11.867  16.779  0.00  0.00    +0.214 C 
ATOM     35  H   UNL     1      13.047  12.157  16.506  0.00  0.00    +0.149 HD
BRANCH   6  22
ATOM     22  C   UNL     1      14.042  13.759  15.546  0.00  0.00    +0.119 C 
BRANCH  22  23
ATOM     23  C   UNL     1      14.003  13.474  14.051  0.00  0.00    +0.103 C 
BRANCH  23   7
ATOM      4  O   UNL     1      10.670  13.285  11.508  0.00  0.00    -0.377 OA
ATOM      7  N   UNL     1      12.627  13.524  13.560  0.00  0.00    -0.297 NA
ATOM     24  C   UNL     1      12.208  12.213  13.049  0.00  0.00    +0.112 C 
ATOM     25  C   UNL     1      12.485  14.543  12.511  0.00  0.00    +0.112 C 
ATOM     27  C   UNL     1      10.774  12.293  12.530  0.00  0.00    +0.175 C 
ATOM     28  C   UNL     1      11.045  14.569  12.007  0.00  0.00    +0.175 C 
ENDBRANCH  23   7
ENDBRANCH  22  23
ENDBRANCH   6  22
ENDBRANCH  16  20
ENDBRANCH  11  16
TORSDOF 9
ENDMDL
MODEL 9
REMARK VINA RESULT:      -6.2      2.100      3.638
REMARK  Name = 38027112
REMARK  12 active torsions:
REMARK  status: ('A' for Active; 'I' for Inactive)
REMARK    1  A    between atoms: N_5  and  C_15
REMARK    2  A    between atoms: N_6  and  C_22
REMARK    3  A    between atoms: N_7  and  C_23
REMARK    4  A    between atoms: C_8  and  C_12
REMARK    5  A    between atoms: C_9  and  C_15
REMARK    6  A    between atoms: C_11  and  C_16
REMARK    7  A    between atoms: C_12  and  C_17
REMARK    8  A    between atoms: C_12  and  C_18
REMARK    9  A    between atoms: C_13  and  C_19
REMARK   10  A    between atoms: C_16  and  C_20
REMARK   11  A    between atoms: C_21  and  C_26
REMARK   12  A    between atoms: C_22  and  C_23
REMARK                            x       y       z     vdW  Elec       q    Type
REMARK                         _______ _______ _______ _____ _____    ______ ____
ROOT
ATOM      8  C   UNL     1      13.255   9.187  20.048  0.00  0.00    +0.000 C 
ATOM      9  C   UNL     1      12.271   8.140  19.468  0.00  0.00    +0.032 C 
ATOM     10  C   UNL     1      13.018  10.561  19.404  0.00  0.00    +0.012 C 
ATOM     11  C   UNL     1      13.189  10.525  17.872  0.00  0.00    +0.023 C 
ATOM     13  C   UNL     1      12.459   9.352  17.252  0.00  0.00    -0.073 C 
ATOM     14  C   UNL     1      12.044   8.301  17.983  0.00  0.00    -0.022 C 
ATOM     19  C   UNL     1      12.175   9.434  15.778  0.00  0.00    +0.039 C 
ENDROOT
BRANCH   8  12
ATOM     12  C   UNL     1      13.134   9.299  21.570  0.00  0.00    -0.013 C 
ATOM     17  C   UNL     1      11.807   9.948  21.951  0.00  0.00    +0.007 C 
ATOM     18  C   UNL     1      14.307  10.090  22.140  0.00  0.00    +0.007 C 
ENDBRANCH   8  12
BRANCH   9  15
ATOM     15  C   UNL     1      12.746   6.712  19.760  0.00  0.00    +0.112 C 
BRANCH  15   5
ATOM      3  O   UNL     1      15.055   6.851  18.060  0.00  0.00    -0.270 OA
ATOM      5  N   UNL     1      14.112   6.707  20.176  0.00  0.00    -0.311 N 
ATOM     21  C   UNL     1      15.179   6.778  19.280  0.00  0.00    +0.244 C 
ATOM     34  H   UNL     1      14.293   6.742  21.175  0.00  0.00    +0.149 HD
BRANCH  21  26
ATOM      1  F   UNL     1      20.330   6.620  21.510  0.00  0.00    -0.205 F 
ATOM     26  C   UNL     1      16.542   6.736  19.871  0.00  0.00    +0.037 A 
ATOM     29  C   UNL     1      16.867   7.576  20.935  0.00  0.00    +0.016 A 
ATOM     30  C   UNL     1      17.496   5.856  19.359  0.00  0.00    +0.016 A 
ATOM     31  C   UNL     1      18.147   7.537  21.489  0.00  0.00    +0.039 A 
ATOM     32  C   UNL     1      18.776   5.818  19.912  0.00  0.00    +0.039 A 
ATOM     33  C   UNL     1      19.101   6.657  20.977  0.00  0.00    +0.123 A 
ENDBRANCH  21  26
ENDBRANCH  15   5
ENDBRANCH   9  15
BRANCH  11  16
ATOM     16  C   UNL     1      14.671  10.517  17.483  0.00  0.00    +0.103 C 
BRANCH  16  20
ATOM      2  O   UNL     1      16.221  12.045  16.427  0.00  0.00    -0.276 OA
ATOM      6  N   UNL     1      13.942  12.492  16.349  0.00  0.00    -0.314 N 
ATOM     20  C   UNL     1      15.061  11.752  16.701  0.00  0.00    +0.214 C 
ATOM     35  H   UNL     1      13.021  12.158  16.617  0.00  0.00    +0.149 HD
BRANCH   6  22
ATOM     22  C   UNL     1      14.015  13.724  15.598  0.00  0.00    +0.119 C 
BRANCH  22  23
ATOM     23  C   UNL     1      13.699  13.494  14.127  0.00  0.00    +0.103 C 
BRANCH  23   7
ATOM      4  O   UNL     1      16.357  13.141  10.900  0.00  0.00    -0.377 OA
ATOM      7  N   UNL     1      14.931  13.448  13.344  0.00  0.00    -0.297 NA
ATOM     24  C   UNL     1      14.940  14.503  12.323  0.00  0.00    +0.112 C 
ATOM     25  C   UNL     1      15.096  12.133  12.710  0.00  0.00    +0.112 C 
ATOM     27  C   UNL     1      16.229  14.427  11.508  0.00  0.00    +0.175 C 
ATOM     28  C   UNL     1      16.382  12.111  11.888  0.00  0.00    +0.175 C 
ENDBRANCH  23   7
ENDBRANCH  22  23
ENDBRANCH   6  22
ENDBRANCH  16  20
ENDBRANCH  11  16
TORSDOF 9
ENDMDL
MODEL 10
REMARK VINA RESULT:      -6.1     29.714     32.314
REMARK  Name = 38027112
REMARK  12 active torsions:
REMARK  status: ('A' for Active; 'I' for Inactive)
REMARK    1  A    between atoms: N_5  and  C_15
REMARK    2  A    between atoms: N_6  and  C_22
REMARK    3  A    between atoms: N_7  and  C_23
REMARK    4  A    between atoms: C_8  and  C_12
REMARK    5  A    between atoms: C_9  and  C_15
REMARK    6  A    between atoms: C_11  and  C_16
REMARK    7  A    between atoms: C_12  and  C_17
REMARK    8  A    between atoms: C_12  and  C_18
REMARK    9  A    between atoms: C_13  and  C_19
REMARK   10  A    between atoms: C_16  and  C_20
REMARK   11  A    between atoms: C_21  and  C_26
REMARK   12  A    between atoms: C_22  and  C_23
REMARK                            x       y       z     vdW  Elec       q    Type
REMARK                         _______ _______ _______ _____ _____    ______ ____
ROOT
ATOM      8  C   UNL     1     -16.254   4.335  31.755  0.00  0.00    +0.000 C 
ATOM      9  C   UNL     1     -15.428   3.322  32.588  0.00  0.00    +0.032 C 
ATOM     10  C   UNL     1     -17.186   3.596  30.784  0.00  0.00    +0.012 C 
ATOM     11  C   UNL     1     -16.413   2.681  29.813  0.00  0.00    +0.023 C 
ATOM     13  C   UNL     1     -15.383   1.838  30.537  0.00  0.00    -0.073 C 
ATOM     14  C   UNL     1     -14.965   2.131  31.781  0.00  0.00    -0.022 C 
ATOM     19  C   UNL     1     -14.878   0.620  29.814  0.00  0.00    +0.039 C 
ENDROOT
BRANCH   8  12
ATOM     12  C   UNL     1     -17.071   5.273  32.647  0.00  0.00    -0.013 C 
ATOM     17  C   UNL     1     -18.051   4.473  33.501  0.00  0.00    +0.007 C 
ATOM     18  C   UNL     1     -17.808   6.305  31.801  0.00  0.00    +0.007 C 
ENDBRANCH   8  12
BRANCH   9  15
ATOM     15  C   UNL     1     -14.217   3.999  33.239  0.00  0.00    +0.112 C 
BRANCH  15   5
ATOM      3  O   UNL     1     -13.819   6.544  34.506  0.00  0.00    -0.270 OA
ATOM      5  N   UNL     1     -13.917   5.236  32.591  0.00  0.00    -0.311 N 
ATOM     21  C   UNL     1     -13.739   6.433  33.285  0.00  0.00    +0.244 C 
ATOM     34  H   UNL     1     -13.744   5.206  31.591  0.00  0.00    +0.149 HD
BRANCH  21  26
ATOM      1  F   UNL     1     -12.675  10.986  30.177  0.00  0.00    -0.205 F 
ATOM     26  C   UNL     1     -13.458   7.638  32.463  0.00  0.00    +0.037 A 
ATOM     29  C   UNL     1     -14.506   8.336  31.867  0.00  0.00    +0.016 A 
ATOM     30  C   UNL     1     -12.142   8.070  32.288  0.00  0.00    +0.016 A 
ATOM     31  C   UNL     1     -14.243   9.468  31.095  0.00  0.00    +0.039 A 
ATOM     32  C   UNL     1     -11.878   9.201  31.514  0.00  0.00    +0.039 A 
ATOM     33  C   UNL     1     -12.928   9.900  30.919  0.00  0.00    +0.123 A 
ENDBRANCH  21  26
ENDBRANCH  15   5
ENDBRANCH   9  15
BRANCH  11  16
ATOM     16  C   UNL     1     -15.765   3.493  28.688  0.00  0.00    +0.103 C 
BRANCH  16  20
ATOM      2  O   UNL     1     -17.130   2.269  27.111  0.00  0.00    -0.276 OA
ATOM      6  N   UNL     1     -16.146   4.271  26.459  0.00  0.00    -0.314 N 
ATOM     20  C   UNL     1     -16.432   3.250  27.353  0.00  0.00    +0.214 C 
ATOM     35  H   UNL     1     -15.563   5.046  26.761  0.00  0.00    +0.149 HD
BRANCH   6  22
ATOM     22  C   UNL     1     -16.650   4.298  25.105  0.00  0.00    +0.119 C 
BRANCH  22  23
ATOM     23  C   UNL     1     -15.865   3.355  24.206  0.00  0.00    +0.103 C 
BRANCH  23   7
ATOM      4  O   UNL     1     -15.051   6.378  21.412  0.00  0.00    -0.377 OA
ATOM      7  N   UNL     1     -15.468   4.037  22.976  0.00  0.00    -0.297 NA
ATOM     24  C   UNL     1     -14.328   4.929  23.219  0.00  0.00    +0.112 C 
ATOM     25  C   UNL     1     -16.594   4.800  22.418  0.00  0.00    +0.112 C 
ATOM     27  C   UNL     1     -13.940   5.641  21.925  0.00  0.00    +0.175 C 
ATOM     28  C   UNL     1     -16.154   5.512  21.141  0.00  0.00    +0.175 C 
ENDBRANCH  23   7
ENDBRANCH  22  23
ENDBRANCH   6  22
ENDBRANCH  16  20
ENDBRANCH  11  16
TORSDOF 9
ENDMDL
