MODEL 1
REMARK VINA RESULT:      -7.1      0.000      0.000
REMARK  Name = 75536728
REMARK  9 active torsions:
REMARK  status: ('A' for Active; 'I' for Inactive)
REMARK    1  A    between atoms: O_2  and  C_9
REMARK    2  A    between atoms: N_4  and  C_8
REMARK    3  A    between atoms: N_4  and  C_13
REMARK    4  A    between atoms: N_5  and  C_12
REMARK    5  A    between atoms: N_6  and  C_16
REMARK    6  A    between atoms: C_10  and  C_12
REMARK    7  A    between atoms: C_13  and  C_14
REMARK    8  A    between atoms: C_16  and  C_18
REMARK    9  A    between atoms: C_16  and  C_19
REMARK                            x       y       z     vdW  Elec       q    Type
REMARK                         _______ _______ _______ _____ _____    ______ ____
ROOT
ATOM      1  O   UNL     1      10.877   8.640  20.208  0.00  0.00    -0.371 OA
ATOM      8  C   UNL     1      12.361   6.864  19.677  0.00  0.00    +0.111 C 
ATOM      9  C   UNL     1      12.048   6.820  21.160  0.00  0.00    +0.164 C 
ATOM     10  C   UNL     1      10.752   7.618  21.210  0.00  0.00    +0.165 C 
ATOM     11  C   UNL     1      11.956   8.285  19.325  0.00  0.00    +0.181 C 
ENDROOT
BRANCH   9   2
ATOM      2  O   UNL     1      11.874   5.502  21.643  0.00  0.00    -0.388 OA
ATOM     24  H   UNL     1      10.947   5.397  21.921  0.00  0.00    +0.210 HD
ENDBRANCH   9   2
BRANCH   8   4
ATOM      4  N   UNL     1      13.752   6.577  19.365  0.00  0.00    -0.303 NA
ATOM     23  H   UNL     1      13.964   6.931  18.431  0.00  0.00    +0.123 HD
BRANCH   4  13
ATOM     13  C   UNL     1      14.648   7.210  20.324  0.00  0.00    +0.137 C 
BRANCH  13  14
ATOM      7  N   UNL     1      16.349   6.019  19.057  0.00  0.00    -0.259 NA
ATOM     14  C   UNL     1      16.063   6.720  20.178  0.00  0.00    +0.055 A 
ATOM     17  C   UNL     1      16.985   7.002  21.172  0.00  0.00    +0.024 A 
ATOM     20  C   UNL     1      18.285   6.536  21.006  0.00  0.00    +0.003 A 
ATOM     21  C   UNL     1      17.622   5.582  18.930  0.00  0.00    +0.111 A 
ATOM     22  C   UNL     1      18.617   5.811  19.866  0.00  0.00    +0.020 A 
ENDBRANCH  13  14
ENDBRANCH   4  13
ENDBRANCH   8   4
BRANCH  10  12
ATOM     12  C   UNL     1      10.492   8.257  22.563  0.00  0.00    +0.140 C 
BRANCH  12   5
ATOM      3  O   UNL     1      12.270  10.465  23.102  0.00  0.00    -0.253 OA
ATOM      5  N   UNL     1      10.199   9.655  22.433  0.00  0.00    -0.297 N 
ATOM      6  N   UNL     1      10.574  11.931  22.504  0.00  0.00    -0.297 N 
ATOM     15  C   UNL     1      11.120  10.668  22.715  0.00  0.00    +0.300 C 
ATOM     25  H   UNL     1       9.266   9.923  22.133  0.00  0.00    +0.150 HD
ATOM     26  H   UNL     1       9.640  11.993  22.112  0.00  0.00    +0.150 HD
BRANCH   6  16
ATOM     16  C   UNL     1      11.316  13.150  22.722  0.00  0.00    +0.068 C 
ATOM     18  C   UNL     1      11.073  14.134  21.585  0.00  0.00    +0.027 C 
ATOM     19  C   UNL     1      10.948  13.760  24.069  0.00  0.00    +0.027 C 
ENDBRANCH   6  16
ENDBRANCH  12   5
ENDBRANCH  10  12
TORSDOF 7
ENDMDL
MODEL 2
REMARK VINA RESULT:      -5.9     26.385     29.206
REMARK  Name = 75536728
REMARK  9 active torsions:
REMARK  status: ('A' for Active; 'I' for Inactive)
REMARK    1  A    between atoms: O_2  and  C_9
REMARK    2  A    between atoms: N_4  and  C_8
REMARK    3  A    between atoms: N_4  and  C_13
REMARK    4  A    between atoms: N_5  and  C_12
REMARK    5  A    between atoms: N_6  and  C_16
REMARK    6  A    between atoms: C_10  and  C_12
REMARK    7  A    between atoms: C_13  and  C_14
REMARK    8  A    between atoms: C_16  and  C_18
REMARK    9  A    between atoms: C_16  and  C_19
REMARK                            x       y       z     vdW  Elec       q    Type
REMARK                         _______ _______ _______ _____ _____    ______ ____
ROOT
ATOM      1  O   UNL     1     -17.965   5.251  23.998  0.00  0.00    -0.371 OA
ATOM      8  C   UNL     1     -16.237   4.263  22.702  0.00  0.00    +0.111 C 
ATOM      9  C   UNL     1     -15.883   4.142  24.172  0.00  0.00    +0.164 C 
ATOM     10  C   UNL     1     -17.252   4.310  24.818  0.00  0.00    +0.165 C 
ATOM     11  C   UNL     1     -17.287   5.361  22.733  0.00  0.00    +0.181 C 
ENDROOT
BRANCH   9   2
ATOM      2  O   UNL     1     -15.298   2.895  24.492  0.00  0.00    -0.388 OA
ATOM     24  H   UNL     1     -14.559   3.052  25.105  0.00  0.00    +0.210 HD
ENDBRANCH   9   2
BRANCH   8   4
ATOM      4  N   UNL     1     -15.103   4.588  21.852  0.00  0.00    -0.303 NA
ATOM     23  H   UNL     1     -15.437   4.775  20.906  0.00  0.00    +0.123 HD
BRANCH   4  13
ATOM     13  C   UNL     1     -14.397   5.765  22.345  0.00  0.00    +0.137 C 
BRANCH  13  14
ATOM      7  N   UNL     1     -14.431   7.120  20.324  0.00  0.00    -0.259 NA
ATOM     14  C   UNL     1     -13.668   6.484  21.242  0.00  0.00    +0.055 A 
ATOM     17  C   UNL     1     -12.283   6.462  21.217  0.00  0.00    +0.024 A 
ATOM     20  C   UNL     1     -11.640   7.138  20.186  0.00  0.00    +0.003 A 
ATOM     21  C   UNL     1     -13.771   7.765  19.337  0.00  0.00    +0.111 A 
ATOM     22  C   UNL     1     -12.391   7.804  19.223  0.00  0.00    +0.020 A 
ENDBRANCH  13  14
ENDBRANCH   4  13
ENDBRANCH   8   4
BRANCH  10  12
ATOM     12  C   UNL     1     -17.182   4.824  26.245  0.00  0.00    +0.140 C 
BRANCH  12   5
ATOM      3  O   UNL     1     -17.270   3.467  28.790  0.00  0.00    -0.253 OA
ATOM      5  N   UNL     1     -16.078   4.245  26.955  0.00  0.00    -0.297 N 
ATOM      6  N   UNL     1     -14.977   3.135  28.653  0.00  0.00    -0.297 N 
ATOM     15  C   UNL     1     -16.204   3.602  28.189  0.00  0.00    +0.300 C 
ATOM     25  H   UNL     1     -15.152   4.320  26.544  0.00  0.00    +0.150 HD
ATOM     26  H   UNL     1     -14.166   3.229  28.049  0.00  0.00    +0.150 HD
BRANCH   6  16
ATOM     16  C   UNL     1     -14.830   2.433  29.905  0.00  0.00    +0.068 C 
ATOM     18  C   UNL     1     -14.842   0.927  29.679  0.00  0.00    +0.027 C 
ATOM     19  C   UNL     1     -13.555   2.875  30.613  0.00  0.00    +0.027 C 
ENDBRANCH   6  16
ENDBRANCH  12   5
ENDBRANCH  10  12
TORSDOF 7
ENDMDL
MODEL 3
REMARK VINA RESULT:      -5.9     27.769     30.285
REMARK  Name = 75536728
REMARK  9 active torsions:
REMARK  status: ('A' for Active; 'I' for Inactive)
REMARK    1  A    between atoms: O_2  and  C_9
REMARK    2  A    between atoms: N_4  and  C_8
REMARK    3  A    between atoms: N_4  and  C_13
REMARK    4  A    between atoms: N_5  and  C_12
REMARK    5  A    between atoms: N_6  and  C_16
REMARK    6  A    between atoms: C_10  and  C_12
REMARK    7  A    between atoms: C_13  and  C_14
REMARK    8  A    between atoms: C_16  and  C_18
REMARK    9  A    between atoms: C_16  and  C_19
REMARK                            x       y       z     vdW  Elec       q    Type
REMARK                         _______ _______ _______ _____ _____    ______ ____
ROOT
ATOM      1  O   UNL     1     -16.245   0.712  28.120  0.00  0.00    -0.371 OA
ATOM      8  C   UNL     1     -15.502   2.315  29.707  0.00  0.00    +0.111 C 
ATOM      9  C   UNL     1     -15.645   2.987  28.355  0.00  0.00    +0.164 C 
ATOM     10  C   UNL     1     -16.589   2.024  27.647  0.00  0.00    +0.165 C 
ATOM     11  C   UNL     1     -15.449   0.849  29.311  0.00  0.00    +0.181 C 
ENDROOT
BRANCH   9   2
ATOM      2  O   UNL     1     -16.191   4.289  28.447  0.00  0.00    -0.388 OA
ATOM     24  H   UNL     1     -17.140   4.209  28.647  0.00  0.00    +0.210 HD
ENDBRANCH   9   2
BRANCH   8   4
ATOM      4  N   UNL     1     -14.329   2.743  30.451  0.00  0.00    -0.303 NA
ATOM     23  H   UNL     1     -14.211   3.750  30.337  0.00  0.00    +0.123 HD
BRANCH   4  13
ATOM     13  C   UNL     1     -14.467   2.442  31.871  0.00  0.00    +0.137 C 
BRANCH  13  14
ATOM      7  N   UNL     1     -14.500   3.515  34.054  0.00  0.00    -0.259 NA
ATOM     14  C   UNL     1     -14.376   3.683  32.718  0.00  0.00    +0.055 A 
ATOM     17  C   UNL     1     -14.175   4.909  32.107  0.00  0.00    +0.024 A 
ATOM     20  C   UNL     1     -14.094   6.036  32.918  0.00  0.00    +0.003 A 
ATOM     21  C   UNL     1     -14.416   4.632  34.811  0.00  0.00    +0.111 A 
ATOM     22  C   UNL     1     -14.216   5.902  34.298  0.00  0.00    +0.020 A 
ENDBRANCH  13  14
ENDBRANCH   4  13
ENDBRANCH   8   4
BRANCH  10  12
ATOM     12  C   UNL     1     -16.470   2.071  26.134  0.00  0.00    +0.140 C 
BRANCH  12   5
ATOM      3  O   UNL     1     -16.086   2.960  23.416  0.00  0.00    -0.253 OA
ATOM      5  N   UNL     1     -15.796   3.261  25.700  0.00  0.00    -0.297 N 
ATOM      6  N   UNL     1     -14.957   4.820  24.221  0.00  0.00    -0.297 N 
ATOM     15  C   UNL     1     -15.652   3.622  24.358  0.00  0.00    +0.300 C 
ATOM     25  H   UNL     1     -15.390   3.866  26.407  0.00  0.00    +0.150 HD
ATOM     26  H   UNL     1     -14.705   5.331  25.061  0.00  0.00    +0.150 HD
BRANCH   6  16
ATOM     16  C   UNL     1     -14.672   5.417  22.937  0.00  0.00    +0.068 C 
ATOM     18  C   UNL     1     -14.896   6.923  22.986  0.00  0.00    +0.027 C 
ATOM     19  C   UNL     1     -13.251   5.083  22.502  0.00  0.00    +0.027 C 
ENDBRANCH   6  16
ENDBRANCH  12   5
ENDBRANCH  10  12
TORSDOF 7
ENDMDL
MODEL 4
REMARK VINA RESULT:      -5.9     27.122     28.928
REMARK  Name = 75536728
REMARK  9 active torsions:
REMARK  status: ('A' for Active; 'I' for Inactive)
REMARK    1  A    between atoms: O_2  and  C_9
REMARK    2  A    between atoms: N_4  and  C_8
REMARK    3  A    between atoms: N_4  and  C_13
REMARK    4  A    between atoms: N_5  and  C_12
REMARK    5  A    between atoms: N_6  and  C_16
REMARK    6  A    between atoms: C_10  and  C_12
REMARK    7  A    between atoms: C_13  and  C_14
REMARK    8  A    between atoms: C_16  and  C_18
REMARK    9  A    between atoms: C_16  and  C_19
REMARK                            x       y       z     vdW  Elec       q    Type
REMARK                         _______ _______ _______ _____ _____    ______ ____
ROOT
ATOM      1  O   UNL     1     -11.974  -7.829  14.099  0.00  0.00    -0.371 OA
ATOM      8  C   UNL     1     -10.319  -8.194  15.763  0.00  0.00    +0.111 C 
ATOM      9  C   UNL     1     -10.730  -6.734  15.786  0.00  0.00    +0.164 C 
ATOM     10  C   UNL     1     -12.086  -6.800  15.096  0.00  0.00    +0.165 C 
ATOM     11  C   UNL     1     -10.811  -8.624  14.391  0.00  0.00    +0.181 C 
ENDROOT
BRANCH   9   2
ATOM      2  O   UNL     1     -10.831  -6.215  17.098  0.00  0.00    -0.388 OA
ATOM     24  H   UNL     1     -11.564  -5.576  17.119  0.00  0.00    +0.210 HD
ENDBRANCH   9   2
BRANCH   8   4
ATOM      4  N   UNL     1      -8.892  -8.402  15.944  0.00  0.00    -0.303 NA
ATOM     23  H   UNL     1      -8.413  -7.502  15.884  0.00  0.00    +0.123 HD
BRANCH   4  13
ATOM     13  C   UNL     1      -8.607  -9.003  17.241  0.00  0.00    +0.137 C 
BRANCH  13  14
ATOM      7  N   UNL     1      -6.464  -9.459  16.184  0.00  0.00    -0.259 NA
ATOM     14  C   UNL     1      -7.222  -9.589  17.296  0.00  0.00    +0.055 A 
ATOM     17  C   UNL     1      -6.797 -10.218  18.455  0.00  0.00    +0.024 A 
ATOM     20  C   UNL     1      -5.512 -10.747  18.474  0.00  0.00    +0.003 A 
ATOM     21  C   UNL     1      -5.221  -9.985  16.240  0.00  0.00    +0.111 A 
ATOM     22  C   UNL     1      -4.702 -10.633  17.348  0.00  0.00    +0.020 A 
ENDBRANCH  13  14
ENDBRANCH   4  13
ENDBRANCH   8   4
BRANCH  10  12
ATOM     12  C   UNL     1     -12.489  -5.492  14.439  0.00  0.00    +0.140 C 
BRANCH  12   5
ATOM      3  O   UNL     1     -12.280  -3.228  12.661  0.00  0.00    -0.253 OA
ATOM      5  N   UNL     1     -12.248  -5.522  13.025  0.00  0.00    -0.297 N 
ATOM      6  N   UNL     1     -11.922  -4.692  10.897  0.00  0.00    -0.297 N 
ATOM     15  C   UNL     1     -12.160  -4.375  12.231  0.00  0.00    +0.300 C 
ATOM     25  H   UNL     1     -12.151  -6.427  12.575  0.00  0.00    +0.150 HD
ATOM     26  H   UNL     1     -11.763  -5.664  10.652  0.00  0.00    +0.150 HD
BRANCH   6  16
ATOM     16  C   UNL     1     -11.788  -3.689   9.867  0.00  0.00    +0.068 C 
ATOM     18  C   UNL     1     -10.579  -3.984   8.987  0.00  0.00    +0.027 C 
ATOM     19  C   UNL     1     -13.065  -3.606   9.040  0.00  0.00    +0.027 C 
ENDBRANCH   6  16
ENDBRANCH  12   5
ENDBRANCH  10  12
TORSDOF 7
ENDMDL
MODEL 5
REMARK VINA RESULT:      -5.8     15.235     18.812
REMARK  Name = 75536728
REMARK  9 active torsions:
REMARK  status: ('A' for Active; 'I' for Inactive)
REMARK    1  A    between atoms: O_2  and  C_9
REMARK    2  A    between atoms: N_4  and  C_8
REMARK    3  A    between atoms: N_4  and  C_13
REMARK    4  A    between atoms: N_5  and  C_12
REMARK    5  A    between atoms: N_6  and  C_16
REMARK    6  A    between atoms: C_10  and  C_12
REMARK    7  A    between atoms: C_13  and  C_14
REMARK    8  A    between atoms: C_16  and  C_18
REMARK    9  A    between atoms: C_16  and  C_19
REMARK                            x       y       z     vdW  Elec       q    Type
REMARK                         _______ _______ _______ _____ _____    ______ ____
ROOT
ATOM      1  O   UNL     1       0.187   3.243  23.509  0.00  0.00    -0.371 OA
ATOM      8  C   UNL     1      -0.856   3.852  25.554  0.00  0.00    +0.111 C 
ATOM      9  C   UNL     1      -0.511   2.376  25.596  0.00  0.00    +0.164 C 
ATOM     10  C   UNL     1       0.566   2.296  24.521  0.00  0.00    +0.165 C 
ATOM     11  C   UNL     1      -0.799   4.133  24.062  0.00  0.00    +0.181 C 
ENDROOT
BRANCH   9   2
ATOM      2  O   UNL     1      -0.027   1.963  26.859  0.00  0.00    -0.388 OA
ATOM     24  H   UNL     1       0.944   2.012  26.846  0.00  0.00    +0.210 HD
ENDBRANCH   9   2
BRANCH   8   4
ATOM      4  N   UNL     1      -2.149   4.166  26.140  0.00  0.00    -0.303 NA
ATOM     23  H   UNL     1      -2.079   5.050  26.647  0.00  0.00    +0.123 HD
BRANCH   4  13
ATOM     13  C   UNL     1      -3.176   4.290  25.114  0.00  0.00    +0.137 C 
BRANCH  13  14
ATOM      7  N   UNL     1      -5.257   3.390  25.996  0.00  0.00    -0.259 NA
ATOM     14  C   UNL     1      -4.188   3.179  25.196  0.00  0.00    +0.055 A 
ATOM     17  C   UNL     1      -3.984   2.020  24.465  0.00  0.00    +0.024 A 
ATOM     20  C   UNL     1      -4.938   1.014  24.561  0.00  0.00    +0.003 A 
ATOM     21  C   UNL     1      -6.163   2.390  26.065  0.00  0.00    +0.111 A 
ATOM     22  C   UNL     1      -6.052   1.194  25.375  0.00  0.00    +0.020 A 
ENDBRANCH  13  14
ENDBRANCH   4  13
ENDBRANCH   8   4
BRANCH  10  12
ATOM     12  C   UNL     1       0.698   0.914  23.906  0.00  0.00    +0.140 C 
BRANCH  12   5
ATOM      3  O   UNL     1      -0.379  -1.321  25.381  0.00  0.00    -0.253 OA
ATOM      5  N   UNL     1      -0.585   0.297  23.727  0.00  0.00    -0.297 N 
ATOM      6  N   UNL     1      -2.312  -1.186  24.104  0.00  0.00    -0.297 N 
ATOM     15  C   UNL     1      -1.034  -0.787  24.486  0.00  0.00    +0.300 C 
ATOM     25  H   UNL     1      -1.193   0.660  22.999  0.00  0.00    +0.150 HD
ATOM     26  H   UNL     1      -2.801  -0.635  23.406  0.00  0.00    +0.150 HD
BRANCH   6  16
ATOM     16  C   UNL     1      -3.008  -2.285  24.730  0.00  0.00    +0.068 C 
ATOM     18  C   UNL     1      -3.435  -1.912  26.144  0.00  0.00    +0.027 C 
ATOM     19  C   UNL     1      -4.204  -2.705  23.884  0.00  0.00    +0.027 C 
ENDBRANCH   6  16
ENDBRANCH  12   5
ENDBRANCH  10  12
TORSDOF 7
ENDMDL
MODEL 6
REMARK VINA RESULT:      -5.8     32.742     34.471
REMARK  Name = 75536728
REMARK  9 active torsions:
REMARK  status: ('A' for Active; 'I' for Inactive)
REMARK    1  A    between atoms: O_2  and  C_9
REMARK    2  A    between atoms: N_4  and  C_8
REMARK    3  A    between atoms: N_4  and  C_13
REMARK    4  A    between atoms: N_5  and  C_12
REMARK    5  A    between atoms: N_6  and  C_16
REMARK    6  A    between atoms: C_10  and  C_12
REMARK    7  A    between atoms: C_13  and  C_14
REMARK    8  A    between atoms: C_16  and  C_18
REMARK    9  A    between atoms: C_16  and  C_19
REMARK                            x       y       z     vdW  Elec       q    Type
REMARK                         _______ _______ _______ _____ _____    ______ ____
ROOT
ATOM      1  O   UNL     1      -1.455 -15.790  -1.470  0.00  0.00    -0.371 OA
ATOM      8  C   UNL     1      -0.735 -14.302   0.235  0.00  0.00    +0.111 C 
ATOM      9  C   UNL     1      -1.362 -13.499  -0.889  0.00  0.00    +0.164 C 
ATOM     10  C   UNL     1      -2.202 -14.566  -1.578  0.00  0.00    +0.165 C 
ATOM     11  C   UNL     1      -0.443 -15.620  -0.462  0.00  0.00    +0.181 C 
ENDROOT
BRANCH   9   2
ATOM      2  O   UNL     1      -2.155 -12.427  -0.418  0.00  0.00    -0.388 OA
ATOM     24  H   UNL     1      -2.065 -11.684  -1.039  0.00  0.00    +0.210 HD
ENDBRANCH   9   2
BRANCH   8   4
ATOM      4  N   UNL     1       0.454 -13.685   0.801  0.00  0.00    -0.303 NA
ATOM     23  H   UNL     1       0.171 -12.964   1.467  0.00  0.00    +0.123 HD
BRANCH   4  13
ATOM     13  C   UNL     1       1.279 -14.668   1.492  0.00  0.00    +0.137 C 
BRANCH  13  14
ATOM      7  N   UNL     1       3.531 -15.588   1.518  0.00  0.00    -0.259 NA
ATOM     14  C   UNL     1       2.686 -14.694   0.957  0.00  0.00    +0.055 A 
ATOM     17  C   UNL     1       3.042 -13.824  -0.061  0.00  0.00    +0.024 A 
ATOM     20  C   UNL     1       4.348 -13.875  -0.533  0.00  0.00    +0.003 A 
ATOM     21  C   UNL     1       4.792 -15.609   1.033  0.00  0.00    +0.111 A 
ATOM     22  C   UNL     1       5.247 -14.782   0.020  0.00  0.00    +0.020 A 
ENDBRANCH  13  14
ENDBRANCH   4  13
ENDBRANCH   8   4
BRANCH  10  12
ATOM     12  C   UNL     1      -2.477 -14.262  -3.040  0.00  0.00    +0.140 C 
BRANCH  12   5
ATOM      3  O   UNL     1       0.069 -14.238  -4.398  0.00  0.00    -0.253 OA
ATOM      5  N   UNL     1      -1.743 -13.110  -3.480  0.00  0.00    -0.297 N 
ATOM      6  N   UNL     1      -0.020 -11.919  -4.448  0.00  0.00    -0.297 N 
ATOM     15  C   UNL     1      -0.510 -13.184  -4.134  0.00  0.00    +0.300 C 
ATOM     25  H   UNL     1      -2.134 -12.192  -3.293  0.00  0.00    +0.150 HD
ATOM     26  H   UNL     1      -0.606 -11.113  -4.257  0.00  0.00    +0.150 HD
BRANCH   6  16
ATOM     16  C   UNL     1       1.238 -11.714  -5.127  0.00  0.00    +0.068 C 
ATOM     18  C   UNL     1       1.054 -11.817  -6.636  0.00  0.00    +0.027 C 
ATOM     19  C   UNL     1       1.838 -10.370  -4.735  0.00  0.00    +0.027 C 
ENDBRANCH   6  16
ENDBRANCH  12   5
ENDBRANCH  10  12
TORSDOF 7
ENDMDL
MODEL 7
REMARK VINA RESULT:      -5.8     25.008     27.781
REMARK  Name = 75536728
REMARK  9 active torsions:
REMARK  status: ('A' for Active; 'I' for Inactive)
REMARK    1  A    between atoms: O_2  and  C_9
REMARK    2  A    between atoms: N_4  and  C_8
REMARK    3  A    between atoms: N_4  and  C_13
REMARK    4  A    between atoms: N_5  and  C_12
REMARK    5  A    between atoms: N_6  and  C_16
REMARK    6  A    between atoms: C_10  and  C_12
REMARK    7  A    between atoms: C_13  and  C_14
REMARK    8  A    between atoms: C_16  and  C_18
REMARK    9  A    between atoms: C_16  and  C_19
REMARK                            x       y       z     vdW  Elec       q    Type
REMARK                         _______ _______ _______ _____ _____    ______ ____
ROOT
ATOM      1  O   UNL     1     -15.750   5.988  21.561  0.00  0.00    -0.371 OA
ATOM      8  C   UNL     1     -13.390   5.784  21.392  0.00  0.00    +0.111 C 
ATOM      9  C   UNL     1     -13.815   5.448  22.809  0.00  0.00    +0.164 C 
ATOM     10  C   UNL     1     -15.286   5.113  22.603  0.00  0.00    +0.165 C 
ATOM     11  C   UNL     1     -14.607   6.538  20.883  0.00  0.00    +0.181 C 
ENDROOT
BRANCH   9   2
ATOM      2  O   UNL     1     -13.096   4.357  23.351  0.00  0.00    -0.388 OA
ATOM     24  H   UNL     1     -13.697   3.850  23.924  0.00  0.00    +0.210 HD
ENDBRANCH   9   2
BRANCH   8   4
ATOM      4  N   UNL     1     -12.167   6.566  21.319  0.00  0.00    -0.303 NA
ATOM     23  H   UNL     1     -11.543   6.146  20.629  0.00  0.00    +0.123 HD
BRANCH   4  13
ATOM     13  C   UNL     1     -12.446   7.943  20.927  0.00  0.00    +0.137 C 
BRANCH  13  14
ATOM      7  N   UNL     1     -10.990   9.576  19.864  0.00  0.00    -0.259 NA
ATOM     14  C   UNL     1     -11.602   8.375  19.759  0.00  0.00    +0.055 A 
ATOM     17  C   UNL     1     -11.492   7.543  18.656  0.00  0.00    +0.024 A 
ATOM     20  C   UNL     1     -10.704   7.971  17.594  0.00  0.00    +0.003 A 
ATOM     21  C   UNL     1     -10.233   9.959  18.812  0.00  0.00    +0.111 A 
ATOM     22  C   UNL     1     -10.059   9.202  17.666  0.00  0.00    +0.020 A 
ENDBRANCH  13  14
ENDBRANCH   4  13
ENDBRANCH   8   4
BRANCH  10  12
ATOM     12  C   UNL     1     -16.128   5.310  23.851  0.00  0.00    +0.140 C 
BRANCH  12   5
ATOM      3  O   UNL     1     -17.620   4.375  26.137  0.00  0.00    -0.253 OA
ATOM      5  N   UNL     1     -15.633   4.522  24.944  0.00  0.00    -0.297 N 
ATOM      6  N   UNL     1     -15.693   3.358  26.935  0.00  0.00    -0.297 N 
ATOM     15  C   UNL     1     -16.425   4.108  26.018  0.00  0.00    +0.300 C 
ATOM     25  H   UNL     1     -14.651   4.264  24.942  0.00  0.00    +0.150 HD
ATOM     26  H   UNL     1     -14.731   3.127  26.711  0.00  0.00    +0.150 HD
BRANCH   6  16
ATOM     16  C   UNL     1     -16.274   2.809  28.137  0.00  0.00    +0.068 C 
ATOM     18  C   UNL     1     -16.457   1.303  28.003  0.00  0.00    +0.027 C 
ATOM     19  C   UNL     1     -15.415   3.155  29.346  0.00  0.00    +0.027 C 
ENDBRANCH   6  16
ENDBRANCH  12   5
ENDBRANCH  10  12
TORSDOF 7
ENDMDL
MODEL 8
REMARK VINA RESULT:      -5.7     26.162     28.295
REMARK  Name = 75536728
REMARK  9 active torsions:
REMARK  status: ('A' for Active; 'I' for Inactive)
REMARK    1  A    between atoms: O_2  and  C_9
REMARK    2  A    between atoms: N_4  and  C_8
REMARK    3  A    between atoms: N_4  and  C_13
REMARK    4  A    between atoms: N_5  and  C_12
REMARK    5  A    between atoms: N_6  and  C_16
REMARK    6  A    between atoms: C_10  and  C_12
REMARK    7  A    between atoms: C_13  and  C_14
REMARK    8  A    between atoms: C_16  and  C_18
REMARK    9  A    between atoms: C_16  and  C_19
REMARK                            x       y       z     vdW  Elec       q    Type
REMARK                         _______ _______ _______ _____ _____    ______ ____
ROOT
ATOM      1  O   UNL     1      -4.188 -11.592  18.474  0.00  0.00    -0.371 OA
ATOM      8  C   UNL     1      -6.448 -10.924  18.182  0.00  0.00    +0.111 C 
ATOM      9  C   UNL     1      -5.633 -10.446  16.995  0.00  0.00    +0.164 C 
ATOM     10  C   UNL     1      -4.427 -11.373  17.074  0.00  0.00    +0.165 C 
ATOM     11  C   UNL     1      -5.359 -11.190  19.207  0.00  0.00    +0.181 C 
ENDROOT
BRANCH   9   2
ATOM      2  O   UNL     1      -6.324 -10.583  15.768  0.00  0.00    -0.388 OA
ATOM     24  H   UNL     1      -6.948 -11.324  15.849  0.00  0.00    +0.210 HD
ENDBRANCH   9   2
BRANCH   8   4
ATOM      4  N   UNL     1      -7.434  -9.958  18.640  0.00  0.00    -0.303 NA
ATOM     23  H   UNL     1      -7.224  -9.047  18.230  0.00  0.00    +0.123 HD
BRANCH   4  13
ATOM     13  C   UNL     1      -8.780 -10.355  18.248  0.00  0.00    +0.137 C 
BRANCH  13  14
ATOM      7  N   UNL     1      -9.364  -9.958  15.920  0.00  0.00    -0.259 NA
ATOM     14  C   UNL     1      -9.339  -9.458  17.176  0.00  0.00    +0.055 A 
ATOM     17  C   UNL     1      -9.792  -8.194  17.517  0.00  0.00    +0.024 A 
ATOM     20  C   UNL     1     -10.304  -7.391  16.504  0.00  0.00    +0.003 A 
ATOM     21  C   UNL     1      -9.868  -9.149  14.962  0.00  0.00    +0.111 A 
ATOM     22  C   UNL     1     -10.346  -7.870  15.199  0.00  0.00    +0.020 A 
ENDBRANCH  13  14
ENDBRANCH   4  13
ENDBRANCH   8   4
BRANCH  10  12
ATOM     12  C   UNL     1      -3.182 -10.794  16.425  0.00  0.00    +0.140 C 
BRANCH  12   5
ATOM      3  O   UNL     1      -1.825 -11.708  14.049  0.00  0.00    -0.253 OA
ATOM      5  N   UNL     1      -3.439 -10.389  15.073  0.00  0.00    -0.297 N 
ATOM      6  N   UNL     1      -3.185 -10.320  12.780  0.00  0.00    -0.297 N 
ATOM     15  C   UNL     1      -2.733 -10.881  13.972  0.00  0.00    +0.300 C 
ATOM     25  H   UNL     1      -4.163  -9.696  14.910  0.00  0.00    +0.150 HD
ATOM     26  H   UNL     1      -3.991  -9.704  12.813  0.00  0.00    +0.150 HD
BRANCH   6  16
ATOM     16  C   UNL     1      -2.624 -10.659  11.494  0.00  0.00    +0.068 C 
ATOM     18  C   UNL     1      -3.348 -11.856  10.893  0.00  0.00    +0.027 C 
ATOM     19  C   UNL     1      -2.677  -9.456  10.561  0.00  0.00    +0.027 C 
ENDBRANCH   6  16
ENDBRANCH  12   5
ENDBRANCH  10  12
TORSDOF 7
ENDMDL
MODEL 9
REMARK VINA RESULT:      -5.7     26.178     27.808
REMARK  Name = 75536728
REMARK  9 active torsions:
REMARK  status: ('A' for Active; 'I' for Inactive)
REMARK    1  A    between atoms: O_2  and  C_9
REMARK    2  A    between atoms: N_4  and  C_8
REMARK    3  A    between atoms: N_4  and  C_13
REMARK    4  A    between atoms: N_5  and  C_12
REMARK    5  A    between atoms: N_6  and  C_16
REMARK    6  A    between atoms: C_10  and  C_12
REMARK    7  A    between atoms: C_13  and  C_14
REMARK    8  A    between atoms: C_16  and  C_18
REMARK    9  A    between atoms: C_16  and  C_19
REMARK                            x       y       z     vdW  Elec       q    Type
REMARK                         _______ _______ _______ _____ _____    ______ ____
ROOT
ATOM      1  O   UNL     1      -5.705 -11.636  16.376  0.00  0.00    -0.371 OA
ATOM      8  C   UNL     1      -3.724 -11.279  15.114  0.00  0.00    +0.111 C 
ATOM      9  C   UNL     1      -3.496 -10.806  16.538  0.00  0.00    +0.164 C 
ATOM     10  C   UNL     1      -4.588 -11.567  17.278  0.00  0.00    +0.165 C 
ATOM     11  C   UNL     1      -5.241 -11.321  15.050  0.00  0.00    +0.181 C 
ENDROOT
BRANCH   9   2
ATOM      2  O   UNL     1      -2.207 -11.131  17.021  0.00  0.00    -0.388 OA
ATOM     24  H   UNL     1      -1.549 -10.800  16.385  0.00  0.00    +0.210 HD
ENDBRANCH   9   2
BRANCH   8   4
ATOM      4  N   UNL     1      -3.139 -10.407  14.109  0.00  0.00    -0.303 NA
ATOM     23  H   UNL     1      -2.171 -10.207  14.364  0.00  0.00    +0.123 HD
BRANCH   4  13
ATOM     13  C   UNL     1      -3.160 -11.033  12.793  0.00  0.00    +0.137 C 
BRANCH  13  14
ATOM      7  N   UNL     1      -5.000  -9.650  12.004  0.00  0.00    -0.259 NA
ATOM     14  C   UNL     1      -3.760 -10.128  11.751  0.00  0.00    +0.055 A 
ATOM     17  C   UNL     1      -3.033  -9.831  10.610  0.00  0.00    +0.024 A 
ATOM     20  C   UNL     1      -3.615  -8.990   9.667  0.00  0.00    +0.003 A 
ATOM     21  C   UNL     1      -5.533  -8.836  11.066  0.00  0.00    +0.111 A 
ATOM     22  C   UNL     1      -4.889  -8.479   9.892  0.00  0.00    +0.020 A 
ENDBRANCH  13  14
ENDBRANCH   4  13
ENDBRANCH   8   4
BRANCH  10  12
ATOM     12  C   UNL     1      -5.015 -10.896  18.572  0.00  0.00    +0.140 C 
BRANCH  12   5
ATOM      3  O   UNL     1      -7.069 -12.024  20.256  0.00  0.00    -0.253 OA
ATOM      5  N   UNL     1      -6.414 -10.580  18.558  0.00  0.00    -0.297 N 
ATOM      6  N   UNL     1      -8.633 -10.684  19.185  0.00  0.00    -0.297 N 
ATOM     15  C   UNL     1      -7.349 -11.174  19.411  0.00  0.00    +0.300 C 
ATOM     25  H   UNL     1      -6.745  -9.898  17.882  0.00  0.00    +0.150 HD
ATOM     26  H   UNL     1      -8.751  -9.929  18.517  0.00  0.00    +0.150 HD
BRANCH   6  16
ATOM     16  C   UNL     1      -9.783 -11.133  19.932  0.00  0.00    +0.068 C 
ATOM     18  C   UNL     1     -10.833 -10.032  20.011  0.00  0.00    +0.027 C 
ATOM     19  C   UNL     1     -10.358 -12.400  19.311  0.00  0.00    +0.027 C 
ENDBRANCH   6  16
ENDBRANCH  12   5
ENDBRANCH  10  12
TORSDOF 7
ENDMDL
MODEL 10
REMARK VINA RESULT:      -5.7     29.703     30.841
REMARK  Name = 75536728
REMARK  9 active torsions:
REMARK  status: ('A' for Active; 'I' for Inactive)
REMARK    1  A    between atoms: O_2  and  C_9
REMARK    2  A    between atoms: N_4  and  C_8
REMARK    3  A    between atoms: N_4  and  C_13
REMARK    4  A    between atoms: N_5  and  C_12
REMARK    5  A    between atoms: N_6  and  C_16
REMARK    6  A    between atoms: C_10  and  C_12
REMARK    7  A    between atoms: C_13  and  C_14
REMARK    8  A    between atoms: C_16  and  C_18
REMARK    9  A    between atoms: C_16  and  C_19
REMARK                            x       y       z     vdW  Elec       q    Type
REMARK                         _______ _______ _______ _____ _____    ______ ____
ROOT
ATOM      1  O   UNL     1     -14.543   1.182  32.881  0.00  0.00    -0.371 OA
ATOM      8  C   UNL     1     -14.170   0.519  30.631  0.00  0.00    +0.111 C 
ATOM      9  C   UNL     1     -13.949   2.015  30.749  0.00  0.00    +0.164 C 
ATOM     10  C   UNL     1     -13.702   2.158  32.245  0.00  0.00    +0.165 C 
ATOM     11  C   UNL     1     -14.974   0.233  31.888  0.00  0.00    +0.181 C 
ENDROOT
BRANCH   9   2
ATOM      2  O   UNL     1     -12.845   2.466  29.987  0.00  0.00    -0.388 OA
ATOM     24  H   UNL     1     -13.045   3.360  29.659  0.00  0.00    +0.210 HD
ENDBRANCH   9   2
BRANCH   8   4
ATOM      4  N   UNL     1     -14.863   0.126  29.414  0.00  0.00    -0.303 NA
ATOM     23  H   UNL     1     -15.030  -0.881  29.436  0.00  0.00    +0.123 HD
BRANCH   4  13
ATOM     13  C   UNL     1     -16.141   0.815  29.290  0.00  0.00    +0.137 C 
BRANCH  13  14
ATOM      7  N   UNL     1     -16.672   0.657  26.921  0.00  0.00    -0.259 NA
ATOM     14  C   UNL     1     -16.301   1.463  27.941  0.00  0.00    +0.055 A 
ATOM     17  C   UNL     1     -16.067   2.822  27.810  0.00  0.00    +0.024 A 
ATOM     20  C   UNL     1     -16.225   3.391  26.551  0.00  0.00    +0.003 A 
ATOM     21  C   UNL     1     -16.815   1.244  25.713  0.00  0.00    +0.111 A 
ATOM     22  C   UNL     1     -16.606   2.593  25.476  0.00  0.00    +0.020 A 
ENDBRANCH  13  14
ENDBRANCH   4  13
ENDBRANCH   8   4
BRANCH  10  12
ATOM     12  C   UNL     1     -14.029   3.542  32.778  0.00  0.00    +0.140 C 
BRANCH  12   5
ATOM      3  O   UNL     1     -16.531   4.975  32.687  0.00  0.00    -0.253 OA
ATOM      5  N   UNL     1     -14.491   4.408  31.732  0.00  0.00    -0.297 N 
ATOM      6  N   UNL     1     -15.919   5.842  30.623  0.00  0.00    -0.297 N 
ATOM     15  C   UNL     1     -15.723   5.068  31.764  0.00  0.00    +0.300 C 
ATOM     25  H   UNL     1     -13.898   4.536  30.918  0.00  0.00    +0.150 HD
ATOM     26  H   UNL     1     -15.161   5.913  29.952  0.00  0.00    +0.150 HD
BRANCH   6  16
ATOM     16  C   UNL     1     -17.112   6.626  30.406  0.00  0.00    +0.068 C 
ATOM     18  C   UNL     1     -16.754   8.086  30.159  0.00  0.00    +0.027 C 
ATOM     19  C   UNL     1     -17.919   6.052  29.249  0.00  0.00    +0.027 C 
ENDBRANCH   6  16
ENDBRANCH  12   5
ENDBRANCH  10  12
TORSDOF 7
ENDMDL
