REMARK  Name = 75368506
REMARK  2 active torsions:
REMARK  status: ('A' for Active; 'I' for Inactive)
REMARK    1  A    between atoms: N_4  and  C_10
REMARK    2  A    between atoms: N_7  and  C_20
REMARK                            x       y       z     vdW  Elec       q    Type
REMARK                         _______ _______ _______ _____ _____    ______ ____
ROOT
ATOM      2  O   UNL     1      -3.451  -2.607  -0.097  0.00  0.00    -0.252 OA
ATOM      3  O   UNL     1       3.441  -2.103  -0.185  0.00  0.00    -0.252 OA
ATOM      4  N   UNL     1      -3.112  -0.274  -0.126  0.00  0.00    -0.280 N 
ATOM      5  N   UNL     1      -1.321  -1.626  -0.246  0.00  0.00    -0.278 N 
ATOM      6  N   UNL     1       1.369  -1.210   0.313  0.00  0.00    -0.282 N 
ATOM      7  N   UNL     1       3.150   0.194  -0.332  0.00  0.00    -0.269 N 
ATOM      8  C   UNL     1      -0.781  -0.286  -0.409  0.00  0.00    +0.112 C 
ATOM      9  C   UNL     1      -1.970   0.623  -0.105  0.00  0.00    +0.133 C 
ATOM     11  C   UNL     1       0.422  -0.092   0.507  0.00  0.00    +0.133 C 
ATOM     12  C   UNL     1      -0.435  -2.776  -0.295  0.00  0.00    +0.128 C 
ATOM     13  C   UNL     1      -2.720  -1.627  -0.153  0.00  0.00    +0.305 C 
ATOM     14  C   UNL     1       0.790  -2.535   0.587  0.00  0.00    +0.128 C 
ATOM     19  C   UNL     1       2.722  -1.107  -0.071  0.00  0.00    +0.307 C 
ATOM     26  H   UNL     1       2.464   0.865  -0.661  0.00  0.00    +0.156 HD
ENDROOT
BRANCH   4  10
ATOM      1  O   UNL     1      -6.288   2.430   0.171  0.00  0.00    -0.380 OA
ATOM     10  C   UNL     1      -4.464   0.209   0.010  0.00  0.00    +0.082 C 
ATOM     15  C   UNL     1      -4.625   1.049   1.278  0.00  0.00    +0.050 C 
ATOM     16  C   UNL     1      -4.882   1.018  -1.218  0.00  0.00    +0.050 C 
ATOM     17  C   UNL     1      -6.018   1.661   1.343  0.00  0.00    +0.161 C 
ATOM     18  C   UNL     1      -6.260   1.634  -1.014  0.00  0.00    +0.161 C 
ENDBRANCH   4  10
BRANCH   7  20
ATOM     20  C   UNL     1       4.455   0.720  -0.161  0.00  0.00    +0.035 A 
ATOM     21  C   UNL     1       4.715   2.055  -0.472  0.00  0.00    +0.023 A 
ATOM     22  C   UNL     1       5.479  -0.097   0.318  0.00  0.00    +0.023 A 
ATOM     23  C   UNL     1       5.999   2.572  -0.304  0.00  0.00    +0.002 A 
ATOM     24  C   UNL     1       6.763   0.420   0.485  0.00  0.00    +0.002 A 
ATOM     25  C   UNL     1       7.023   1.755   0.174  0.00  0.00    +0.000 A 
ENDBRANCH   7  20
TORSDOF 2
