MODEL 1
REMARK VINA RESULT:      -6.8      0.000      0.000
REMARK  Name = 75537034
REMARK  4 active torsions:
REMARK  status: ('A' for Active; 'I' for Inactive)
REMARK    1  A    between atoms: N_5  and  C_15
REMARK    2  A    between atoms: N_7  and  C_22
REMARK    3  A    between atoms: C_15  and  C_17
REMARK    4  A    between atoms: C_16  and  C_18
REMARK                            x       y       z     vdW  Elec       q    Type
REMARK                         _______ _______ _______ _____ _____    ______ ____
ROOT
ATOM      2  O   UNL     1     -17.229   1.906  22.717  0.00  0.00    -0.252 OA
ATOM      3  O   UNL     1     -16.520   0.147  29.441  0.00  0.00    -0.270 OA
ATOM      4  N   UNL     1     -16.642   2.070  24.986  0.00  0.00    -0.278 N 
ATOM      5  N   UNL     1     -16.541   3.926  23.723  0.00  0.00    -0.276 N 
ATOM      6  N   UNL     1     -16.872   1.700  27.731  0.00  0.00    -0.294 N 
ATOM      9  C   UNL     1     -16.080   3.081  25.866  0.00  0.00    +0.112 C 
ATOM     10  C   UNL     1     -16.219   4.374  25.066  0.00  0.00    +0.134 C 
ATOM     11  C   UNL     1     -16.808   3.077  27.206  0.00  0.00    +0.132 C 
ATOM     12  C   UNL     1     -16.826   0.712  25.471  0.00  0.00    +0.128 C 
ATOM     13  C   UNL     1     -17.518   0.733  26.833  0.00  0.00    +0.127 C 
ATOM     14  C   UNL     1     -16.849   2.551  23.686  0.00  0.00    +0.306 C 
ATOM     16  C   UNL     1     -16.426   1.286  28.987  0.00  0.00    +0.247 C 
ENDROOT
BRANCH  16  18
ATOM      1  F   UNL     1     -13.944   5.075  32.277  0.00  0.00    -0.205 F 
ATOM     18  C   UNL     1     -15.775   2.279  29.851  0.00  0.00    +0.037 A 
ATOM     20  C   UNL     1     -16.543   3.230  30.524  0.00  0.00    +0.016 A 
ATOM     21  C   UNL     1     -14.387   2.273  29.998  0.00  0.00    +0.016 A 
ATOM     24  C   UNL     1     -15.925   4.174  31.344  0.00  0.00    +0.039 A 
ATOM     25  C   UNL     1     -13.769   3.218  30.818  0.00  0.00    +0.039 A 
ATOM     26  C   UNL     1     -14.538   4.167  31.490  0.00  0.00    +0.123 A 
ENDBRANCH  16  18
BRANCH   5  15
ATOM     15  C   UNL     1     -16.653   4.846  22.614  0.00  0.00    +0.183 C 
BRANCH  15  17
ATOM      7  N   UNL     1     -15.135   6.772  22.063  0.00  0.00    -0.336 N 
ATOM      8  N   UNL     1     -14.217   4.750  22.012  0.00  0.00    -0.239 NA
ATOM     17  C   UNL     1     -15.322   5.427  22.229  0.00  0.00    +0.127 A 
ATOM     19  C   UNL     1     -13.826   6.963  21.718  0.00  0.00    +0.106 A 
ATOM     22  C   UNL     1     -16.125   7.811  22.218  0.00  0.00    +0.150 C 
ATOM     23  C   UNL     1     -13.281   5.702  21.693  0.00  0.00    +0.130 A 
ENDBRANCH  15  17
ENDBRANCH   5  15
TORSDOF 3
ENDMDL
MODEL 2
REMARK VINA RESULT:      -6.5     17.586     19.539
REMARK  Name = 75537034
REMARK  4 active torsions:
REMARK  status: ('A' for Active; 'I' for Inactive)
REMARK    1  A    between atoms: N_5  and  C_15
REMARK    2  A    between atoms: N_7  and  C_22
REMARK    3  A    between atoms: C_15  and  C_17
REMARK    4  A    between atoms: C_16  and  C_18
REMARK                            x       y       z     vdW  Elec       q    Type
REMARK                         _______ _______ _______ _____ _____    ______ ____
ROOT
ATOM      2  O   UNL     1      -4.871 -11.600  18.980  0.00  0.00    -0.252 OA
ATOM      3  O   UNL     1     -11.559  -9.608  18.663  0.00  0.00    -0.270 OA
ATOM      4  N   UNL     1      -6.798 -10.465  18.264  0.00  0.00    -0.278 N 
ATOM      5  N   UNL     1      -4.957 -10.351  16.981  0.00  0.00    -0.276 N 
ATOM      6  N   UNL     1      -9.491 -10.088  17.688  0.00  0.00    -0.294 N 
ATOM      9  C   UNL     1      -7.151  -9.542  17.198  0.00  0.00    +0.112 C 
ATOM     10  C   UNL     1      -5.976  -9.643  16.228  0.00  0.00    +0.134 C 
ATOM     11  C   UNL     1      -8.504  -9.914  16.604  0.00  0.00    +0.132 C 
ATOM     12  C   UNL     1      -7.761 -10.759  19.312  0.00  0.00    +0.128 C 
ATOM     13  C   UNL     1      -9.120 -11.088  18.697  0.00  0.00    +0.127 C 
ATOM     14  C   UNL     1      -5.467 -10.892  18.179  0.00  0.00    +0.306 C 
ATOM     16  C   UNL     1     -10.719  -9.430  17.783  0.00  0.00    +0.247 C 
ENDROOT
BRANCH  16  18
ATOM      1  F   UNL     1     -11.975  -5.610  13.889  0.00  0.00    -0.205 F 
ATOM     18  C   UNL     1     -11.048  -8.428  16.761  0.00  0.00    +0.037 A 
ATOM     20  C   UNL     1     -10.623  -7.108  16.916  0.00  0.00    +0.016 A 
ATOM     21  C   UNL     1     -11.785  -8.796  15.635  0.00  0.00    +0.016 A 
ATOM     24  C   UNL     1     -10.936  -6.156  15.946  0.00  0.00    +0.039 A 
ATOM     25  C   UNL     1     -12.099  -7.844  14.665  0.00  0.00    +0.039 A 
ATOM     26  C   UNL     1     -11.674  -6.525  14.821  0.00  0.00    +0.123 A 
ENDBRANCH  16  18
BRANCH   5  15
ATOM     15  C   UNL     1      -3.627 -10.566  16.456  0.00  0.00    +0.183 C 
BRANCH  15  17
ATOM      7  N   UNL     1      -2.905 -11.550  14.260  0.00  0.00    -0.336 N 
ATOM      8  N   UNL     1      -4.204 -12.828  15.531  0.00  0.00    -0.239 NA
ATOM     17  C   UNL     1      -3.597 -11.666  15.434  0.00  0.00    +0.127 A 
ATOM     19  C   UNL     1      -3.083 -12.713  13.564  0.00  0.00    +0.106 A 
ATOM     22  C   UNL     1      -2.125 -10.417  13.820  0.00  0.00    +0.150 C 
ATOM     23  C   UNL     1      -3.887 -13.485  14.368  0.00  0.00    +0.130 A 
ENDBRANCH  15  17
ENDBRANCH   5  15
TORSDOF 3
ENDMDL
MODEL 3
REMARK VINA RESULT:      -6.3     20.292     22.749
REMARK  Name = 75537034
REMARK  4 active torsions:
REMARK  status: ('A' for Active; 'I' for Inactive)
REMARK    1  A    between atoms: N_5  and  C_15
REMARK    2  A    between atoms: N_7  and  C_22
REMARK    3  A    between atoms: C_15  and  C_17
REMARK    4  A    between atoms: C_16  and  C_18
REMARK                            x       y       z     vdW  Elec       q    Type
REMARK                         _______ _______ _______ _____ _____    ______ ____
ROOT
ATOM      2  O   UNL     1      -5.434 -13.026  18.221  0.00  0.00    -0.252 OA
ATOM      3  O   UNL     1      -2.695 -13.673  11.827  0.00  0.00    -0.270 OA
ATOM      4  N   UNL     1      -4.873 -12.497  16.002  0.00  0.00    -0.278 N 
ATOM      5  N   UNL     1      -5.712 -10.870  17.305  0.00  0.00    -0.276 N 
ATOM      6  N   UNL     1      -3.328 -12.418  13.693  0.00  0.00    -0.294 N 
ATOM      9  C   UNL     1      -5.022 -11.356  15.114  0.00  0.00    +0.112 C 
ATOM     10  C   UNL     1      -5.385 -10.210  16.054  0.00  0.00    +0.134 C 
ATOM     11  C   UNL     1      -3.744 -11.144  14.310  0.00  0.00    +0.132 C 
ATOM     12  C   UNL     1      -4.373 -13.758  15.481  0.00  0.00    +0.128 C 
ATOM     13  C   UNL     1      -3.118 -13.518  14.644  0.00  0.00    +0.127 C 
ATOM     14  C   UNL     1      -5.353 -12.233  17.292  0.00  0.00    +0.306 C 
ATOM     16  C   UNL     1      -3.084 -12.623  12.334  0.00  0.00    +0.247 C 
ENDROOT
BRANCH  16  18
ATOM      1  F   UNL     1      -3.973  -8.355   8.823  0.00  0.00    -0.205 F 
ATOM     18  C   UNL     1      -3.317 -11.503  11.414  0.00  0.00    +0.037 A 
ATOM     20  C   UNL     1      -4.443 -11.501  10.588  0.00  0.00    +0.016 A 
ATOM     21  C   UNL     1      -2.415 -10.440  11.364  0.00  0.00    +0.016 A 
ATOM     24  C   UNL     1      -4.664 -10.437   9.713  0.00  0.00    +0.039 A 
ATOM     25  C   UNL     1      -2.636  -9.377  10.489  0.00  0.00    +0.039 A 
ATOM     26  C   UNL     1      -3.760  -9.376   9.664  0.00  0.00    +0.123 A 
ENDBRANCH  16  18
BRANCH   5  15
ATOM     15  C   UNL     1      -6.218 -10.141  18.447  0.00  0.00    +0.183 C 
BRANCH  15  17
ATOM      7  N   UNL     1      -8.702  -9.965  18.111  0.00  0.00    -0.336 N 
ATOM      8  N   UNL     1      -8.020 -11.378  19.683  0.00  0.00    -0.239 NA
ATOM     17  C   UNL     1      -7.637 -10.515  18.769  0.00  0.00    +0.127 A 
ATOM     19  C   UNL     1      -9.837 -10.513  18.640  0.00  0.00    +0.106 A 
ATOM     22  C   UNL     1      -8.656  -8.985  17.052  0.00  0.00    +0.150 C 
ATOM     23  C   UNL     1      -9.390 -11.382  19.607  0.00  0.00    +0.130 A 
ENDBRANCH  15  17
ENDBRANCH   5  15
TORSDOF 3
ENDMDL
MODEL 4
REMARK VINA RESULT:      -6.3     20.326     22.895
REMARK  Name = 75537034
REMARK  4 active torsions:
REMARK  status: ('A' for Active; 'I' for Inactive)
REMARK    1  A    between atoms: N_5  and  C_15
REMARK    2  A    between atoms: N_7  and  C_22
REMARK    3  A    between atoms: C_15  and  C_17
REMARK    4  A    between atoms: C_16  and  C_18
REMARK                            x       y       z     vdW  Elec       q    Type
REMARK                         _______ _______ _______ _____ _____    ______ ____
ROOT
ATOM      2  O   UNL     1      -4.476 -12.241  17.797  0.00  0.00    -0.252 OA
ATOM      3  O   UNL     1      -1.079 -10.532  11.937  0.00  0.00    -0.270 OA
ATOM      4  N   UNL     1      -4.112 -11.712  15.538  0.00  0.00    -0.278 N 
ATOM      5  N   UNL     1      -6.226 -11.738  16.299  0.00  0.00    -0.276 N 
ATOM      6  N   UNL     1      -2.939 -10.464  13.349  0.00  0.00    -0.294 N 
ATOM      9  C   UNL     1      -4.929 -11.483  14.358  0.00  0.00    +0.112 C 
ATOM     10  C   UNL     1      -6.334 -11.290  14.922  0.00  0.00    +0.134 C 
ATOM     11  C   UNL     1      -4.389 -10.297  13.566  0.00  0.00    +0.132 C 
ATOM     12  C   UNL     1      -2.666 -11.789  15.412  0.00  0.00    +0.128 C 
ATOM     13  C   UNL     1      -2.151 -10.616  14.579  0.00  0.00    +0.127 C 
ATOM     14  C   UNL     1      -4.885 -11.938  16.684  0.00  0.00    +0.306 C 
ATOM     16  C   UNL     1      -2.292 -10.437  12.112  0.00  0.00    +0.247 C 
ENDROOT
BRANCH  16  18
ATOM      1  F   UNL     1      -5.430  -9.899   7.508  0.00  0.00    -0.205 F 
ATOM     18  C   UNL     1      -3.116 -10.296  10.905  0.00  0.00    +0.037 A 
ATOM     20  C   UNL     1      -3.705 -11.421  10.326  0.00  0.00    +0.016 A 
ATOM     21  C   UNL     1      -3.310  -9.037  10.336  0.00  0.00    +0.016 A 
ATOM     24  C   UNL     1      -4.487 -11.287   9.179  0.00  0.00    +0.039 A 
ATOM     25  C   UNL     1      -4.091  -8.903   9.188  0.00  0.00    +0.039 A 
ATOM     26  C   UNL     1      -4.679 -10.027   8.611  0.00  0.00    +0.123 A 
ENDBRANCH  16  18
BRANCH   5  15
ATOM     15  C   UNL     1      -7.377 -11.820  17.170  0.00  0.00    +0.183 C 
BRANCH  15  17
ATOM      7  N   UNL     1      -9.506 -10.618  16.591  0.00  0.00    -0.336 N 
ATOM      8  N   UNL     1      -7.884  -9.379  17.466  0.00  0.00    -0.239 NA
ATOM     17  C   UNL     1      -8.233 -10.588  17.089  0.00  0.00    +0.127 A 
ATOM     19  C   UNL     1     -10.001  -9.345  16.657  0.00  0.00    +0.106 A 
ATOM     22  C   UNL     1     -10.214 -11.771  16.086  0.00  0.00    +0.150 C 
ATOM     23  C   UNL     1      -8.982  -8.599  17.200  0.00  0.00    +0.130 A 
ENDBRANCH  15  17
ENDBRANCH   5  15
TORSDOF 3
ENDMDL
MODEL 5
REMARK VINA RESULT:      -6.2     20.337     22.056
REMARK  Name = 75537034
REMARK  4 active torsions:
REMARK  status: ('A' for Active; 'I' for Inactive)
REMARK    1  A    between atoms: N_5  and  C_15
REMARK    2  A    between atoms: N_7  and  C_22
REMARK    3  A    between atoms: C_15  and  C_17
REMARK    4  A    between atoms: C_16  and  C_18
REMARK                            x       y       z     vdW  Elec       q    Type
REMARK                         _______ _______ _______ _____ _____    ______ ____
ROOT
ATOM      2  O   UNL     1      -3.736 -10.508   9.738  0.00  0.00    -0.252 OA
ATOM      3  O   UNL     1      -1.788 -10.686  16.445  0.00  0.00    -0.270 OA
ATOM      4  N   UNL     1      -3.907 -10.537  12.081  0.00  0.00    -0.278 N 
ATOM      5  N   UNL     1      -5.774 -10.860  10.872  0.00  0.00    -0.276 N 
ATOM      6  N   UNL     1      -3.247 -11.208  14.696  0.00  0.00    -0.294 N 
ATOM      9  C   UNL     1      -4.975 -10.600  13.065  0.00  0.00    +0.112 C 
ATOM     10  C   UNL     1      -6.192 -11.031  12.252  0.00  0.00    +0.134 C 
ATOM     11  C   UNL     1      -4.593 -11.548  14.197  0.00  0.00    +0.132 C 
ATOM     12  C   UNL     1      -2.540 -10.303  12.513  0.00  0.00    +0.128 C 
ATOM     13  C   UNL     1      -2.192 -11.233  13.674  0.00  0.00    +0.127 C 
ATOM     14  C   UNL     1      -4.389 -10.618  10.768  0.00  0.00    +0.306 C 
ATOM     16  C   UNL     1      -2.918 -10.926  16.023  0.00  0.00    +0.247 C 
ENDROOT
BRANCH  16  18
ATOM      1  F   UNL     1      -7.051 -10.817  19.796  0.00  0.00    -0.205 F 
ATOM     18  C   UNL     1      -4.002 -10.898  17.013  0.00  0.00    +0.037 A 
ATOM     20  C   UNL     1      -5.106 -10.067  16.815  0.00  0.00    +0.016 A 
ATOM     21  C   UNL     1      -3.930 -11.702  18.150  0.00  0.00    +0.016 A 
ATOM     24  C   UNL     1      -6.136 -10.040  17.755  0.00  0.00    +0.039 A 
ATOM     25  C   UNL     1      -4.960 -11.674  19.091  0.00  0.00    +0.039 A 
ATOM     26  C   UNL     1      -6.062 -10.844  18.893  0.00  0.00    +0.123 A 
ENDBRANCH  16  18
BRANCH   5  15
ATOM     15  C   UNL     1      -6.682 -11.061   9.765  0.00  0.00    +0.183 C 
BRANCH  15  17
ATOM      7  N   UNL     1      -6.934  -9.213   8.082  0.00  0.00    -0.336 N 
ATOM      8  N   UNL     1      -8.160  -9.038   9.925  0.00  0.00    -0.239 NA
ATOM     17  C   UNL     1      -7.276  -9.769   9.283  0.00  0.00    +0.127 A 
ATOM     19  C   UNL     1      -7.645  -8.053   7.949  0.00  0.00    +0.106 A 
ATOM     22  C   UNL     1      -5.996  -9.739   7.118  0.00  0.00    +0.150 C 
ATOM     23  C   UNL     1      -8.394  -7.967   9.099  0.00  0.00    +0.130 A 
ENDBRANCH  15  17
ENDBRANCH   5  15
TORSDOF 3
ENDMDL
MODEL 6
REMARK VINA RESULT:      -6.2     17.858     19.676
REMARK  Name = 75537034
REMARK  4 active torsions:
REMARK  status: ('A' for Active; 'I' for Inactive)
REMARK    1  A    between atoms: N_5  and  C_15
REMARK    2  A    between atoms: N_7  and  C_22
REMARK    3  A    between atoms: C_15  and  C_17
REMARK    4  A    between atoms: C_16  and  C_18
REMARK                            x       y       z     vdW  Elec       q    Type
REMARK                         _______ _______ _______ _____ _____    ______ ____
ROOT
ATOM      2  O   UNL     1     -10.452 -10.578  19.251  0.00  0.00    -0.252 OA
ATOM      3  O   UNL     1      -3.574 -11.764  18.947  0.00  0.00    -0.270 OA
ATOM      4  N   UNL     1      -8.319 -10.941  18.338  0.00  0.00    -0.278 N 
ATOM      5  N   UNL     1      -9.956 -10.231  16.972  0.00  0.00    -0.276 N 
ATOM      6  N   UNL     1      -5.549 -10.805  18.148  0.00  0.00    -0.294 N 
ATOM      9  C   UNL     1      -7.719 -10.946  17.014  0.00  0.00    +0.112 C 
ATOM     10  C   UNL     1      -8.767 -10.263  16.139  0.00  0.00    +0.134 C 
ATOM     11  C   UNL     1      -6.362 -10.253  17.047  0.00  0.00    +0.132 C 
ATOM     12  C   UNL     1      -7.541 -11.379  19.485  0.00  0.00    +0.128 C 
ATOM     13  C   UNL     1      -6.170 -10.705  19.476  0.00  0.00    +0.127 C 
ATOM     14  C   UNL     1      -9.674 -10.586  18.307  0.00  0.00    +0.306 C 
ATOM     16  C   UNL     1      -4.268 -11.345  18.022  0.00  0.00    +0.247 C 
ENDROOT
BRANCH  16  18
ATOM      1  F   UNL     1      -2.053 -11.698  12.894  0.00  0.00    -0.205 F 
ATOM     18  C   UNL     1      -3.687 -11.438  16.677  0.00  0.00    +0.037 A 
ATOM     20  C   UNL     1      -2.692 -10.542  16.283  0.00  0.00    +0.016 A 
ATOM     21  C   UNL     1      -4.128 -12.423  15.793  0.00  0.00    +0.016 A 
ATOM     24  C   UNL     1      -2.140 -10.630  15.005  0.00  0.00    +0.039 A 
ATOM     25  C   UNL     1      -3.576 -12.510  14.515  0.00  0.00    +0.039 A 
ATOM     26  C   UNL     1      -2.583 -11.615  14.122  0.00  0.00    +0.123 A 
ENDBRANCH  16  18
BRANCH   5  15
ATOM     15  C   UNL     1     -11.226  -9.752  16.476  0.00  0.00    +0.183 C 
BRANCH  15  17
ATOM      7  N   UNL     1     -11.520  -7.763  14.968  0.00  0.00    -0.336 N 
ATOM      8  N   UNL     1     -10.880  -7.332  17.051  0.00  0.00    -0.239 NA
ATOM     17  C   UNL     1     -11.200  -8.277  16.195  0.00  0.00    +0.127 A 
ATOM     19  C   UNL     1     -11.397  -6.404  15.049  0.00  0.00    +0.106 A 
ATOM     22  C   UNL     1     -11.919  -8.504  13.795  0.00  0.00    +0.150 C 
ATOM     23  C   UNL     1     -11.000  -6.163  16.343  0.00  0.00    +0.130 A 
ENDBRANCH  15  17
ENDBRANCH   5  15
TORSDOF 3
ENDMDL
MODEL 7
REMARK VINA RESULT:      -6.0     33.538     37.716
REMARK  Name = 75537034
REMARK  4 active torsions:
REMARK  status: ('A' for Active; 'I' for Inactive)
REMARK    1  A    between atoms: N_5  and  C_15
REMARK    2  A    between atoms: N_7  and  C_22
REMARK    3  A    between atoms: C_15  and  C_17
REMARK    4  A    between atoms: C_16  and  C_18
REMARK                            x       y       z     vdW  Elec       q    Type
REMARK                         _______ _______ _______ _____ _____    ______ ____
ROOT
ATOM      2  O   UNL     1      11.579   9.368   7.097  0.00  0.00    -0.252 OA
ATOM      3  O   UNL     1      17.833  11.375   4.718  0.00  0.00    -0.270 OA
ATOM      4  N   UNL     1      13.858   9.266   6.536  0.00  0.00    -0.278 N 
ATOM      5  N   UNL     1      12.803   7.352   7.060  0.00  0.00    -0.276 N 
ATOM      6  N   UNL     1      16.169   9.776   5.078  0.00  0.00    -0.294 N 
ATOM      9  C   UNL     1      14.904   8.257   6.532  0.00  0.00    +0.112 C 
ATOM     10  C   UNL     1      14.142   6.943   6.676  0.00  0.00    +0.134 C 
ATOM     11  C   UNL     1      15.744   8.374   5.265  0.00  0.00    +0.132 C 
ATOM     12  C   UNL     1      14.191  10.654   6.262  0.00  0.00    +0.128 C 
ATOM     13  C   UNL     1      15.067  10.745   5.013  0.00  0.00    +0.127 C 
ATOM     14  C   UNL     1      12.617   8.743   6.923  0.00  0.00    +0.306 C 
ATOM     16  C   UNL     1      17.485  10.213   4.917  0.00  0.00    +0.247 C 
ENDROOT
BRANCH  16  18
ATOM      1  F   UNL     1      21.578   6.408   5.236  0.00  0.00    -0.205 F 
ATOM     18  C   UNL     1      18.559   9.215   5.001  0.00  0.00    +0.037 A 
ATOM     20  C   UNL     1      18.928   8.490   3.867  0.00  0.00    +0.016 A 
ATOM     21  C   UNL     1      19.212   8.992   6.214  0.00  0.00    +0.016 A 
ATOM     24  C   UNL     1      19.948   7.542   3.946  0.00  0.00    +0.039 A 
ATOM     25  C   UNL     1      20.231   8.043   6.293  0.00  0.00    +0.039 A 
ATOM     26  C   UNL     1      20.599   7.319   5.160  0.00  0.00    +0.123 A 
ENDBRANCH  16  18
BRANCH   5  15
ATOM     15  C   UNL     1      11.777   6.393   7.403  0.00  0.00    +0.183 C 
BRANCH  15  17
ATOM      7  N   UNL     1       9.455   6.616   6.471  0.00  0.00    -0.336 N 
ATOM      8  N   UNL     1      10.982   5.750   5.110  0.00  0.00    -0.239 NA
ATOM     17  C   UNL     1      10.760   6.241   6.309  0.00  0.00    +0.127 A 
ATOM     19  C   UNL     1       8.803   6.347   5.299  0.00  0.00    +0.106 A 
ATOM     22  C   UNL     1       8.857   7.191   7.652  0.00  0.00    +0.150 C 
ATOM     23  C   UNL     1       9.767   5.813   4.476  0.00  0.00    +0.130 A 
ENDBRANCH  15  17
ENDBRANCH   5  15
TORSDOF 3
ENDMDL
MODEL 8
REMARK VINA RESULT:      -6.0     31.797     35.797
REMARK  Name = 75537034
REMARK  4 active torsions:
REMARK  status: ('A' for Active; 'I' for Inactive)
REMARK    1  A    between atoms: N_5  and  C_15
REMARK    2  A    between atoms: N_7  and  C_22
REMARK    3  A    between atoms: C_15  and  C_17
REMARK    4  A    between atoms: C_16  and  C_18
REMARK                            x       y       z     vdW  Elec       q    Type
REMARK                         _______ _______ _______ _____ _____    ______ ____
ROOT
ATOM      2  O   UNL     1      11.095   5.656  -0.586  0.00  0.00    -0.252 OA
ATOM      3  O   UNL     1       8.693   8.346   5.397  0.00  0.00    -0.270 OA
ATOM      4  N   UNL     1      10.506   5.801   1.683  0.00  0.00    -0.278 N 
ATOM      5  N   UNL     1      11.756   4.057   1.016  0.00  0.00    -0.276 N 
ATOM      6  N   UNL     1      10.143   6.984   4.172  0.00  0.00    -0.294 N 
ATOM      9  C   UNL     1      10.631   4.966   2.867  0.00  0.00    +0.112 C 
ATOM     10  C   UNL     1      11.652   3.908   2.457  0.00  0.00    +0.134 C 
ATOM     11  C   UNL     1      11.034   5.812   4.069  0.00  0.00    +0.132 C 
ATOM     12  C   UNL     1       9.722   7.023   1.742  0.00  0.00    +0.128 C 
ATOM     13  C   UNL     1      10.112   7.836   2.975  0.00  0.00    +0.127 C 
ATOM     14  C   UNL     1      11.113   5.225   0.560  0.00  0.00    +0.306 C 
ATOM     16  C   UNL     1       9.401   7.346   5.298  0.00  0.00    +0.247 C 
ENDROOT
BRANCH  16  18
ATOM      1  F   UNL     1       9.580   3.976   9.763  0.00  0.00    -0.205 F 
ATOM     18  C   UNL     1       9.449   6.462   6.470  0.00  0.00    +0.037 A 
ATOM     20  C   UNL     1       9.766   5.112   6.313  0.00  0.00    +0.016 A 
ATOM     21  C   UNL     1       9.177   6.971   7.739  0.00  0.00    +0.016 A 
ATOM     24  C   UNL     1       9.810   4.272   7.426  0.00  0.00    +0.039 A 
ATOM     25  C   UNL     1       9.221   6.131   8.852  0.00  0.00    +0.039 A 
ATOM     26  C   UNL     1       9.538   4.783   8.695  0.00  0.00    +0.123 A 
ENDBRANCH  16  18
BRANCH   5  15
ATOM     15  C   UNL     1      12.552   3.160   0.209  0.00  0.00    +0.183 C 
BRANCH  15  17
ATOM      7  N   UNL     1      14.376   4.068  -1.262  0.00  0.00    -0.336 N 
ATOM      8  N   UNL     1      14.865   3.857   0.894  0.00  0.00    -0.239 NA
ATOM     17  C   UNL     1      13.938   3.692  -0.023  0.00  0.00    +0.127 A 
ATOM     19  C   UNL     1      15.666   4.500  -1.127  0.00  0.00    +0.106 A 
ATOM     22  C   UNL     1      13.629   4.023  -2.497  0.00  0.00    +0.150 C 
ATOM     23  C   UNL     1      15.945   4.361   0.212  0.00  0.00    +0.130 A 
ENDBRANCH  15  17
ENDBRANCH   5  15
TORSDOF 3
ENDMDL
MODEL 9
REMARK VINA RESULT:      -5.9     15.779     17.118
REMARK  Name = 75537034
REMARK  4 active torsions:
REMARK  status: ('A' for Active; 'I' for Inactive)
REMARK    1  A    between atoms: N_5  and  C_15
REMARK    2  A    between atoms: N_7  and  C_22
REMARK    3  A    between atoms: C_15  and  C_17
REMARK    4  A    between atoms: C_16  and  C_18
REMARK                            x       y       z     vdW  Elec       q    Type
REMARK                         _______ _______ _______ _____ _____    ______ ____
ROOT
ATOM      2  O   UNL     1     -13.940  -7.380  16.039  0.00  0.00    -0.252 OA
ATOM      3  O   UNL     1      -9.573 -11.644  19.438  0.00  0.00    -0.270 OA
ATOM      4  N   UNL     1     -11.944  -8.461  16.644  0.00  0.00    -0.278 N 
ATOM      5  N   UNL     1     -11.819  -6.678  15.283  0.00  0.00    -0.276 N 
ATOM      6  N   UNL     1     -10.077  -9.655  18.321  0.00  0.00    -0.294 N 
ATOM      9  C   UNL     1     -10.539  -8.376  16.280  0.00  0.00    +0.112 C 
ATOM     10  C   UNL     1     -10.438  -7.047  15.538  0.00  0.00    +0.134 C 
ATOM     11  C   UNL     1      -9.665  -8.482  17.525  0.00  0.00    +0.132 C 
ATOM     12  C   UNL     1     -12.402  -9.536  17.508  0.00  0.00    +0.128 C 
ATOM     13  C   UNL     1     -11.489  -9.653  18.727  0.00  0.00    +0.127 C 
ATOM     14  C   UNL     1     -12.722  -7.495  15.993  0.00  0.00    +0.306 C 
ATOM     16  C   UNL     1      -9.239 -10.691  18.737  0.00  0.00    +0.247 C 
ENDROOT
BRANCH  16  18
ATOM      1  F   UNL     1      -3.895 -10.582  17.075  0.00  0.00    -0.205 F 
ATOM     18  C   UNL     1      -7.837 -10.663  18.301  0.00  0.00    +0.037 A 
ATOM     20  C   UNL     1      -6.814 -10.556  19.245  0.00  0.00    +0.016 A 
ATOM     21  C   UNL     1      -7.527 -10.744  16.943  0.00  0.00    +0.016 A 
ATOM     24  C   UNL     1      -5.483 -10.529  18.830  0.00  0.00    +0.039 A 
ATOM     25  C   UNL     1      -6.195 -10.716  16.529  0.00  0.00    +0.039 A 
ATOM     26  C   UNL     1      -5.174 -10.609  17.472  0.00  0.00    +0.123 A 
ENDBRANCH  16  18
BRANCH   5  15
ATOM     15  C   UNL     1     -12.169  -5.516  14.497  0.00  0.00    +0.183 C 
BRANCH  15  17
ATOM      7  N   UNL     1     -12.344  -4.884  12.071  0.00  0.00    -0.336 N 
ATOM      8  N   UNL     1     -12.444  -7.054  12.531  0.00  0.00    -0.239 NA
ATOM     17  C   UNL     1     -12.320  -5.849  13.040  0.00  0.00    +0.127 A 
ATOM     19  C   UNL     1     -12.492  -5.515  10.868  0.00  0.00    +0.106 A 
ATOM     22  C   UNL     1     -12.234  -3.457  12.265  0.00  0.00    +0.150 C 
ATOM     23  C   UNL     1     -12.551  -6.853  11.177  0.00  0.00    +0.130 A 
ENDBRANCH  15  17
ENDBRANCH   5  15
TORSDOF 3
ENDMDL
MODEL 10
REMARK VINA RESULT:      -5.8     21.074     22.785
REMARK  Name = 75537034
REMARK  4 active torsions:
REMARK  status: ('A' for Active; 'I' for Inactive)
REMARK    1  A    between atoms: N_5  and  C_15
REMARK    2  A    between atoms: N_7  and  C_22
REMARK    3  A    between atoms: C_15  and  C_17
REMARK    4  A    between atoms: C_16  and  C_18
REMARK                            x       y       z     vdW  Elec       q    Type
REMARK                         _______ _______ _______ _____ _____    ______ ____
ROOT
ATOM      2  O   UNL     1      -4.124  -8.843   8.855  0.00  0.00    -0.252 OA
ATOM      3  O   UNL     1      -1.698 -12.104  14.536  0.00  0.00    -0.270 OA
ATOM      4  N   UNL     1      -4.041  -9.670  11.051  0.00  0.00    -0.278 N 
ATOM      5  N   UNL     1      -6.002  -8.888  10.281  0.00  0.00    -0.276 N 
ATOM      6  N   UNL     1      -3.422 -11.432  13.110  0.00  0.00    -0.294 N 
ATOM      9  C   UNL     1      -4.935  -9.732  12.196  0.00  0.00    +0.112 C 
ATOM     10  C   UNL     1      -6.303  -9.404  11.604  0.00  0.00    +0.134 C 
ATOM     11  C   UNL     1      -4.839 -11.097  12.867  0.00  0.00    +0.132 C 
ATOM     12  C   UNL     1      -2.654 -10.080  11.195  0.00  0.00    +0.128 C 
ATOM     13  C   UNL     1      -2.579 -11.429  11.908  0.00  0.00    +0.127 C 
ATOM     14  C   UNL     1      -4.653  -9.099   9.928  0.00  0.00    +0.306 C 
ATOM     16  C   UNL     1      -2.869 -11.783  14.343  0.00  0.00    +0.247 C 
ENDROOT
BRANCH  16  18
ATOM      1  F   UNL     1      -6.199 -11.702  18.841  0.00  0.00    -0.205 F 
ATOM     18  C   UNL     1      -3.742 -11.761  15.523  0.00  0.00    +0.037 A 
ATOM     20  C   UNL     1      -4.459 -12.904  15.882  0.00  0.00    +0.016 A 
ATOM     21  C   UNL     1      -3.855 -10.600  16.287  0.00  0.00    +0.016 A 
ATOM     24  C   UNL     1      -5.289 -12.884  17.003  0.00  0.00    +0.039 A 
ATOM     25  C   UNL     1      -4.685 -10.579  17.408  0.00  0.00    +0.039 A 
ATOM     26  C   UNL     1      -5.401 -11.721  17.765  0.00  0.00    +0.123 A 
ENDBRANCH  16  18
BRANCH   5  15
ATOM     15  C   UNL     1      -7.028  -8.355   9.414  0.00  0.00    +0.183 C 
BRANCH  15  17
ATOM      7  N   UNL     1      -7.934  -8.981   7.155  0.00  0.00    -0.336 N 
ATOM      8  N   UNL     1      -7.473 -10.663   8.530  0.00  0.00    -0.239 NA
ATOM     17  C   UNL     1      -7.472  -9.356   8.386  0.00  0.00    +0.127 A 
ATOM     19  C   UNL     1      -8.251 -10.121   6.471  0.00  0.00    +0.106 A 
ATOM     22  C   UNL     1      -8.070  -7.634   6.653  0.00  0.00    +0.150 C 
ATOM     23  C   UNL     1      -7.958 -11.145   7.340  0.00  0.00    +0.130 A 
ENDBRANCH  15  17
ENDBRANCH   5  15
TORSDOF 3
ENDMDL
