MODEL 1
REMARK VINA RESULT:      -5.8      0.000      0.000
REMARK  Name = 71693772
REMARK  5 active torsions:
REMARK  status: ('A' for Active; 'I' for Inactive)
REMARK    1  A    between atoms: O_1  and  C_9
REMARK    2  A    between atoms: O_2  and  C_11
REMARK    3  A    between atoms: N_5  and  C_7
REMARK    4  A    between atoms: C_8  and  C_12
REMARK    5  A    between atoms: C_13  and  C_14
REMARK                            x       y       z     vdW  Elec       q    Type
REMARK                         _______ _______ _______ _____ _____    ______ ____
ROOT
ATOM      7  C   UNL     1      11.366   6.264   6.002  0.00  0.00    +0.111 C 
ATOM      8  C   UNL     1      10.086   6.342   5.139  0.00  0.00    +0.046 C 
ATOM      9  C   UNL     1      10.829   6.092   7.421  0.00  0.00    +0.164 C 
ATOM     10  C   UNL     1       8.977   5.641   5.964  0.00  0.00    +0.044 C 
ATOM     11  C   UNL     1       9.658   5.134   7.234  0.00  0.00    +0.145 C 
ENDROOT
BRANCH   8  12
ATOM      6  N   UNL     1      11.000   3.956   2.335  0.00  0.00    -0.263 NA
ATOM     12  C   UNL     1      10.275   5.781   3.745  0.00  0.00    -0.024 A 
ATOM     17  C   UNL     1       9.925   6.520   2.621  0.00  0.00    +0.007 A 
ATOM     18  C   UNL     1      10.804   4.515   3.550  0.00  0.00    +0.114 A 
ATOM     21  C   UNL     1      10.111   5.979   1.354  0.00  0.00    +0.020 A 
ATOM     22  C   UNL     1      10.647   4.704   1.266  0.00  0.00    +0.111 A 
ENDBRANCH   8  12
BRANCH   7   5
ATOM      4  O   UNL     1      14.097   6.640   6.915  0.00  0.00    -0.276 OA
ATOM      5  N   UNL     1      12.178   7.448   5.873  0.00  0.00    -0.309 N 
ATOM     14  C   UNL     1      13.479   7.534   6.344  0.00  0.00    +0.217 C 
ATOM     23  H   UNL     1      11.791   8.230   5.353  0.00  0.00    +0.149 HD
BRANCH  14  13
ATOM      3  O   UNL     1      15.766   8.845   3.696  0.00  0.00    -0.380 OA
ATOM     13  C   UNL     1      14.104   8.870   6.057  0.00  0.00    +0.079 C 
ATOM     15  C   UNL     1      13.625   9.394   4.704  0.00  0.00    +0.041 C 
ATOM     16  C   UNL     1      15.629   8.786   6.124  0.00  0.00    +0.041 C 
ATOM     19  C   UNL     1      14.352   8.728   3.542  0.00  0.00    +0.160 C 
ATOM     20  C   UNL     1      16.232   8.173   4.864  0.00  0.00    +0.160 C 
ENDBRANCH  14  13
ENDBRANCH   7   5
BRANCH   9   1
ATOM      1  O   UNL     1      11.796   5.551   8.299  0.00  0.00    -0.387 OA
ATOM     24  H   UNL     1      11.320   5.075   9.001  0.00  0.00    +0.210 HD
ENDBRANCH   9   1
BRANCH  11   2
ATOM      2  O   UNL     1      10.117   3.805   7.005  0.00  0.00    -0.389 OA
ATOM     25  H   UNL     1       9.678   3.229   7.652  0.00  0.00    +0.210 HD
ENDBRANCH  11   2
TORSDOF 5
ENDMDL
MODEL 2
REMARK VINA RESULT:      -5.7     28.714     31.374
REMARK  Name = 71693772
REMARK  5 active torsions:
REMARK  status: ('A' for Active; 'I' for Inactive)
REMARK    1  A    between atoms: O_1  and  C_9
REMARK    2  A    between atoms: O_2  and  C_11
REMARK    3  A    between atoms: N_5  and  C_7
REMARK    4  A    between atoms: C_8  and  C_12
REMARK    5  A    between atoms: C_13  and  C_14
REMARK                            x       y       z     vdW  Elec       q    Type
REMARK                         _______ _______ _______ _____ _____    ______ ____
ROOT
ATOM      7  C   UNL     1     -14.923   5.454  22.152  0.00  0.00    +0.111 C 
ATOM      8  C   UNL     1     -16.456   5.652  22.151  0.00  0.00    +0.046 C 
ATOM      9  C   UNL     1     -14.608   5.132  23.612  0.00  0.00    +0.164 C 
ATOM     10  C   UNL     1     -16.983   4.881  23.388  0.00  0.00    +0.044 C 
ATOM     11  C   UNL     1     -15.759   4.222  24.023  0.00  0.00    +0.145 C 
ENDROOT
BRANCH   8  12
ATOM      6  N   UNL     1     -18.596   3.769  19.647  0.00  0.00    -0.263 NA
ATOM     12  C   UNL     1     -17.104   5.248  20.843  0.00  0.00    -0.024 A 
ATOM     17  C   UNL     1     -16.831   5.937  19.665  0.00  0.00    +0.007 A 
ATOM     18  C   UNL     1     -17.986   4.181  20.780  0.00  0.00    +0.114 A 
ATOM     21  C   UNL     1     -17.440   5.543  18.480  0.00  0.00    +0.020 A 
ATOM     22  C   UNL     1     -18.307   4.463  18.523  0.00  0.00    +0.111 A 
ENDBRANCH   8  12
BRANCH   7   5
ATOM      4  O   UNL     1     -12.132   5.663  21.379  0.00  0.00    -0.276 OA
ATOM      5  N   UNL     1     -14.226   6.631  21.698  0.00  0.00    -0.309 N 
ATOM     14  C   UNL     1     -12.883   6.634  21.349  0.00  0.00    +0.217 C 
ATOM     23  H   UNL     1     -14.768   7.479  21.568  0.00  0.00    +0.149 HD
BRANCH  14  13
ATOM      3  O   UNL     1     -12.402   8.239  18.011  0.00  0.00    -0.380 OA
ATOM     13  C   UNL     1     -12.415   7.984  20.887  0.00  0.00    +0.079 C 
ATOM     15  C   UNL     1     -13.529   8.690  20.114  0.00  0.00    +0.041 C 
ATOM     16  C   UNL     1     -11.138   7.865  20.056  0.00  0.00    +0.041 C 
ATOM     19  C   UNL     1     -13.655   8.168  18.687  0.00  0.00    +0.160 C 
ATOM     20  C   UNL     1     -11.416   7.412  18.626  0.00  0.00    +0.160 C 
ENDBRANCH  14  13
ENDBRANCH   7   5
BRANCH   9   1
ATOM      1  O   UNL     1     -13.362   4.478  23.761  0.00  0.00    -0.387 OA
ATOM     24  H   UNL     1     -13.509   3.690  24.311  0.00  0.00    +0.210 HD
ENDBRANCH   9   1
BRANCH  11   2
ATOM      2  O   UNL     1     -15.604   2.920  23.467  0.00  0.00    -0.389 OA
ATOM     25  H   UNL     1     -16.484   2.614  23.190  0.00  0.00    +0.210 HD
ENDBRANCH  11   2
TORSDOF 5
ENDMDL
MODEL 3
REMARK VINA RESULT:      -5.7     23.341     25.834
REMARK  Name = 71693772
REMARK  5 active torsions:
REMARK  status: ('A' for Active; 'I' for Inactive)
REMARK    1  A    between atoms: O_1  and  C_9
REMARK    2  A    between atoms: O_2  and  C_11
REMARK    3  A    between atoms: N_5  and  C_7
REMARK    4  A    between atoms: C_8  and  C_12
REMARK    5  A    between atoms: C_13  and  C_14
REMARK                            x       y       z     vdW  Elec       q    Type
REMARK                         _______ _______ _______ _____ _____    ______ ____
ROOT
ATOM      7  C   UNL     1      -3.670 -11.272  13.578  0.00  0.00    +0.111 C 
ATOM      8  C   UNL     1      -3.136 -10.578  14.852  0.00  0.00    +0.046 C 
ATOM      9  C   UNL     1      -2.414 -11.862  12.941  0.00  0.00    +0.164 C 
ATOM     10  C   UNL     1      -1.794 -11.281  15.185  0.00  0.00    +0.044 C 
ATOM     11  C   UNL     1      -1.629 -12.383  14.140  0.00  0.00    +0.145 C 
ENDROOT
BRANCH   8  12
ATOM      6  N   UNL     1      -6.287  -9.878  16.845  0.00  0.00    -0.263 NA
ATOM     12  C   UNL     1      -4.136 -10.575  15.989  0.00  0.00    -0.024 A 
ATOM     17  C   UNL     1      -3.863 -11.228  17.186  0.00  0.00    +0.007 A 
ATOM     18  C   UNL     1      -5.352  -9.920  15.870  0.00  0.00    +0.114 A 
ATOM     21  C   UNL     1      -4.801 -11.207  18.212  0.00  0.00    +0.020 A 
ATOM     22  C   UNL     1      -5.987 -10.525  17.994  0.00  0.00    +0.111 A 
ENDBRANCH   8  12
BRANCH   7   5
ATOM      4  O   UNL     1      -5.651 -11.883  11.545  0.00  0.00    -0.276 OA
ATOM      5  N   UNL     1      -4.336 -10.345  12.698  0.00  0.00    -0.309 N 
ATOM     14  C   UNL     1      -5.273 -10.732  11.752  0.00  0.00    +0.217 C 
ATOM     23  H   UNL     1      -4.151  -9.355  12.828  0.00  0.00    +0.149 HD
BRANCH  14  13
ATOM      3  O   UNL     1      -4.763  -9.374   8.310  0.00  0.00    -0.380 OA
ATOM     13  C   UNL     1      -5.829  -9.566  10.986  0.00  0.00    +0.079 C 
ATOM     15  C   UNL     1      -6.589 -10.060   9.756  0.00  0.00    +0.041 C 
ATOM     16  C   UNL     1      -4.723  -8.582  10.610  0.00  0.00    +0.041 C 
ATOM     19  C   UNL     1      -5.650 -10.447   8.619  0.00  0.00    +0.160 C 
ATOM     20  C   UNL     1      -3.911  -9.053   9.407  0.00  0.00    +0.160 C 
ENDBRANCH  14  13
ENDBRANCH   7   5
BRANCH   9   1
ATOM      1  O   UNL     1      -2.711 -12.905  12.033  0.00  0.00    -0.387 OA
ATOM     24  H   UNL     1      -2.984 -12.495  11.195  0.00  0.00    +0.210 HD
ENDBRANCH   9   1
BRANCH  11   2
ATOM      2  O   UNL     1      -2.209 -13.581  14.647  0.00  0.00    -0.389 OA
ATOM     25  H   UNL     1      -2.712 -13.991  13.923  0.00  0.00    +0.210 HD
ENDBRANCH  11   2
TORSDOF 5
ENDMDL
MODEL 4
REMARK VINA RESULT:      -5.6     24.292     26.995
REMARK  Name = 71693772
REMARK  5 active torsions:
REMARK  status: ('A' for Active; 'I' for Inactive)
REMARK    1  A    between atoms: O_1  and  C_9
REMARK    2  A    between atoms: O_2  and  C_11
REMARK    3  A    between atoms: N_5  and  C_7
REMARK    4  A    between atoms: C_8  and  C_12
REMARK    5  A    between atoms: C_13  and  C_14
REMARK                            x       y       z     vdW  Elec       q    Type
REMARK                         _______ _______ _______ _____ _____    ______ ____
ROOT
ATOM      7  C   UNL     1      -4.640 -11.827  17.092  0.00  0.00    +0.111 C 
ATOM      8  C   UNL     1      -5.336 -10.463  17.302  0.00  0.00    +0.046 C 
ATOM      9  C   UNL     1      -4.303 -12.277  18.513  0.00  0.00    +0.164 C 
ATOM     10  C   UNL     1      -5.881 -10.485  18.753  0.00  0.00    +0.044 C 
ATOM     11  C   UNL     1      -5.538 -11.868  19.307  0.00  0.00    +0.145 C 
ENDROOT
BRANCH   8  12
ATOM      6  N   UNL     1      -6.929  -9.845  13.915  0.00  0.00    -0.263 NA
ATOM     12  C   UNL     1      -6.381 -10.163  16.248  0.00  0.00    -0.024 A 
ATOM     17  C   UNL     1      -7.707  -9.932  16.599  0.00  0.00    +0.007 A 
ATOM     18  C   UNL     1      -6.047 -10.108  14.905  0.00  0.00    +0.114 A 
ATOM     21  C   UNL     1      -8.644  -9.658  15.609  0.00  0.00    +0.020 A 
ATOM     22  C   UNL     1      -8.208  -9.627  14.294  0.00  0.00    +0.111 A 
ENDBRANCH   8  12
BRANCH   7   5
ATOM      4  O   UNL     1      -3.950 -13.415  14.762  0.00  0.00    -0.276 OA
ATOM      5  N   UNL     1      -3.460 -11.711  16.271  0.00  0.00    -0.309 N 
ATOM     14  C   UNL     1      -3.216 -12.519  15.171  0.00  0.00    +0.217 C 
ATOM     23  H   UNL     1      -2.815 -10.955  16.477  0.00  0.00    +0.149 HD
BRANCH  14  13
ATOM      3  O   UNL     1      -2.339 -11.078  11.839  0.00  0.00    -0.380 OA
ATOM     13  C   UNL     1      -1.929 -12.171  14.480  0.00  0.00    +0.079 C 
ATOM     15  C   UNL     1      -1.879 -10.672  14.188  0.00  0.00    +0.041 C 
ATOM     16  C   UNL     1      -1.749 -13.000  13.209  0.00  0.00    +0.041 C 
ATOM     19  C   UNL     1      -2.715 -10.296  12.970  0.00  0.00    +0.160 C 
ATOM     20  C   UNL     1      -2.581 -12.468  12.046  0.00  0.00    +0.160 C 
ENDBRANCH  14  13
ENDBRANCH   7   5
BRANCH   9   1
ATOM      1  O   UNL     1      -4.082 -13.671  18.596  0.00  0.00    -0.387 OA
ATOM     24  H   UNL     1      -3.581 -13.840  19.412  0.00  0.00    +0.210 HD
ENDBRANCH   9   1
BRANCH  11   2
ATOM      2  O   UNL     1      -6.628 -12.746  19.045  0.00  0.00    -0.389 OA
ATOM     25  H   UNL     1      -6.444 -13.584  19.501  0.00  0.00    +0.210 HD
ENDBRANCH  11   2
TORSDOF 5
ENDMDL
MODEL 5
REMARK VINA RESULT:      -5.5     36.225     37.864
REMARK  Name = 71693772
REMARK  5 active torsions:
REMARK  status: ('A' for Active; 'I' for Inactive)
REMARK    1  A    between atoms: O_1  and  C_9
REMARK    2  A    between atoms: O_2  and  C_11
REMARK    3  A    between atoms: N_5  and  C_7
REMARK    4  A    between atoms: C_8  and  C_12
REMARK    5  A    between atoms: C_13  and  C_14
REMARK                            x       y       z     vdW  Elec       q    Type
REMARK                         _______ _______ _______ _____ _____    ______ ____
ROOT
ATOM      7  C   UNL     1     -14.790   3.219  31.169  0.00  0.00    +0.111 C 
ATOM      8  C   UNL     1     -15.931   2.545  30.373  0.00  0.00    +0.046 C 
ATOM      9  C   UNL     1     -14.092   2.046  31.853  0.00  0.00    +0.164 C 
ATOM     10  C   UNL     1     -15.485   1.076  30.157  0.00  0.00    +0.044 C 
ATOM     11  C   UNL     1     -14.092   0.967  30.776  0.00  0.00    +0.145 C 
ENDROOT
BRANCH   8  12
ATOM      6  N   UNL     1     -16.303   3.334  26.681  0.00  0.00    -0.263 NA
ATOM     12  C   UNL     1     -16.280   3.283  29.097  0.00  0.00    -0.024 A 
ATOM     17  C   UNL     1     -16.873   4.541  29.137  0.00  0.00    +0.007 A 
ATOM     18  C   UNL     1     -16.018   2.729  27.855  0.00  0.00    +0.114 A 
ATOM     21  C   UNL     1     -17.182   5.194  27.950  0.00  0.00    +0.020 A 
ATOM     22  C   UNL     1     -16.880   4.554  26.759  0.00  0.00    +0.111 A 
ENDBRANCH   8  12
BRANCH   7   5
ATOM      4  O   UNL     1     -13.338   5.419  32.386  0.00  0.00    -0.276 OA
ATOM      5  N   UNL     1     -15.291   4.178  32.122  0.00  0.00    -0.309 N 
ATOM     14  C   UNL     1     -14.517   5.200  32.651  0.00  0.00    +0.217 C 
ATOM     23  H   UNL     1     -16.276   4.134  32.361  0.00  0.00    +0.149 HD
BRANCH  14  13
ATOM      3  O   UNL     1     -16.325   8.454  32.343  0.00  0.00    -0.380 OA
ATOM     13  C   UNL     1     -15.290   6.070  33.600  0.00  0.00    +0.079 C 
ATOM     15  C   UNL     1     -16.740   6.196  33.135  0.00  0.00    +0.041 C 
ATOM     16  C   UNL     1     -14.625   7.437  33.754  0.00  0.00    +0.041 C 
ATOM     19  C   UNL     1     -16.890   7.193  31.991  0.00  0.00    +0.160 C 
ATOM     20  C   UNL     1     -14.922   8.363  32.579  0.00  0.00    +0.160 C 
ENDBRANCH  14  13
ENDBRANCH   7   5
BRANCH   9   1
ATOM      1  O   UNL     1     -12.774   2.365  32.255  0.00  0.00    -0.387 OA
ATOM     24  H   UNL     1     -12.477   1.667  32.864  0.00  0.00    +0.210 HD
ENDBRANCH   9   1
BRANCH  11   2
ATOM      2  O   UNL     1     -13.124   1.249  29.771  0.00  0.00    -0.389 OA
ATOM     25  H   UNL     1     -13.277   0.632  29.037  0.00  0.00    +0.210 HD
ENDBRANCH  11   2
TORSDOF 5
ENDMDL
MODEL 6
REMARK VINA RESULT:      -5.5     36.682     38.196
REMARK  Name = 71693772
REMARK  5 active torsions:
REMARK  status: ('A' for Active; 'I' for Inactive)
REMARK    1  A    between atoms: O_1  and  C_9
REMARK    2  A    between atoms: O_2  and  C_11
REMARK    3  A    between atoms: N_5  and  C_7
REMARK    4  A    between atoms: C_8  and  C_12
REMARK    5  A    between atoms: C_13  and  C_14
REMARK                            x       y       z     vdW  Elec       q    Type
REMARK                         _______ _______ _______ _____ _____    ______ ____
ROOT
ATOM      7  C   UNL     1     -16.388   4.193  29.538  0.00  0.00    +0.111 C 
ATOM      8  C   UNL     1     -15.407   3.290  28.754  0.00  0.00    +0.046 C 
ATOM      9  C   UNL     1     -17.050   5.031  28.446  0.00  0.00    +0.164 C 
ATOM     10  C   UNL     1     -15.960   3.221  27.308  0.00  0.00    +0.044 C 
ATOM     11  C   UNL     1     -17.259   4.027  27.318  0.00  0.00    +0.145 C 
ENDROOT
BRANCH   8  12
ATOM      6  N   UNL     1     -16.087  -0.226  30.006  0.00  0.00    -0.263 NA
ATOM     12  C   UNL     1     -15.196   1.940  29.406  0.00  0.00    -0.024 A 
ATOM     17  C   UNL     1     -13.978   1.609  29.991  0.00  0.00    +0.007 A 
ATOM     18  C   UNL     1     -16.209   0.996  29.441  0.00  0.00    +0.114 A 
ATOM     21  C   UNL     1     -13.814   0.362  30.582  0.00  0.00    +0.020 A 
ATOM     22  C   UNL     1     -14.889  -0.512  30.564  0.00  0.00    +0.111 A 
ENDBRANCH   8  12
BRANCH   7   5
ATOM      4  O   UNL     1     -17.532   5.462  31.885  0.00  0.00    -0.276 OA
ATOM      5  N   UNL     1     -15.708   5.014  30.508  0.00  0.00    -0.309 N 
ATOM     14  C   UNL     1     -16.342   5.581  31.604  0.00  0.00    +0.217 C 
ATOM     23  H   UNL     1     -14.703   5.123  30.412  0.00  0.00    +0.149 HD
BRANCH  14  13
ATOM      3  O   UNL     1     -14.398   4.843  34.707  0.00  0.00    -0.380 OA
ATOM     13  C   UNL     1     -15.398   6.367  32.468  0.00  0.00    +0.079 C 
ATOM     15  C   UNL     1     -14.019   5.711  32.470  0.00  0.00    +0.041 C 
ATOM     16  C   UNL     1     -15.954   6.523  33.883  0.00  0.00    +0.041 C 
ATOM     19  C   UNL     1     -13.963   4.499  33.393  0.00  0.00    +0.160 C 
ATOM     20  C   UNL     1     -15.761   5.265  34.724  0.00  0.00    +0.160 C 
ENDBRANCH  14  13
ENDBRANCH   7   5
BRANCH   9   1
ATOM      1  O   UNL     1     -18.280   5.588  28.867  0.00  0.00    -0.387 OA
ATOM     24  H   UNL     1     -18.677   6.033  28.100  0.00  0.00    +0.210 HD
ENDBRANCH   9   1
BRANCH  11   2
ATOM      2  O   UNL     1     -18.339   3.146  27.612  0.00  0.00    -0.389 OA
ATOM     25  H   UNL     1     -18.028   2.517  28.283  0.00  0.00    +0.210 HD
ENDBRANCH  11   2
TORSDOF 5
ENDMDL
MODEL 7
REMARK VINA RESULT:      -5.4     23.457     24.584
REMARK  Name = 71693772
REMARK  5 active torsions:
REMARK  status: ('A' for Active; 'I' for Inactive)
REMARK    1  A    between atoms: O_1  and  C_9
REMARK    2  A    between atoms: O_2  and  C_11
REMARK    3  A    between atoms: N_5  and  C_7
REMARK    4  A    between atoms: C_8  and  C_12
REMARK    5  A    between atoms: C_13  and  C_14
REMARK                            x       y       z     vdW  Elec       q    Type
REMARK                         _______ _______ _______ _____ _____    ______ ____
ROOT
ATOM      7  C   UNL     1       2.466 -14.363  -2.161  0.00  0.00    +0.111 C 
ATOM      8  C   UNL     1       2.924 -13.923  -0.751  0.00  0.00    +0.046 C 
ATOM      9  C   UNL     1       3.760 -14.826  -2.827  0.00  0.00    +0.164 C 
ATOM     10  C   UNL     1       4.250 -14.680  -0.483  0.00  0.00    +0.044 C 
ATOM     11  C   UNL     1       4.481 -15.566  -1.706  0.00  0.00    +0.145 C 
ENDROOT
BRANCH   8  12
ATOM      6  N   UNL     1      -0.473 -14.073   0.931  0.00  0.00    -0.263 NA
ATOM     12  C   UNL     1       1.862 -14.132   0.308  0.00  0.00    -0.024 A 
ATOM     17  C   UNL     1       2.201 -14.553   1.589  0.00  0.00    +0.007 A 
ATOM     18  C   UNL     1       0.523 -13.907   0.032  0.00  0.00    +0.114 A 
ATOM     21  C   UNL     1       1.205 -14.735   2.541  0.00  0.00    +0.020 A 
ATOM     22  C   UNL     1      -0.105 -14.484   2.165  0.00  0.00    +0.111 A 
ENDBRANCH   8  12
BRANCH   7   5
ATOM      4  O   UNL     1       0.671 -14.572  -4.434  0.00  0.00    -0.276 OA
ATOM      5  N   UNL     1       1.843 -13.285  -2.887  0.00  0.00    -0.309 N 
ATOM     14  C   UNL     1       0.995 -13.483  -3.967  0.00  0.00    +0.217 C 
ATOM     23  H   UNL     1       1.986 -12.340  -2.543  0.00  0.00    +0.149 HD
BRANCH  14  13
ATOM      3  O   UNL     1       1.434 -11.640  -7.186  0.00  0.00    -0.380 OA
ATOM     13  C   UNL     1       0.465 -12.193  -4.523  0.00  0.00    +0.079 C 
ATOM     15  C   UNL     1      -0.365 -12.464  -5.777  0.00  0.00    +0.041 C 
ATOM     16  C   UNL     1       1.600 -11.208  -4.797  0.00  0.00    +0.041 C 
ATOM     19  C   UNL     1       0.511 -12.711  -7.001  0.00  0.00    +0.160 C 
ATOM     20  C   UNL     1       2.342 -11.524  -6.092  0.00  0.00    +0.160 C 
ENDBRANCH  14  13
ENDBRANCH   7   5
BRANCH   9   1
ATOM      1  O   UNL     1       3.521 -15.678  -3.930  0.00  0.00    -0.387 OA
ATOM     24  H   UNL     1       4.054 -15.350  -4.675  0.00  0.00    +0.210 HD
ENDBRANCH   9   1
BRANCH  11   2
ATOM      2  O   UNL     1       3.884 -16.836  -1.467  0.00  0.00    -0.389 OA
ATOM     25  H   UNL     1       4.495 -17.514  -1.801  0.00  0.00    +0.210 HD
ENDBRANCH  11   2
TORSDOF 5
ENDMDL
MODEL 8
REMARK VINA RESULT:      -5.4     22.977     26.071
REMARK  Name = 71693772
REMARK  5 active torsions:
REMARK  status: ('A' for Active; 'I' for Inactive)
REMARK    1  A    between atoms: O_1  and  C_9
REMARK    2  A    between atoms: O_2  and  C_11
REMARK    3  A    between atoms: N_5  and  C_7
REMARK    4  A    between atoms: C_8  and  C_12
REMARK    5  A    between atoms: C_13  and  C_14
REMARK                            x       y       z     vdW  Elec       q    Type
REMARK                         _______ _______ _______ _____ _____    ______ ____
ROOT
ATOM      7  C   UNL     1      -4.171 -10.496  14.296  0.00  0.00    +0.111 C 
ATOM      8  C   UNL     1      -3.751 -11.066  12.922  0.00  0.00    +0.046 C 
ATOM      9  C   UNL     1      -3.116 -11.053  15.250  0.00  0.00    +0.164 C 
ATOM     10  C   UNL     1      -2.239 -11.386  13.042  0.00  0.00    +0.044 C 
ATOM     11  C   UNL     1      -1.827 -10.940  14.444  0.00  0.00    +0.145 C 
ENDROOT
BRANCH   8  12
ATOM      6  N   UNL     1      -5.726  -8.716  10.694  0.00  0.00    -0.263 NA
ATOM     12  C   UNL     1      -4.105 -10.152  11.768  0.00  0.00    -0.024 A 
ATOM     17  C   UNL     1      -3.195  -9.901  10.747  0.00  0.00    +0.007 A 
ATOM     18  C   UNL     1      -5.346  -9.540  11.695  0.00  0.00    +0.114 A 
ATOM     21  C   UNL     1      -3.549  -9.058   9.700  0.00  0.00    +0.020 A 
ATOM     22  C   UNL     1      -4.815  -8.495   9.720  0.00  0.00    +0.111 A 
ENDBRANCH   8  12
BRANCH   7   5
ATOM      4  O   UNL     1      -5.884  -9.313  16.321  0.00  0.00    -0.276 OA
ATOM      5  N   UNL     1      -5.502 -10.908  14.667  0.00  0.00    -0.309 N 
ATOM     14  C   UNL     1      -6.247 -10.277  15.653  0.00  0.00    +0.217 C 
ATOM     23  H   UNL     1      -5.931 -11.655  14.130  0.00  0.00    +0.149 HD
BRANCH  14  13
ATOM      3  O   UNL     1      -9.745  -9.075  15.131  0.00  0.00    -0.380 OA
ATOM     13  C   UNL     1      -7.608 -10.890  15.821  0.00  0.00    +0.079 C 
ATOM     15  C   UNL     1      -8.332 -10.939  14.476  0.00  0.00    +0.041 C 
ATOM     16  C   UNL     1      -8.420 -10.136  16.874  0.00  0.00    +0.041 C 
ATOM     19  C   UNL     1      -8.914  -9.584  14.089  0.00  0.00    +0.160 C 
ATOM     20  C   UNL     1      -9.012  -8.839  16.331  0.00  0.00    +0.160 C 
ENDBRANCH  14  13
ENDBRANCH   7   5
BRANCH   9   1
ATOM      1  O   UNL     1      -3.033 -10.311  16.451  0.00  0.00    -0.387 OA
ATOM     24  H   UNL     1      -3.404 -10.862  17.162  0.00  0.00    +0.210 HD
ENDBRANCH   9   1
BRANCH  11   2
ATOM      2  O   UNL     1      -1.382  -9.588  14.380  0.00  0.00    -0.389 OA
ATOM     25  H   UNL     1      -1.120  -9.324  15.278  0.00  0.00    +0.210 HD
ENDBRANCH  11   2
TORSDOF 5
ENDMDL
MODEL 9
REMARK VINA RESULT:      -5.4     22.990     26.467
REMARK  Name = 71693772
REMARK  5 active torsions:
REMARK  status: ('A' for Active; 'I' for Inactive)
REMARK    1  A    between atoms: O_1  and  C_9
REMARK    2  A    between atoms: O_2  and  C_11
REMARK    3  A    between atoms: N_5  and  C_7
REMARK    4  A    between atoms: C_8  and  C_12
REMARK    5  A    between atoms: C_13  and  C_14
REMARK                            x       y       z     vdW  Elec       q    Type
REMARK                         _______ _______ _______ _____ _____    ______ ____
ROOT
ATOM      7  C   UNL     1      -3.952 -10.689  14.539  0.00  0.00    +0.111 C 
ATOM      8  C   UNL     1      -3.480 -11.196  13.156  0.00  0.00    +0.046 C 
ATOM      9  C   UNL     1      -2.877 -11.206  15.492  0.00  0.00    +0.164 C 
ATOM     10  C   UNL     1      -1.953 -11.426  13.289  0.00  0.00    +0.044 C 
ATOM     11  C   UNL     1      -1.587 -10.993  14.708  0.00  0.00    +0.145 C 
ENDROOT
BRANCH   8  12
ATOM      6  N   UNL     1      -5.559  -8.889  10.977  0.00  0.00    -0.263 NA
ATOM     12  C   UNL     1      -3.876 -10.275  12.021  0.00  0.00    -0.024 A 
ATOM     17  C   UNL     1      -2.979  -9.964  11.005  0.00  0.00    +0.007 A 
ATOM     18  C   UNL     1      -5.142  -9.717  11.961  0.00  0.00    +0.114 A 
ATOM     21  C   UNL     1      -3.370  -9.116   9.976  0.00  0.00    +0.020 A 
ATOM     22  C   UNL     1      -4.660  -8.609  10.007  0.00  0.00    +0.111 A 
ENDBRANCH   8  12
BRANCH   7   5
ATOM      4  O   UNL     1      -5.884  -9.492  16.346  0.00  0.00    -0.276 OA
ATOM      5  N   UNL     1      -5.260 -11.191  14.880  0.00  0.00    -0.309 N 
ATOM     14  C   UNL     1      -6.117 -10.546  15.759  0.00  0.00    +0.217 C 
ATOM     23  H   UNL     1      -5.586 -12.023  14.398  0.00  0.00    +0.149 HD
BRANCH  14  13
ATOM      3  O   UNL     1      -7.563 -12.807  18.356  0.00  0.00    -0.380 OA
ATOM     13  C   UNL     1      -7.424 -11.268  15.917  0.00  0.00    +0.079 C 
ATOM     15  C   UNL     1      -8.150 -10.773  17.167  0.00  0.00    +0.041 C 
ATOM     16  C   UNL     1      -7.212 -12.781  15.949  0.00  0.00    +0.041 C 
ATOM     19  C   UNL     1      -7.579 -11.384  18.442  0.00  0.00    +0.160 C 
ATOM     20  C   UNL     1      -6.716 -13.269  17.306  0.00  0.00    +0.160 C 
ENDBRANCH  14  13
ENDBRANCH   7   5
BRANCH   9   1
ATOM      1  O   UNL     1      -2.855 -10.492  16.713  0.00  0.00    -0.387 OA
ATOM     24  H   UNL     1      -3.648  -9.930  16.739  0.00  0.00    +0.210 HD
ENDBRANCH   9   1
BRANCH  11   2
ATOM      2  O   UNL     1      -1.225  -9.616  14.685  0.00  0.00    -0.389 OA
ATOM     25  H   UNL     1      -1.756  -9.163  15.361  0.00  0.00    +0.210 HD
ENDBRANCH  11   2
TORSDOF 5
ENDMDL
MODEL 10
REMARK VINA RESULT:      -5.2     24.179     26.593
REMARK  Name = 71693772
REMARK  5 active torsions:
REMARK  status: ('A' for Active; 'I' for Inactive)
REMARK    1  A    between atoms: O_1  and  C_9
REMARK    2  A    between atoms: O_2  and  C_11
REMARK    3  A    between atoms: N_5  and  C_7
REMARK    4  A    between atoms: C_8  and  C_12
REMARK    5  A    between atoms: C_13  and  C_14
REMARK                            x       y       z     vdW  Elec       q    Type
REMARK                         _______ _______ _______ _____ _____    ______ ____
ROOT
ATOM      7  C   UNL     1     -10.583  10.259  17.159  0.00  0.00    +0.111 C 
ATOM      8  C   UNL     1     -10.310   9.154  18.206  0.00  0.00    +0.046 C 
ATOM      9  C   UNL     1     -10.319   9.561  15.827  0.00  0.00    +0.164 C 
ATOM     10  C   UNL     1     -10.495   7.809  17.457  0.00  0.00    +0.044 C 
ATOM     11  C   UNL     1     -10.922   8.176  16.037  0.00  0.00    +0.145 C 
ENDROOT
BRANCH   8  12
ATOM      6  N   UNL     1     -12.095  10.727  21.160  0.00  0.00    -0.263 NA
ATOM     12  C   UNL     1     -11.158   9.296  19.452  0.00  0.00    -0.024 A 
ATOM     17  C   UNL     1     -11.767   8.189  20.034  0.00  0.00    +0.007 A 
ATOM     18  C   UNL     1     -11.352  10.531  20.049  0.00  0.00    +0.114 A 
ATOM     21  C   UNL     1     -12.539   8.351  21.179  0.00  0.00    +0.020 A 
ATOM     22  C   UNL     1     -12.671   9.628  21.698  0.00  0.00    +0.111 A 
ENDBRANCH   8  12
BRANCH   7   5
ATOM      4  O   UNL     1     -11.325  13.063  17.013  0.00  0.00    -0.276 OA
ATOM      5  N   UNL     1      -9.725  11.403  17.346  0.00  0.00    -0.309 N 
ATOM     14  C   UNL     1     -10.173  12.713  17.256  0.00  0.00    +0.217 C 
ATOM     23  H   UNL     1      -8.763  11.231  17.621  0.00  0.00    +0.149 HD
BRANCH  14  13
ATOM      3  O   UNL     1      -8.351  15.216  15.166  0.00  0.00    -0.380 OA
ATOM     13  C   UNL     1      -9.081  13.710  17.519  0.00  0.00    +0.079 C 
ATOM     15  C   UNL     1      -9.588  15.127  17.254  0.00  0.00    +0.041 C 
ATOM     16  C   UNL     1      -7.837  13.390  16.689  0.00  0.00    +0.041 C 
ATOM     19  C   UNL     1      -9.623  15.454  15.765  0.00  0.00    +0.160 C 
ATOM     20  C   UNL     1      -7.975  13.842  15.239  0.00  0.00    +0.160 C 
ENDBRANCH  14  13
ENDBRANCH   7   5
BRANCH   9   1
ATOM      1  O   UNL     1     -10.934  10.226  14.741  0.00  0.00    -0.387 OA
ATOM     24  H   UNL     1     -10.570   9.849  13.922  0.00  0.00    +0.210 HD
ENDBRANCH   9   1
BRANCH  11   2
ATOM      2  O   UNL     1     -12.344   8.226  15.987  0.00  0.00    -0.389 OA
ATOM     25  H   UNL     1     -12.654   7.374  15.639  0.00  0.00    +0.210 HD
ENDBRANCH  11   2
TORSDOF 5
ENDMDL
