REMARK  Name = 51138129
REMARK  8 active torsions:
REMARK  status: ('A' for Active; 'I' for Inactive)
REMARK    1  A    between atoms: N_4  and  C_26
REMARK    2  A    between atoms: N_5  and  C_27
REMARK    3  A    between atoms: C_6  and  C_12
REMARK    4  A    between atoms: C_7  and  C_14
REMARK    5  A    between atoms: C_12  and  C_15
REMARK    6  A    between atoms: C_15  and  C_24
REMARK    7  A    between atoms: C_15  and  C_25
REMARK    8  A    between atoms: C_26  and  C_28
REMARK                            x       y       z     vdW  Elec       q    Type
REMARK                         _______ _______ _______ _____ _____    ______ ____
ROOT
ATOM      2  N   UNL     1      -0.518   1.311   0.773  0.00  0.00    -0.299 NA
ATOM      4  N   UNL     1       3.384  -1.811   0.048  0.00  0.00    -0.343 N 
ATOM      6  C   UNL     1       0.275   1.910  -0.308  0.00  0.00    +0.085 C 
ATOM      7  C   UNL     1      -0.957  -0.054   0.522  0.00  0.00    +0.145 C 
ATOM      8  C   UNL     1      -0.024  -1.072   1.175  0.00  0.00    +0.065 C 
ATOM      9  C   UNL     1       1.624   1.244  -0.597  0.00  0.00    -0.021 A 
ATOM     10  C   UNL     1       2.005  -0.058  -0.162  0.00  0.00    +0.008 A 
ATOM     11  C   UNL     1       1.351  -1.092   0.594  0.00  0.00    -0.020 A 
ATOM     13  C   UNL     1       3.267  -0.558  -0.506  0.00  0.00    +0.050 A 
ATOM     16  C   UNL     1       2.237  -2.144   0.706  0.00  0.00    +0.090 A 
ATOM     19  C   UNL     1       2.553   1.923  -1.425  0.00  0.00    +0.006 A 
ATOM     22  C   UNL     1       4.187   0.146  -1.284  0.00  0.00    +0.026 A 
ATOM     23  C   UNL     1       3.801   1.396  -1.751  0.00  0.00    +0.002 A 
ATOM     30  H   UNL     1      -0.030   1.383   1.665  0.00  0.00    +0.123 HD
ENDROOT
BRANCH   7  14
ATOM      1  O   UNL     1      -2.565   0.527   2.150  0.00  0.00    -0.274 OA
ATOM      3  N   UNL     1      -3.216  -1.030   0.554  0.00  0.00    -0.298 N 
ATOM      5  N   UNL     1      -5.375  -2.155  -0.956  0.00  0.00    -0.302 NA
ATOM     14  C   UNL     1      -2.312  -0.154   1.154  0.00  0.00    +0.233 C 
ATOM     17  C   UNL     1      -2.943  -1.851  -0.630  0.00  0.00    +0.123 C 
ATOM     18  C   UNL     1      -4.509  -1.287   1.185  0.00  0.00    +0.123 C 
ATOM     20  C   UNL     1      -4.111  -1.800  -1.617  0.00  0.00    +0.103 C 
ATOM     21  C   UNL     1      -5.644  -1.241   0.164  0.00  0.00    +0.103 C 
ATOM     27  C   UNL     1      -6.479  -2.134  -1.914  0.00  0.00    +0.105 C 
ENDBRANCH   7  14
BRANCH   6  12
ATOM     12  C   UNL     1       0.421   3.390   0.089  0.00  0.00    +0.026 C 
BRANCH  12  15
ATOM     15  C   UNL     1      -0.850   4.206  -0.165  0.00  0.00    -0.015 C 
ATOM     24  C   UNL     1      -0.593   5.669   0.206  0.00  0.00    +0.007 C 
ATOM     25  C   UNL     1      -2.055   3.679   0.616  0.00  0.00    +0.007 C 
ENDBRANCH  12  15
ENDBRANCH   6  12
BRANCH   4  26
ATOM     26  C   UNL     1       4.540  -2.675  -0.059  0.00  0.00    +0.148 C 
BRANCH  26  28
ATOM     28  C   UNL     1       5.628  -2.297   0.903  0.00  0.00    -0.013 C 
ATOM     29  C   UNL     1       6.877  -1.988   0.534  0.00  0.00    +0.005 C 
ENDBRANCH  26  28
ENDBRANCH   4  26
TORSDOF 5
