MODEL 1
REMARK VINA RESULT:      -7.7      0.000      0.000
REMARK  Name = 45360775
REMARK  9 active torsions:
REMARK  status: ('A' for Active; 'I' for Inactive)
REMARK    1  A    between atoms: O_3  and  C_24
REMARK    2  A    between atoms: O_4  and  C_30
REMARK    3  A    between atoms: O_4  and  C_31
REMARK    4  A    between atoms: N_7  and  C_11
REMARK    5  A    between atoms: N_7  and  C_18
REMARK    6  A    between atoms: C_10  and  C_15
REMARK    7  A    between atoms: C_15  and  C_17
REMARK    8  A    between atoms: C_17  and  C_19
REMARK    9  A    between atoms: C_18  and  C_25
REMARK                            x       y       z     vdW  Elec       q    Type
REMARK                         _______ _______ _______ _____ _____    ______ ____
ROOT
ATOM      1  O   UNL     1      11.735   7.470  17.540  0.00  0.00    -0.274 OA
ATOM      5  N   UNL     1      13.552   7.078  20.680  0.00  0.00    -0.286 NA
ATOM      6  N   UNL     1      13.974   7.408  17.926  0.00  0.00    -0.313 N 
ATOM      9  C   UNL     1      12.389   6.961  19.792  0.00  0.00    +0.145 C 
ATOM     10  C   UNL     1      14.805   6.614  20.094  0.00  0.00    +0.075 C 
ATOM     11  C   UNL     1      12.047   8.548  21.598  0.00  0.00    +0.070 C 
ATOM     12  C   UNL     1      11.345   7.913  20.398  0.00  0.00    +0.048 C 
ATOM     13  C   UNL     1      13.525   8.423  21.253  0.00  0.00    +0.104 C 
ATOM     14  C   UNL     1      15.115   7.372  18.812  0.00  0.00    +0.123 C 
ATOM     16  C   UNL     1      12.666   7.323  18.336  0.00  0.00    +0.230 C 
ATOM     32  H   UNL     1      14.147   7.629  16.950  0.00  0.00    +0.149 HD
ENDROOT
BRANCH  11   7
ATOM      7  N   UNL     1      11.624   9.917  21.847  0.00  0.00    -0.308 NA
ATOM     33  H   UNL     1      12.446  10.522  21.856  0.00  0.00    +0.123 HD
BRANCH   7  18
ATOM     18  C   UNL     1      10.940  10.028  23.129  0.00  0.00    +0.116 C 
BRANCH  18  25
ATOM     25  C   UNL     1      10.916  11.448  23.630  0.00  0.00    -0.033 A 
ATOM     26  C   UNL     1      10.888  12.508  22.724  0.00  0.00    +0.008 A 
ATOM     27  C   UNL     1      10.923  11.702  25.002  0.00  0.00    +0.008 A 
ATOM     28  C   UNL     1      10.866  13.823  23.190  0.00  0.00    +0.046 A 
ATOM     29  C   UNL     1      10.901  13.017  25.467  0.00  0.00    +0.046 A 
ATOM     30  C   UNL     1      10.873  14.078  24.561  0.00  0.00    +0.120 A 
BRANCH  30   4
ATOM      4  O   UNL     1      10.850  15.361  25.015  0.00  0.00    -0.495 OA
ATOM     31  C   UNL     1      11.253  15.578  26.367  0.00  0.00    +0.277 C 
ENDBRANCH  30   4
ENDBRANCH  18  25
ENDBRANCH   7  18
ENDBRANCH  11   7
BRANCH  10  15
ATOM     15  C   UNL     1      15.979   6.685  21.071  0.00  0.00    +0.029 C 
BRANCH  15  17
ATOM     17  C   UNL     1      17.190   7.389  20.474  0.00  0.00    +0.097 C 
BRANCH  17  19
ATOM      2  O   UNL     1      18.118   5.518  19.356  0.00  0.00    -0.276 OA
ATOM      8  N   UNL     1      19.485   6.583  20.905  0.00  0.00    -0.301 N 
ATOM     19  C   UNL     1      18.300   6.410  20.189  0.00  0.00    +0.216 C 
ATOM     20  C   UNL     1      19.729   7.634  21.901  0.00  0.00    +0.110 C 
ATOM     21  C   UNL     1      20.626   5.700  20.649  0.00  0.00    +0.110 C 
ATOM     22  C   UNL     1      20.210   7.030  23.218  0.00  0.00    +0.050 C 
ATOM     23  C   UNL     1      21.120   5.061  21.943  0.00  0.00    +0.050 C 
ATOM     24  C   UNL     1      21.420   6.121  23.004  0.00  0.00    +0.118 C 
BRANCH  24   3
ATOM      3  O   UNL     1      21.744   5.491  24.237  0.00  0.00    -0.392 OA
ATOM     34  H   UNL     1      22.191   6.152  24.795  0.00  0.00    +0.210 HD
ENDBRANCH  24   3
ENDBRANCH  17  19
ENDBRANCH  15  17
ENDBRANCH  10  15
TORSDOF 8
ENDMDL
MODEL 2
REMARK VINA RESULT:      -7.0     27.284     29.441
REMARK  Name = 45360775
REMARK  9 active torsions:
REMARK  status: ('A' for Active; 'I' for Inactive)
REMARK    1  A    between atoms: O_3  and  C_24
REMARK    2  A    between atoms: O_4  and  C_30
REMARK    3  A    between atoms: O_4  and  C_31
REMARK    4  A    between atoms: N_7  and  C_11
REMARK    5  A    between atoms: N_7  and  C_18
REMARK    6  A    between atoms: C_10  and  C_15
REMARK    7  A    between atoms: C_15  and  C_17
REMARK    8  A    between atoms: C_17  and  C_19
REMARK    9  A    between atoms: C_18  and  C_25
REMARK                            x       y       z     vdW  Elec       q    Type
REMARK                         _______ _______ _______ _____ _____    ______ ____
ROOT
ATOM      1  O   UNL     1      -5.538 -13.639  17.413  0.00  0.00    -0.274 OA
ATOM      5  N   UNL     1      -3.975 -10.690  15.939  0.00  0.00    -0.286 NA
ATOM      6  N   UNL     1      -4.067 -13.483  15.687  0.00  0.00    -0.313 N 
ATOM      9  C   UNL     1      -4.648 -11.450  16.999  0.00  0.00    +0.145 C 
ATOM     10  C   UNL     1      -2.848 -11.385  15.325  0.00  0.00    +0.075 C 
ATOM     11  C   UNL     1      -6.029  -9.676  16.080  0.00  0.00    +0.070 C 
ATOM     12  C   UNL     1      -6.022 -10.775  17.142  0.00  0.00    +0.048 C 
ATOM     13  C   UNL     1      -5.015 -10.166  15.055  0.00  0.00    +0.104 C 
ATOM     14  C   UNL     1      -3.289 -12.718  14.740  0.00  0.00    +0.123 C 
ATOM     16  C   UNL     1      -4.809 -12.938  16.707  0.00  0.00    +0.230 C 
ATOM     32  H   UNL     1      -4.166 -14.479  15.515  0.00  0.00    +0.149 HD
ENDROOT
BRANCH  11   7
ATOM      7  N   UNL     1      -7.348  -9.434  15.518  0.00  0.00    -0.308 NA
ATOM     33  H   UNL     1      -7.353  -8.522  15.061  0.00  0.00    +0.123 HD
BRANCH   7  18
ATOM     18  C   UNL     1      -8.370  -9.448  16.558  0.00  0.00    +0.116 C 
BRANCH  18  25
ATOM     25  C   UNL     1      -9.569  -8.620  16.177  0.00  0.00    -0.033 A 
ATOM     26  C   UNL     1     -10.261  -8.896  14.998  0.00  0.00    +0.008 A 
ATOM     27  C   UNL     1      -9.986  -7.577  17.004  0.00  0.00    +0.008 A 
ATOM     28  C   UNL     1     -11.371  -8.128  14.646  0.00  0.00    +0.046 A 
ATOM     29  C   UNL     1     -11.096  -6.810  16.651  0.00  0.00    +0.046 A 
ATOM     30  C   UNL     1     -11.789  -7.085  15.473  0.00  0.00    +0.120 A 
BRANCH  30   4
ATOM      4  O   UNL     1     -12.873  -6.337  15.129  0.00  0.00    -0.495 OA
ATOM     31  C   UNL     1     -12.677  -5.323  14.144  0.00  0.00    +0.277 C 
ENDBRANCH  30   4
ENDBRANCH  18  25
ENDBRANCH   7  18
ENDBRANCH  11   7
BRANCH  10  15
ATOM     15  C   UNL     1      -2.128 -10.536  14.276  0.00  0.00    +0.029 C 
BRANCH  15  17
ATOM     17  C   UNL     1      -2.003 -11.251  12.938  0.00  0.00    +0.097 C 
BRANCH  17  19
ATOM      2  O   UNL     1      -1.170  -9.506  11.568  0.00  0.00    -0.276 OA
ATOM      8  N   UNL     1      -3.285 -10.314  11.046  0.00  0.00    -0.301 N 
ATOM     19  C   UNL     1      -2.108 -10.277  11.791  0.00  0.00    +0.216 C 
ATOM     20  C   UNL     1      -4.416 -11.219  11.289  0.00  0.00    +0.110 C 
ATOM     21  C   UNL     1      -3.442  -9.431   9.887  0.00  0.00    +0.110 C 
ATOM     22  C   UNL     1      -5.718 -10.435  11.420  0.00  0.00    +0.050 C 
ATOM     23  C   UNL     1      -4.726  -8.614   9.995  0.00  0.00    +0.050 C 
ATOM     24  C   UNL     1      -5.939  -9.519  10.217  0.00  0.00    +0.118 C 
BRANCH  24   3
ATOM      3  O   UNL     1      -7.096  -8.725  10.451  0.00  0.00    -0.392 OA
ATOM     34  H   UNL     1      -7.600  -8.690   9.620  0.00  0.00    +0.210 HD
ENDBRANCH  24   3
ENDBRANCH  17  19
ENDBRANCH  15  17
ENDBRANCH  10  15
TORSDOF 8
ENDMDL
MODEL 3
REMARK VINA RESULT:      -6.9      2.359      8.725
REMARK  Name = 45360775
REMARK  9 active torsions:
REMARK  status: ('A' for Active; 'I' for Inactive)
REMARK    1  A    between atoms: O_3  and  C_24
REMARK    2  A    between atoms: O_4  and  C_30
REMARK    3  A    between atoms: O_4  and  C_31
REMARK    4  A    between atoms: N_7  and  C_11
REMARK    5  A    between atoms: N_7  and  C_18
REMARK    6  A    between atoms: C_10  and  C_15
REMARK    7  A    between atoms: C_15  and  C_17
REMARK    8  A    between atoms: C_17  and  C_19
REMARK    9  A    between atoms: C_18  and  C_25
REMARK                            x       y       z     vdW  Elec       q    Type
REMARK                         _______ _______ _______ _____ _____    ______ ____
ROOT
ATOM      1  O   UNL     1      11.667   6.275  20.046  0.00  0.00    -0.274 OA
ATOM      5  N   UNL     1      12.032   9.830  20.783  0.00  0.00    -0.286 NA
ATOM      6  N   UNL     1      11.047   7.448  21.892  0.00  0.00    -0.313 N 
ATOM      9  C   UNL     1      11.944   8.655  19.908  0.00  0.00    +0.145 C 
ATOM     10  C   UNL     1      10.990   9.900  21.802  0.00  0.00    +0.075 C 
ATOM     11  C   UNL     1      14.149   9.673  19.911  0.00  0.00    +0.070 C 
ATOM     12  C   UNL     1      13.343   8.537  19.280  0.00  0.00    +0.048 C 
ATOM     13  C   UNL     1      13.421   9.940  21.222  0.00  0.00    +0.104 C 
ATOM     14  C   UNL     1      11.010   8.658  22.680  0.00  0.00    +0.123 C 
ATOM     16  C   UNL     1      11.566   7.361  20.623  0.00  0.00    +0.230 C 
ATOM     32  H   UNL     1      10.779   6.583  22.349  0.00  0.00    +0.149 HD
ENDROOT
BRANCH  11   7
ATOM      7  N   UNL     1      15.554   9.346  20.085  0.00  0.00    -0.308 NA
ATOM     33  H   UNL     1      15.982   9.213  19.167  0.00  0.00    +0.123 HD
BRANCH   7  18
ATOM     18  C   UNL     1      15.715   8.124  20.863  0.00  0.00    +0.116 C 
BRANCH  18  25
ATOM     25  C   UNL     1      17.150   7.669  20.904  0.00  0.00    -0.033 A 
ATOM     26  C   UNL     1      17.519   6.469  20.296  0.00  0.00    +0.008 A 
ATOM     27  C   UNL     1      18.110   8.449  21.549  0.00  0.00    +0.008 A 
ATOM     28  C   UNL     1      18.849   6.049  20.335  0.00  0.00    +0.046 A 
ATOM     29  C   UNL     1      19.439   8.028  21.587  0.00  0.00    +0.046 A 
ATOM     30  C   UNL     1      19.809   6.828  20.980  0.00  0.00    +0.120 A 
BRANCH  30   4
ATOM      4  O   UNL     1      21.107   6.418  21.015  0.00  0.00    -0.495 OA
ATOM     31  C   UNL     1      21.399   5.141  20.450  0.00  0.00    +0.277 C 
ENDBRANCH  30   4
ENDBRANCH  18  25
ENDBRANCH   7  18
ENDBRANCH  11   7
BRANCH  10  15
ATOM     15  C   UNL     1      11.070  11.171  22.647  0.00  0.00    +0.029 C 
BRANCH  15  17
ATOM     17  C   UNL     1      11.134  10.874  24.139  0.00  0.00    +0.097 C 
BRANCH  17  19
ATOM      2  O   UNL     1      10.290  12.803  25.225  0.00  0.00    -0.276 OA
ATOM      8  N   UNL     1      12.591  12.492  25.306  0.00  0.00    -0.301 N 
ATOM     19  C   UNL     1      11.292  12.143  24.938  0.00  0.00    +0.216 C 
ATOM     20  C   UNL     1      13.801  11.727  24.978  0.00  0.00    +0.110 C 
ATOM     21  C   UNL     1      12.820  13.686  26.123  0.00  0.00    +0.110 C 
ATOM     22  C   UNL     1      14.837  12.618  24.299  0.00  0.00    +0.050 C 
ATOM     23  C   UNL     1      13.837  14.612  25.462  0.00  0.00    +0.050 C 
ATOM     24  C   UNL     1      15.130  13.865  25.132  0.00  0.00    +0.118 C 
BRANCH  24   3
ATOM      3  O   UNL     1      16.002  14.714  24.395  0.00  0.00    -0.392 OA
ATOM     34  H   UNL     1      15.503  15.055  23.632  0.00  0.00    +0.210 HD
ENDBRANCH  24   3
ENDBRANCH  17  19
ENDBRANCH  15  17
ENDBRANCH  10  15
TORSDOF 8
ENDMDL
MODEL 4
REMARK VINA RESULT:      -6.8     27.367     29.474
REMARK  Name = 45360775
REMARK  9 active torsions:
REMARK  status: ('A' for Active; 'I' for Inactive)
REMARK    1  A    between atoms: O_3  and  C_24
REMARK    2  A    between atoms: O_4  and  C_30
REMARK    3  A    between atoms: O_4  and  C_31
REMARK    4  A    between atoms: N_7  and  C_11
REMARK    5  A    between atoms: N_7  and  C_18
REMARK    6  A    between atoms: C_10  and  C_15
REMARK    7  A    between atoms: C_15  and  C_17
REMARK    8  A    between atoms: C_17  and  C_19
REMARK    9  A    between atoms: C_18  and  C_25
REMARK                            x       y       z     vdW  Elec       q    Type
REMARK                         _______ _______ _______ _____ _____    ______ ____
ROOT
ATOM      1  O   UNL     1      -7.706 -12.920  19.240  0.00  0.00    -0.274 OA
ATOM      5  N   UNL     1      -5.507 -10.421  17.744  0.00  0.00    -0.286 NA
ATOM      6  N   UNL     1      -5.906 -13.195  17.878  0.00  0.00    -0.313 N 
ATOM      9  C   UNL     1      -6.474 -10.925  18.726  0.00  0.00    +0.145 C 
ATOM     10  C   UNL     1      -4.378 -11.313  17.500  0.00  0.00    +0.075 C 
ATOM     11  C   UNL     1      -7.398  -9.206  17.281  0.00  0.00    +0.070 C 
ATOM     12  C   UNL     1      -7.750 -10.107  18.464  0.00  0.00    +0.048 C 
ATOM     13  C   UNL     1      -6.268  -9.955  16.587  0.00  0.00    +0.104 C 
ATOM     14  C   UNL     1      -4.859 -12.676  17.028  0.00  0.00    +0.123 C 
ATOM     16  C   UNL     1      -6.763 -12.419  18.620  0.00  0.00    +0.230 C 
ATOM     32  H   UNL     1      -6.096 -14.191  17.832  0.00  0.00    +0.149 HD
ENDROOT
BRANCH  11   7
ATOM      7  N   UNL     1      -8.533  -8.936  16.413  0.00  0.00    -0.308 NA
ATOM     33  H   UNL     1      -8.395  -8.034  15.955  0.00  0.00    +0.123 HD
BRANCH   7  18
ATOM     18  C   UNL     1      -9.775  -8.895  17.174  0.00  0.00    +0.116 C 
BRANCH  18  25
ATOM     25  C   UNL     1     -10.812  -8.029  16.509  0.00  0.00    -0.033 A 
ATOM     26  C   UNL     1     -12.168  -8.313  16.672  0.00  0.00    +0.008 A 
ATOM     27  C   UNL     1     -10.416  -6.942  15.729  0.00  0.00    +0.008 A 
ATOM     28  C   UNL     1     -13.128  -7.509  16.055  0.00  0.00    +0.046 A 
ATOM     29  C   UNL     1     -11.375  -6.139  15.113  0.00  0.00    +0.046 A 
ATOM     30  C   UNL     1     -12.731  -6.422  15.276  0.00  0.00    +0.120 A 
BRANCH  30   4
ATOM      4  O   UNL     1     -13.668  -5.638  14.675  0.00  0.00    -0.495 OA
ATOM     31  C   UNL     1     -13.216  -4.764  13.642  0.00  0.00    +0.277 C 
ENDBRANCH  30   4
ENDBRANCH  18  25
ENDBRANCH   7  18
ENDBRANCH  11   7
BRANCH  10  15
ATOM     15  C   UNL     1      -3.356 -10.724  16.526  0.00  0.00    +0.029 C 
BRANCH  15  17
ATOM     17  C   UNL     1      -3.512 -11.277  15.116  0.00  0.00    +0.097 C 
BRANCH  17  19
ATOM      2  O   UNL     1      -1.408 -10.272  14.697  0.00  0.00    -0.276 OA
ATOM      8  N   UNL     1      -2.679 -10.831  12.834  0.00  0.00    -0.301 N 
ATOM     19  C   UNL     1      -2.435 -10.747  14.204  0.00  0.00    +0.216 C 
ATOM     20  C   UNL     1      -3.890 -11.391  12.220  0.00  0.00    +0.110 C 
ATOM     21  C   UNL     1      -1.659 -10.380  11.883  0.00  0.00    +0.110 C 
ATOM     22  C   UNL     1      -4.511 -10.396  11.243  0.00  0.00    +0.050 C 
ATOM     23  C   UNL     1      -2.240  -9.366  10.903  0.00  0.00    +0.050 C 
ATOM     24  C   UNL     1      -3.488  -9.918  10.212  0.00  0.00    +0.118 C 
BRANCH  24   3
ATOM      3  O   UNL     1      -4.084  -8.905   9.412  0.00  0.00    -0.392 OA
ATOM     34  H   UNL     1      -4.358  -9.317   8.574  0.00  0.00    +0.210 HD
ENDBRANCH  24   3
ENDBRANCH  17  19
ENDBRANCH  15  17
ENDBRANCH  10  15
TORSDOF 8
ENDMDL
MODEL 5
REMARK VINA RESULT:      -6.7      3.678      8.816
REMARK  Name = 45360775
REMARK  9 active torsions:
REMARK  status: ('A' for Active; 'I' for Inactive)
REMARK    1  A    between atoms: O_3  and  C_24
REMARK    2  A    between atoms: O_4  and  C_30
REMARK    3  A    between atoms: O_4  and  C_31
REMARK    4  A    between atoms: N_7  and  C_11
REMARK    5  A    between atoms: N_7  and  C_18
REMARK    6  A    between atoms: C_10  and  C_15
REMARK    7  A    between atoms: C_15  and  C_17
REMARK    8  A    between atoms: C_17  and  C_19
REMARK    9  A    between atoms: C_18  and  C_25
REMARK                            x       y       z     vdW  Elec       q    Type
REMARK                         _______ _______ _______ _____ _____    ______ ____
ROOT
ATOM      1  O   UNL     1      15.095   6.332  19.388  0.00  0.00    -0.274 OA
ATOM      5  N   UNL     1      11.997   8.083  20.197  0.00  0.00    -0.286 NA
ATOM      6  N   UNL     1      14.605   7.683  21.150  0.00  0.00    -0.313 N 
ATOM      9  C   UNL     1      12.810   7.046  19.549  0.00  0.00    +0.145 C 
ATOM     10  C   UNL     1      12.266   8.255  21.620  0.00  0.00    +0.075 C 
ATOM     11  C   UNL     1      11.868   8.636  17.973  0.00  0.00    +0.070 C 
ATOM     12  C   UNL     1      12.719   7.369  18.048  0.00  0.00    +0.048 C 
ATOM     13  C   UNL     1      12.051   9.270  19.345  0.00  0.00    +0.104 C 
ATOM     14  C   UNL     1      13.731   8.591  21.856  0.00  0.00    +0.123 C 
ATOM     16  C   UNL     1      14.265   7.007  20.003  0.00  0.00    +0.230 C 
ATOM     32  H   UNL     1      15.572   7.633  21.455  0.00  0.00    +0.149 HD
ENDROOT
BRANCH  11   7
ATOM      7  N   UNL     1      12.245   9.511  16.875  0.00  0.00    -0.308 NA
ATOM     33  H   UNL     1      11.510   9.494  16.167  0.00  0.00    +0.123 HD
BRANCH   7  18
ATOM     18  C   UNL     1      13.498   9.080  16.268  0.00  0.00    +0.116 C 
BRANCH  18  25
ATOM     25  C   UNL     1      14.495  10.205  16.181  0.00  0.00    -0.033 A 
ATOM     26  C   UNL     1      14.736  11.012  17.293  0.00  0.00    +0.008 A 
ATOM     27  C   UNL     1      15.177  10.441  14.987  0.00  0.00    +0.008 A 
ATOM     28  C   UNL     1      15.660  12.055  17.210  0.00  0.00    +0.046 A 
ATOM     29  C   UNL     1      16.100  11.483  14.905  0.00  0.00    +0.046 A 
ATOM     30  C   UNL     1      16.342  12.290  16.017  0.00  0.00    +0.120 A 
BRANCH  30   4
ATOM      4  O   UNL     1      17.245  13.306  15.937  0.00  0.00    -0.495 OA
ATOM     31  C   UNL     1      18.530  12.991  15.403  0.00  0.00    +0.277 C 
ENDBRANCH  30   4
ENDBRANCH  18  25
ENDBRANCH   7  18
ENDBRANCH  11   7
BRANCH  10  15
ATOM     15  C   UNL     1      11.353   9.292  22.276  0.00  0.00    +0.029 C 
BRANCH  15  17
ATOM     17  C   UNL     1      12.123  10.498  22.795  0.00  0.00    +0.097 C 
BRANCH  17  19
ATOM      2  O   UNL     1      11.364  12.150  21.276  0.00  0.00    -0.276 OA
ATOM      8  N   UNL     1      10.846  12.486  23.516  0.00  0.00    -0.301 N 
ATOM     19  C   UNL     1      11.412  11.783  22.453  0.00  0.00    +0.216 C 
ATOM     20  C   UNL     1      10.888  12.074  24.925  0.00  0.00    +0.110 C 
ATOM     21  C   UNL     1      10.099  13.720  23.257  0.00  0.00    +0.110 C 
ATOM     22  C   UNL     1      11.439  13.195  25.801  0.00  0.00    +0.050 C 
ATOM     23  C   UNL     1      10.639  14.870  24.102  0.00  0.00    +0.050 C 
ATOM     24  C   UNL     1      10.670  14.499  25.585  0.00  0.00    +0.118 C 
BRANCH  24   3
ATOM      3  O   UNL     1      11.304  15.533  26.328  0.00  0.00    -0.392 OA
ATOM     34  H   UNL     1      11.929  15.981  25.731  0.00  0.00    +0.210 HD
ENDBRANCH  24   3
ENDBRANCH  17  19
ENDBRANCH  15  17
ENDBRANCH  10  15
TORSDOF 8
ENDMDL
MODEL 6
REMARK VINA RESULT:      -6.6     15.376     19.219
REMARK  Name = 45360775
REMARK  9 active torsions:
REMARK  status: ('A' for Active; 'I' for Inactive)
REMARK    1  A    between atoms: O_3  and  C_24
REMARK    2  A    between atoms: O_4  and  C_30
REMARK    3  A    between atoms: O_4  and  C_31
REMARK    4  A    between atoms: N_7  and  C_11
REMARK    5  A    between atoms: N_7  and  C_18
REMARK    6  A    between atoms: C_10  and  C_15
REMARK    7  A    between atoms: C_15  and  C_17
REMARK    8  A    between atoms: C_17  and  C_19
REMARK    9  A    between atoms: C_18  and  C_25
REMARK                            x       y       z     vdW  Elec       q    Type
REMARK                         _______ _______ _______ _____ _____    ______ ____
ROOT
ATOM      1  O   UNL     1      10.457   5.561   8.179  0.00  0.00    -0.274 OA
ATOM      5  N   UNL     1      11.679   7.721   5.504  0.00  0.00    -0.286 NA
ATOM      6  N   UNL     1      12.584   6.180   7.667  0.00  0.00    -0.313 N 
ATOM      9  C   UNL     1      10.674   7.196   6.437  0.00  0.00    +0.145 C 
ATOM     10  C   UNL     1      12.959   8.050   6.122  0.00  0.00    +0.075 C 
ATOM     11  C   UNL     1      10.197   6.646   4.120  0.00  0.00    +0.070 C 
ATOM     12  C   UNL     1       9.644   6.493   5.537  0.00  0.00    +0.048 C 
ATOM     13  C   UNL     1      11.691   6.838   4.340  0.00  0.00    +0.104 C 
ATOM     14  C   UNL     1      13.552   6.832   6.815  0.00  0.00    +0.123 C 
ATOM     16  C   UNL     1      11.224   6.229   7.481  0.00  0.00    +0.230 C 
ATOM     32  H   UNL     1      12.938   5.549   8.379  0.00  0.00    +0.149 HD
ENDROOT
BRANCH  11   7
ATOM      7  N   UNL     1       9.878   5.519   3.259  0.00  0.00    -0.308 NA
ATOM     33  H   UNL     1       9.013   5.085   3.584  0.00  0.00    +0.123 HD
BRANCH   7  18
ATOM     18  C   UNL     1      10.944   4.525   3.283  0.00  0.00    +0.116 C 
BRANCH  18  25
ATOM     25  C   UNL     1      11.413   4.172   1.896  0.00  0.00    -0.033 A 
ATOM     26  C   UNL     1      10.609   4.461   0.793  0.00  0.00    +0.008 A 
ATOM     27  C   UNL     1      12.651   3.555   1.715  0.00  0.00    +0.008 A 
ATOM     28  C   UNL     1      11.045   4.133  -0.492  0.00  0.00    +0.046 A 
ATOM     29  C   UNL     1      13.085   3.228   0.431  0.00  0.00    +0.046 A 
ATOM     30  C   UNL     1      12.283   3.517  -0.673  0.00  0.00    +0.120 A 
BRANCH  30   4
ATOM      4  O   UNL     1      12.708   3.199  -1.926  0.00  0.00    -0.495 OA
ATOM     31  C   UNL     1      12.011   2.152  -2.601  0.00  0.00    +0.277 C 
ENDBRANCH  30   4
ENDBRANCH  18  25
ENDBRANCH   7  18
ENDBRANCH  11   7
BRANCH  10  15
ATOM     15  C   UNL     1      13.955   8.659   5.135  0.00  0.00    +0.029 C 
BRANCH  15  17
ATOM     17  C   UNL     1      15.378   8.668   5.677  0.00  0.00    +0.097 C 
BRANCH  17  19
ATOM      2  O   UNL     1      15.958   7.627   3.630  0.00  0.00    -0.276 OA
ATOM      8  N   UNL     1      17.699   8.583   4.835  0.00  0.00    -0.301 N 
ATOM     19  C   UNL     1      16.364   8.244   4.619  0.00  0.00    +0.216 C 
ATOM     20  C   UNL     1      18.209   9.316   6.002  0.00  0.00    +0.110 C 
ATOM     21  C   UNL     1      18.709   8.247   3.829  0.00  0.00    +0.110 C 
ATOM     22  C   UNL     1      19.351   8.550   6.664  0.00  0.00    +0.050 C 
ATOM     23  C   UNL     1      19.857   7.460   4.453  0.00  0.00    +0.050 C 
ATOM     24  C   UNL     1      20.445   8.200   5.655  0.00  0.00    +0.118 C 
BRANCH  24   3
ATOM      3  O   UNL     1      21.417   7.383   6.297  0.00  0.00    -0.392 OA
ATOM     34  H   UNL     1      22.286   7.799   6.160  0.00  0.00    +0.210 HD
ENDBRANCH  24   3
ENDBRANCH  17  19
ENDBRANCH  15  17
ENDBRANCH  10  15
TORSDOF 8
ENDMDL
MODEL 7
REMARK VINA RESULT:      -6.6     17.755     22.080
REMARK  Name = 45360775
REMARK  9 active torsions:
REMARK  status: ('A' for Active; 'I' for Inactive)
REMARK    1  A    between atoms: O_3  and  C_24
REMARK    2  A    between atoms: O_4  and  C_30
REMARK    3  A    between atoms: O_4  and  C_31
REMARK    4  A    between atoms: N_7  and  C_11
REMARK    5  A    between atoms: N_7  and  C_18
REMARK    6  A    between atoms: C_10  and  C_15
REMARK    7  A    between atoms: C_15  and  C_17
REMARK    8  A    between atoms: C_17  and  C_19
REMARK    9  A    between atoms: C_18  and  C_25
REMARK                            x       y       z     vdW  Elec       q    Type
REMARK                         _______ _______ _______ _____ _____    ______ ____
ROOT
ATOM      1  O   UNL     1      16.262   7.606   1.172  0.00  0.00    -0.274 OA
ATOM      5  N   UNL     1      13.302   5.539   0.639  0.00  0.00    -0.286 NA
ATOM      6  N   UNL     1      16.101   5.379   0.746  0.00  0.00    -0.313 N 
ATOM      9  C   UNL     1      14.058   6.797   0.677  0.00  0.00    +0.145 C 
ATOM     10  C   UNL     1      13.978   4.454  -0.063  0.00  0.00    +0.075 C 
ATOM     11  C   UNL     1      12.343   6.668   2.393  0.00  0.00    +0.070 C 
ATOM     12  C   UNL     1      13.418   7.595   1.825  0.00  0.00    +0.048 C 
ATOM     13  C   UNL     1      12.827   5.279   1.997  0.00  0.00    +0.104 C 
ATOM     14  C   UNL     1      15.335   4.168   0.561  0.00  0.00    +0.123 C 
ATOM     16  C   UNL     1      15.556   6.629   0.909  0.00  0.00    +0.230 C 
ATOM     32  H   UNL     1      17.103   5.282   0.882  0.00  0.00    +0.149 HD
ENDROOT
BRANCH  11   7
ATOM      7  N   UNL     1      12.151   6.828   3.825  0.00  0.00    -0.308 NA
ATOM     33  H   UNL     1      12.653   6.086   4.313  0.00  0.00    +0.123 HD
BRANCH   7  18
ATOM     18  C   UNL     1      10.737   6.753   4.174  0.00  0.00    +0.116 C 
BRANCH  18  25
ATOM     25  C   UNL     1      10.519   6.030   5.477  0.00  0.00    -0.033 A 
ATOM     26  C   UNL     1       9.879   4.791   5.489  0.00  0.00    +0.008 A 
ATOM     27  C   UNL     1      10.958   6.600   6.672  0.00  0.00    +0.008 A 
ATOM     28  C   UNL     1       9.677   4.122   6.697  0.00  0.00    +0.046 A 
ATOM     29  C   UNL     1      10.756   5.931   7.879  0.00  0.00    +0.046 A 
ATOM     30  C   UNL     1      10.116   4.692   7.892  0.00  0.00    +0.120 A 
BRANCH  30   4
ATOM      4  O   UNL     1       9.920   4.039   9.070  0.00  0.00    -0.495 OA
ATOM     31  C   UNL     1       9.088   4.679  10.036  0.00  0.00    +0.277 C 
ENDBRANCH  30   4
ENDBRANCH  18  25
ENDBRANCH   7  18
ENDBRANCH  11   7
BRANCH  10  15
ATOM     15  C   UNL     1      13.132   3.182  -0.144  0.00  0.00    +0.029 C 
BRANCH  15  17
ATOM     17  C   UNL     1      12.556   2.955  -1.534  0.00  0.00    +0.097 C 
BRANCH  17  19
ATOM      2  O   UNL     1      10.519   3.818  -0.685  0.00  0.00    -0.276 OA
ATOM      8  N   UNL     1      10.857   4.024  -2.974  0.00  0.00    -0.301 N 
ATOM     19  C   UNL     1      11.219   3.637  -1.685  0.00  0.00    +0.216 C 
ATOM     20  C   UNL     1      11.669   3.822  -4.181  0.00  0.00    +0.110 C 
ATOM     21  C   UNL     1       9.594   4.735  -3.194  0.00  0.00    +0.110 C 
ATOM     22  C   UNL     1      10.864   3.105  -5.261  0.00  0.00    +0.050 C 
ATOM     23  C   UNL     1       8.752   4.033  -4.255  0.00  0.00    +0.050 C 
ATOM     24  C   UNL     1       9.547   3.828  -5.545  0.00  0.00    +0.118 C 
BRANCH  24   3
ATOM      3  O   UNL     1       8.786   3.052  -6.462  0.00  0.00    -0.392 OA
ATOM     34  H   UNL     1       8.322   2.366  -5.951  0.00  0.00    +0.210 HD
ENDBRANCH  24   3
ENDBRANCH  17  19
ENDBRANCH  15  17
ENDBRANCH  10  15
TORSDOF 8
ENDMDL
MODEL 8
REMARK VINA RESULT:      -6.6     27.871     29.898
REMARK  Name = 45360775
REMARK  9 active torsions:
REMARK  status: ('A' for Active; 'I' for Inactive)
REMARK    1  A    between atoms: O_3  and  C_24
REMARK    2  A    between atoms: O_4  and  C_30
REMARK    3  A    between atoms: O_4  and  C_31
REMARK    4  A    between atoms: N_7  and  C_11
REMARK    5  A    between atoms: N_7  and  C_18
REMARK    6  A    between atoms: C_10  and  C_15
REMARK    7  A    between atoms: C_15  and  C_17
REMARK    8  A    between atoms: C_17  and  C_19
REMARK    9  A    between atoms: C_18  and  C_25
REMARK                            x       y       z     vdW  Elec       q    Type
REMARK                         _______ _______ _______ _____ _____    ______ ____
ROOT
ATOM      1  O   UNL     1      -7.819 -14.707  17.343  0.00  0.00    -0.274 OA
ATOM      5  N   UNL     1      -5.394 -12.015  17.779  0.00  0.00    -0.286 NA
ATOM      6  N   UNL     1      -6.583 -13.598  15.790  0.00  0.00    -0.313 N 
ATOM      9  C   UNL     1      -6.198 -13.165  18.211  0.00  0.00    +0.145 C 
ATOM     10  C   UNL     1      -4.691 -12.214  16.516  0.00  0.00    +0.075 C 
ATOM     11  C   UNL     1      -6.872 -11.085  19.269  0.00  0.00    +0.070 C 
ATOM     12  C   UNL     1      -7.183 -12.581  19.238  0.00  0.00    +0.048 C 
ATOM     13  C   UNL     1      -6.234 -10.826  17.910  0.00  0.00    +0.104 C 
ATOM     14  C   UNL     1      -5.669 -12.549  15.400  0.00  0.00    +0.123 C 
ATOM     16  C   UNL     1      -6.950 -13.870  17.086  0.00  0.00    +0.230 C 
ATOM     32  H   UNL     1      -7.076 -14.088  15.051  0.00  0.00    +0.149 HD
ENDROOT
BRANCH  11   7
ATOM      7  N   UNL     1      -8.044 -10.265  19.524  0.00  0.00    -0.308 NA
ATOM     33  H   UNL     1      -8.234 -10.257  20.527  0.00  0.00    +0.123 HD
BRANCH   7  18
ATOM     18  C   UNL     1      -9.211 -10.788  18.825  0.00  0.00    +0.116 C 
BRANCH  18  25
ATOM     25  C   UNL     1      -9.924  -9.716  18.044  0.00  0.00    -0.033 A 
ATOM     26  C   UNL     1     -11.314  -9.743  17.929  0.00  0.00    +0.008 A 
ATOM     27  C   UNL     1      -9.194  -8.696  17.434  0.00  0.00    +0.008 A 
ATOM     28  C   UNL     1     -11.973  -8.750  17.204  0.00  0.00    +0.046 A 
ATOM     29  C   UNL     1      -9.853  -7.703  16.710  0.00  0.00    +0.046 A 
ATOM     30  C   UNL     1     -11.243  -7.730  16.595  0.00  0.00    +0.120 A 
BRANCH  30   4
ATOM      4  O   UNL     1     -11.887  -6.760  15.890  0.00  0.00    -0.495 OA
ATOM     31  C   UNL     1     -13.314  -6.790  15.899  0.00  0.00    +0.277 C 
ENDBRANCH  30   4
ENDBRANCH  18  25
ENDBRANCH   7  18
ENDBRANCH  11   7
BRANCH  10  15
ATOM     15  C   UNL     1      -3.809 -11.025  16.134  0.00  0.00    +0.029 C 
BRANCH  15  17
ATOM     17  C   UNL     1      -4.251 -10.368  14.833  0.00  0.00    +0.097 C 
BRANCH  17  19
ATOM      2  O   UNL     1      -1.975 -10.390  14.174  0.00  0.00    -0.276 OA
ATOM      8  N   UNL     1      -3.549 -10.478  12.467  0.00  0.00    -0.301 N 
ATOM     19  C   UNL     1      -3.152 -10.414  13.802  0.00  0.00    +0.216 C 
ATOM     20  C   UNL     1      -4.940 -10.507  11.996  0.00  0.00    +0.110 C 
ATOM     21  C   UNL     1      -2.539 -10.572  11.410  0.00  0.00    +0.110 C 
ATOM     22  C   UNL     1      -5.183  -9.412  10.961  0.00  0.00    +0.050 C 
ATOM     23  C   UNL     1      -2.739  -9.477  10.367  0.00  0.00    +0.050 C 
ATOM     24  C   UNL     1      -4.167  -9.488   9.822  0.00  0.00    +0.118 C 
BRANCH  24   3
ATOM      3  O   UNL     1      -4.362  -8.375   8.958  0.00  0.00    -0.392 OA
ATOM     34  H   UNL     1      -5.198  -7.948   9.215  0.00  0.00    +0.210 HD
ENDBRANCH  24   3
ENDBRANCH  17  19
ENDBRANCH  15  17
ENDBRANCH  10  15
TORSDOF 8
ENDMDL
MODEL 9
REMARK VINA RESULT:      -6.4     15.612     19.111
REMARK  Name = 45360775
REMARK  9 active torsions:
REMARK  status: ('A' for Active; 'I' for Inactive)
REMARK    1  A    between atoms: O_3  and  C_24
REMARK    2  A    between atoms: O_4  and  C_30
REMARK    3  A    between atoms: O_4  and  C_31
REMARK    4  A    between atoms: N_7  and  C_11
REMARK    5  A    between atoms: N_7  and  C_18
REMARK    6  A    between atoms: C_10  and  C_15
REMARK    7  A    between atoms: C_15  and  C_17
REMARK    8  A    between atoms: C_17  and  C_19
REMARK    9  A    between atoms: C_18  and  C_25
REMARK                            x       y       z     vdW  Elec       q    Type
REMARK                         _______ _______ _______ _____ _____    ______ ____
ROOT
ATOM      1  O   UNL     1       9.367   9.869   6.970  0.00  0.00    -0.274 OA
ATOM      5  N   UNL     1      10.123   6.563   5.622  0.00  0.00    -0.286 NA
ATOM      6  N   UNL     1       9.317   9.128   4.821  0.00  0.00    -0.313 N 
ATOM      9  C   UNL     1       9.741   7.517   6.670  0.00  0.00    +0.145 C 
ATOM     10  C   UNL     1       9.386   6.717   4.372  0.00  0.00    +0.075 C 
ATOM     11  C   UNL     1      11.928   6.528   7.039  0.00  0.00    +0.070 C 
ATOM     12  C   UNL     1      10.920   7.496   7.657  0.00  0.00    +0.048 C 
ATOM     13  C   UNL     1      11.582   6.554   5.556  0.00  0.00    +0.104 C 
ATOM     14  C   UNL     1       9.559   8.121   3.813  0.00  0.00    +0.123 C 
ATOM     16  C   UNL     1       9.484   8.936   6.171  0.00  0.00    +0.230 C 
ATOM     32  H   UNL     1       9.126  10.073   4.502  0.00  0.00    +0.149 HD
ENDROOT
BRANCH  11   7
ATOM      7  N   UNL     1      13.309   6.888   7.318  0.00  0.00    -0.308 NA
ATOM     33  H   UNL     1      13.471   6.832   8.324  0.00  0.00    +0.123 HD
BRANCH   7  18
ATOM     18  C   UNL     1      13.598   8.243   6.866  0.00  0.00    +0.116 C 
BRANCH  18  25
ATOM     25  C   UNL     1      14.823   8.293   5.992  0.00  0.00    -0.033 A 
ATOM     26  C   UNL     1      14.995   7.353   4.976  0.00  0.00    +0.008 A 
ATOM     27  C   UNL     1      15.786   9.281   6.198  0.00  0.00    +0.008 A 
ATOM     28  C   UNL     1      16.131   7.400   4.167  0.00  0.00    +0.046 A 
ATOM     29  C   UNL     1      16.921   9.328   5.389  0.00  0.00    +0.046 A 
ATOM     30  C   UNL     1      17.094   8.388   4.373  0.00  0.00    +0.120 A 
BRANCH  30   4
ATOM      4  O   UNL     1      18.201   8.435   3.582  0.00  0.00    -0.495 OA
ATOM     31  C   UNL     1      19.414   7.925   4.134  0.00  0.00    +0.277 C 
ENDBRANCH  30   4
ENDBRANCH  18  25
ENDBRANCH   7  18
ENDBRANCH  11   7
BRANCH  10  15
ATOM     15  C   UNL     1       9.759   5.662   3.330  0.00  0.00    +0.029 C 
BRANCH  15  17
ATOM     17  C   UNL     1      10.182   6.280   2.004  0.00  0.00    +0.097 C 
BRANCH  17  19
ATOM      2  O   UNL     1       9.747   4.501   0.500  0.00  0.00    -0.276 OA
ATOM      8  N   UNL     1      11.973   5.113   0.765  0.00  0.00    -0.301 N 
ATOM     19  C   UNL     1      10.606   5.218   1.022  0.00  0.00    +0.216 C 
ATOM     20  C   UNL     1      13.016   5.951   1.371  0.00  0.00    +0.110 C 
ATOM     21  C   UNL     1      12.458   4.136  -0.213  0.00  0.00    +0.110 C 
ATOM     22  C   UNL     1      14.100   5.088   2.010  0.00  0.00    +0.050 C 
ATOM     23  C   UNL     1      13.530   3.240   0.400  0.00  0.00    +0.050 C 
ATOM     24  C   UNL     1      14.658   4.069   1.016  0.00  0.00    +0.118 C 
BRANCH  24   3
ATOM      3  O   UNL     1      15.568   3.214   1.697  0.00  0.00    -0.392 OA
ATOM     34  H   UNL     1      16.350   3.107   1.128  0.00  0.00    +0.210 HD
ENDBRANCH  24   3
ENDBRANCH  17  19
ENDBRANCH  15  17
ENDBRANCH  10  15
TORSDOF 8
ENDMDL
MODEL 10
REMARK VINA RESULT:      -6.3     15.833     19.485
REMARK  Name = 45360775
REMARK  9 active torsions:
REMARK  status: ('A' for Active; 'I' for Inactive)
REMARK    1  A    between atoms: O_3  and  C_24
REMARK    2  A    between atoms: O_4  and  C_30
REMARK    3  A    between atoms: O_4  and  C_31
REMARK    4  A    between atoms: N_7  and  C_11
REMARK    5  A    between atoms: N_7  and  C_18
REMARK    6  A    between atoms: C_10  and  C_15
REMARK    7  A    between atoms: C_15  and  C_17
REMARK    8  A    between atoms: C_17  and  C_19
REMARK    9  A    between atoms: C_18  and  C_25
REMARK                            x       y       z     vdW  Elec       q    Type
REMARK                         _______ _______ _______ _____ _____    ______ ____
ROOT
ATOM      1  O   UNL     1      11.321   5.276  -2.029  0.00  0.00    -0.274 OA
ATOM      5  N   UNL     1      13.979   5.144   0.468  0.00  0.00    -0.286 NA
ATOM      6  N   UNL     1      12.670   6.933  -1.252  0.00  0.00    -0.313 N 
ATOM      9  C   UNL     1      13.068   4.583  -0.537  0.00  0.00    +0.145 C 
ATOM     10  C   UNL     1      14.674   6.353   0.040  0.00  0.00    +0.075 C 
ATOM     11  C   UNL     1      12.578   3.823   1.717  0.00  0.00    +0.070 C 
ATOM     12  C   UNL     1      12.130   3.664   0.265  0.00  0.00    +0.048 C 
ATOM     13  C   UNL     1      13.251   5.189   1.734  0.00  0.00    +0.104 C 
ATOM     14  C   UNL     1      13.681   7.437  -0.351  0.00  0.00    +0.123 C 
ATOM     16  C   UNL     1      12.266   5.622  -1.315  0.00  0.00    +0.230 C 
ATOM     32  H   UNL     1      12.142   7.613  -1.790  0.00  0.00    +0.149 HD
ENDROOT
BRANCH  11   7
ATOM      7  N   UNL     1      11.483   3.705   2.667  0.00  0.00    -0.308 NA
ATOM     33  H   UNL     1      11.017   2.808   2.529  0.00  0.00    +0.123 HD
BRANCH   7  18
ATOM     18  C   UNL     1      10.512   4.776   2.482  0.00  0.00    +0.116 C 
BRANCH  18  25
ATOM     25  C   UNL     1      10.040   5.339   3.796  0.00  0.00    -0.033 A 
ATOM     26  C   UNL     1      10.202   4.602   4.969  0.00  0.00    +0.008 A 
ATOM     27  C   UNL     1       9.439   6.597   3.840  0.00  0.00    +0.008 A 
ATOM     28  C   UNL     1       9.764   5.124   6.187  0.00  0.00    +0.046 A 
ATOM     29  C   UNL     1       9.002   7.118   5.058  0.00  0.00    +0.046 A 
ATOM     30  C   UNL     1       9.164   6.382   6.231  0.00  0.00    +0.120 A 
BRANCH  30   4
ATOM      4  O   UNL     1       8.738   6.891   7.419  0.00  0.00    -0.495 OA
ATOM     31  C   UNL     1       9.074   8.250   7.700  0.00  0.00    +0.277 C 
ENDBRANCH  30   4
ENDBRANCH  18  25
ENDBRANCH   7  18
ENDBRANCH  11   7
BRANCH  10  15
ATOM     15  C   UNL     1      15.666   6.868   1.083  0.00  0.00    +0.029 C 
BRANCH  15  17
ATOM     17  C   UNL     1      15.209   8.170   1.726  0.00  0.00    +0.097 C 
BRANCH  17  19
ATOM      2  O   UNL     1      17.038   8.448   3.206  0.00  0.00    -0.276 OA
ATOM      8  N   UNL     1      14.928   8.361   4.173  0.00  0.00    -0.301 N 
ATOM     19  C   UNL     1      15.814   8.340   3.097  0.00  0.00    +0.216 C 
ATOM     20  C   UNL     1      13.468   8.234   4.073  0.00  0.00    +0.110 C 
ATOM     21  C   UNL     1      15.436   8.570   5.531  0.00  0.00    +0.110 C 
ATOM     22  C   UNL     1      12.958   7.121   4.983  0.00  0.00    +0.050 C 
ATOM     23  C   UNL     1      14.963   7.461   6.466  0.00  0.00    +0.050 C 
ATOM     24  C   UNL     1      13.441   7.312   6.421  0.00  0.00    +0.118 C 
BRANCH  24   3
ATOM      3  O   UNL     1      13.044   6.185   7.192  0.00  0.00    -0.392 OA
ATOM     34  H   UNL     1      12.319   5.745   6.715  0.00  0.00    +0.210 HD
ENDBRANCH  24   3
ENDBRANCH  17  19
ENDBRANCH  15  17
ENDBRANCH  10  15
TORSDOF 8
ENDMDL
