MODEL 1
REMARK VINA RESULT:      -7.3      0.000      0.000
REMARK  Name = 7672469
REMARK  3 active torsions:
REMARK  status: ('A' for Active; 'I' for Inactive)
REMARK    1  A    between atoms: S_1  and  N_6
REMARK    2  A    between atoms: S_1  and  C_19
REMARK    3  A    between atoms: C_17  and  C_20
REMARK                            x       y       z     vdW  Elec       q    Type
REMARK                         _______ _______ _______ _____ _____    ______ ____
ROOT
ATOM      5  O   UNL     1      -6.643 -10.462  14.259  0.00  0.00    -0.267 OA
ATOM      6  N   UNL     1      -2.489 -12.987  13.170  0.00  0.00    -0.176 NA
ATOM      7  N   UNL     1      -4.317 -10.638  14.226  0.00  0.00    -0.311 N 
ATOM      8  C   UNL     1      -2.977 -10.811  12.050  0.00  0.00    +0.025 C 
ATOM      9  C   UNL     1      -1.805 -10.833  14.207  0.00  0.00    +0.052 C 
ATOM     10  C   UNL     1      -1.864 -10.144  12.847  0.00  0.00    +0.017 C 
ATOM     11  C   UNL     1      -2.684 -12.307  11.857  0.00  0.00    +0.114 C 
ATOM     12  C   UNL     1      -1.454 -12.321  14.017  0.00  0.00    +0.119 C 
ATOM     13  C   UNL     1      -4.314 -10.561  12.758  0.00  0.00    +0.130 C 
ATOM     14  C   UNL     1      -3.123 -10.692  14.948  0.00  0.00    +0.026 A 
ATOM     15  C   UNL     1      -3.142 -10.643  16.290  0.00  0.00    +0.022 A 
ATOM     16  C   UNL     1      -5.571 -10.545  14.861  0.00  0.00    +0.260 A 
ATOM     17  C   UNL     1      -5.559 -10.528  16.365  0.00  0.00    +0.053 A 
ATOM     18  C   UNL     1      -4.384 -10.563  17.007  0.00  0.00    +0.016 A 
ENDROOT
BRANCH  17  20
ATOM      2  S   UNL     1      -7.043 -11.554  18.397  0.00  0.00    -0.088 S 
ATOM     20  C   UNL     1      -6.782 -10.470  17.102  0.00  0.00    +0.026 A 
ATOM     23  C   UNL     1      -7.858  -9.624  16.926  0.00  0.00    +0.024 A 
ATOM     26  C   UNL     1      -8.920  -9.858  17.863  0.00  0.00    -0.010 A 
ATOM     27  C   UNL     1      -8.602 -10.901  18.738  0.00  0.00    +0.020 A 
ATOM     29  C   UNL     1     -10.172  -9.216  18.013  0.00  0.00    +0.009 A 
ATOM     30  C   UNL     1      -9.494 -11.313  19.747  0.00  0.00    +0.015 A 
ATOM     31  C   UNL     1     -11.060  -9.622  19.014  0.00  0.00    +0.001 A 
ATOM     32  C   UNL     1     -10.721 -10.660  19.871  0.00  0.00    +0.001 A 
ENDBRANCH  17  20
BRANCH   6   1
ATOM      1  S   UNL     1      -2.411 -14.696  13.115  0.00  0.00    +0.061 S 
ATOM      3  O   UNL     1      -1.033 -15.113  13.260  0.00  0.00    -0.153 OA
ATOM      4  O   UNL     1      -3.220 -15.168  12.011  0.00  0.00    -0.153 OA
BRANCH   1  19
ATOM     19  C   UNL     1      -3.255 -15.092  14.615  0.00  0.00    +0.105 A 
ATOM     21  C   UNL     1      -4.210 -14.218  15.106  0.00  0.00    +0.028 A 
ATOM     22  C   UNL     1      -2.947 -16.270  15.275  0.00  0.00    +0.028 A 
ATOM     24  C   UNL     1      -4.876 -14.531  16.292  0.00  0.00    +0.002 A 
ATOM     25  C   UNL     1      -3.612 -16.583  16.460  0.00  0.00    +0.002 A 
ATOM     28  C   UNL     1      -4.576 -15.712  16.969  0.00  0.00    +0.000 A 
ENDBRANCH   1  19
ENDBRANCH   6   1
TORSDOF 3
ENDMDL
MODEL 2
REMARK VINA RESULT:      -7.1     26.839     28.302
REMARK  Name = 7672469
REMARK  3 active torsions:
REMARK  status: ('A' for Active; 'I' for Inactive)
REMARK    1  A    between atoms: S_1  and  N_6
REMARK    2  A    between atoms: S_1  and  C_19
REMARK    3  A    between atoms: C_17  and  C_20
REMARK                            x       y       z     vdW  Elec       q    Type
REMARK                         _______ _______ _______ _____ _____    ______ ____
ROOT
ATOM      5  O   UNL     1      11.997   7.903   1.633  0.00  0.00    -0.267 OA
ATOM      6  N   UNL     1      13.192   3.741  -0.831  0.00  0.00    -0.176 NA
ATOM      7  N   UNL     1      12.685   5.674   1.615  0.00  0.00    -0.311 N 
ATOM      8  C   UNL     1      14.895   4.919   0.563  0.00  0.00    +0.025 C 
ATOM      9  C   UNL     1      13.409   3.261   1.599  0.00  0.00    +0.052 C 
ATOM     10  C   UNL     1      14.838   3.797   1.590  0.00  0.00    +0.017 C 
ATOM     11  C   UNL     1      14.534   4.392  -0.835  0.00  0.00    +0.114 C 
ATOM     12  C   UNL     1      13.068   2.681   0.214  0.00  0.00    +0.119 C 
ATOM     13  C   UNL     1      13.972   6.056   1.018  0.00  0.00    +0.130 C 
ATOM     14  C   UNL     1      12.420   4.350   1.973  0.00  0.00    +0.026 A 
ATOM     15  C   UNL     1      11.286   4.040   2.624  0.00  0.00    +0.022 A 
ATOM     16  C   UNL     1      11.785   6.720   1.903  0.00  0.00    +0.260 A 
ATOM     17  C   UNL     1      10.511   6.333   2.600  0.00  0.00    +0.053 A 
ATOM     18  C   UNL     1      10.316   5.050   2.939  0.00  0.00    +0.016 A 
ENDROOT
BRANCH  17  20
ATOM      2  S   UNL     1       9.297   7.820   4.523  0.00  0.00    -0.088 S 
ATOM     20  C   UNL     1       9.520   7.317   2.906  0.00  0.00    +0.026 A 
ATOM     23  C   UNL     1       8.657   7.970   2.049  0.00  0.00    +0.024 A 
ATOM     26  C   UNL     1       7.795   8.901   2.717  0.00  0.00    -0.010 A 
ATOM     27  C   UNL     1       8.041   8.921   4.094  0.00  0.00    +0.020 A 
ATOM     29  C   UNL     1       6.787   9.753   2.205  0.00  0.00    +0.009 A 
ATOM     30  C   UNL     1       7.314   9.761   4.960  0.00  0.00    +0.015 A 
ATOM     31  C   UNL     1       6.063  10.588   3.062  0.00  0.00    +0.001 A 
ATOM     32  C   UNL     1       6.326  10.589   4.424  0.00  0.00    +0.001 A 
ENDBRANCH  17  20
BRANCH   6   1
ATOM      1  S   UNL     1      12.558   3.342  -2.369  0.00  0.00    +0.061 S 
ATOM      3  O   UNL     1      12.204   1.938  -2.387  0.00  0.00    -0.153 OA
ATOM      4  O   UNL     1      13.414   3.906  -3.392  0.00  0.00    -0.153 OA
BRANCH   1  19
ATOM     19  C   UNL     1      11.060   4.276  -2.339  0.00  0.00    +0.105 A 
ATOM     21  C   UNL     1      10.799   5.103  -1.259  0.00  0.00    +0.028 A 
ATOM     22  C   UNL     1      10.171   4.165  -3.395  0.00  0.00    +0.028 A 
ATOM     24  C   UNL     1       9.614   5.840  -1.234  0.00  0.00    +0.002 A 
ATOM     25  C   UNL     1       8.987   4.902  -3.370  0.00  0.00    +0.002 A 
ATOM     28  C   UNL     1       8.709   5.739  -2.289  0.00  0.00    +0.000 A 
ENDBRANCH   1  19
ENDBRANCH   6   1
TORSDOF 3
ENDMDL
MODEL 3
REMARK VINA RESULT:      -7.1      3.959      7.486
REMARK  Name = 7672469
REMARK  3 active torsions:
REMARK  status: ('A' for Active; 'I' for Inactive)
REMARK    1  A    between atoms: S_1  and  N_6
REMARK    2  A    between atoms: S_1  and  C_19
REMARK    3  A    between atoms: C_17  and  C_20
REMARK                            x       y       z     vdW  Elec       q    Type
REMARK                         _______ _______ _______ _____ _____    ______ ____
ROOT
ATOM      5  O   UNL     1      -5.340 -12.553  10.375  0.00  0.00    -0.267 OA
ATOM      6  N   UNL     1      -3.463 -12.070  14.964  0.00  0.00    -0.176 NA
ATOM      7  N   UNL     1      -3.524 -12.280  11.813  0.00  0.00    -0.311 N 
ATOM      8  C   UNL     1      -2.864 -14.040  13.553  0.00  0.00    +0.025 C 
ATOM      9  C   UNL     1      -1.563 -11.966  13.364  0.00  0.00    +0.052 C 
ATOM     10  C   UNL     1      -1.457 -13.488  13.371  0.00  0.00    +0.017 C 
ATOM     11  C   UNL     1      -3.466 -13.559  14.883  0.00  0.00    +0.114 C 
ATOM     12  C   UNL     1      -2.113 -11.481  14.718  0.00  0.00    +0.119 C 
ATOM     13  C   UNL     1      -3.716 -13.636  12.343  0.00  0.00    +0.130 C 
ATOM     14  C   UNL     1      -2.453 -11.487  12.231  0.00  0.00    +0.026 A 
ATOM     15  C   UNL     1      -2.227 -10.296  11.651  0.00  0.00    +0.022 A 
ATOM     16  C   UNL     1      -4.405 -11.868  10.793  0.00  0.00    +0.260 A 
ATOM     17  C   UNL     1      -4.144 -10.516  10.189  0.00  0.00    +0.053 A 
ATOM     18  C   UNL     1      -3.090  -9.805  10.614  0.00  0.00    +0.016 A 
ENDROOT
BRANCH  17  20
ATOM      2  S   UNL     1      -6.233  -8.887   9.586  0.00  0.00    -0.088 S 
ATOM     20  C   UNL     1      -5.001  -9.996   9.171  0.00  0.00    +0.026 A 
ATOM     23  C   UNL     1      -4.995 -10.261   7.817  0.00  0.00    +0.024 A 
ATOM     26  C   UNL     1      -6.012  -9.549   7.097  0.00  0.00    -0.010 A 
ATOM     27  C   UNL     1      -6.773  -8.749   7.955  0.00  0.00    +0.020 A 
ATOM     29  C   UNL     1      -6.333  -9.546   5.718  0.00  0.00    +0.009 A 
ATOM     30  C   UNL     1      -7.833  -7.955   7.475  0.00  0.00    +0.015 A 
ATOM     31  C   UNL     1      -7.385  -8.760   5.238  0.00  0.00    +0.001 A 
ATOM     32  C   UNL     1      -8.125  -7.973   6.110  0.00  0.00    +0.001 A 
ENDBRANCH  17  20
BRANCH   6   1
ATOM      1  S   UNL     1      -4.336 -11.398  16.274  0.00  0.00    +0.061 S 
ATOM      3  O   UNL     1      -3.580 -10.298  16.833  0.00  0.00    -0.153 OA
ATOM      4  O   UNL     1      -4.823 -12.471  17.115  0.00  0.00    -0.153 OA
BRANCH   1  19
ATOM     19  C   UNL     1      -5.718 -10.718  15.408  0.00  0.00    +0.105 A 
ATOM     21  C   UNL     1      -6.889 -10.458  16.100  0.00  0.00    +0.028 A 
ATOM     22  C   UNL     1      -5.607 -10.458  14.053  0.00  0.00    +0.028 A 
ATOM     24  C   UNL     1      -7.981  -9.923  15.417  0.00  0.00    +0.002 A 
ATOM     25  C   UNL     1      -6.698  -9.922  13.369  0.00  0.00    +0.002 A 
ATOM     28  C   UNL     1      -7.886  -9.656  14.052  0.00  0.00    +0.000 A 
ENDBRANCH   1  19
ENDBRANCH   6   1
TORSDOF 3
ENDMDL
MODEL 4
REMARK VINA RESULT:      -7.0      3.450      8.458
REMARK  Name = 7672469
REMARK  3 active torsions:
REMARK  status: ('A' for Active; 'I' for Inactive)
REMARK    1  A    between atoms: S_1  and  N_6
REMARK    2  A    between atoms: S_1  and  C_19
REMARK    3  A    between atoms: C_17  and  C_20
REMARK                            x       y       z     vdW  Elec       q    Type
REMARK                         _______ _______ _______ _____ _____    ______ ____
ROOT
ATOM      5  O   UNL     1      -6.953 -12.633  14.644  0.00  0.00    -0.267 OA
ATOM      6  N   UNL     1      -9.974 -11.485  18.436  0.00  0.00    -0.176 NA
ATOM      7  N   UNL     1      -7.284 -12.041  16.876  0.00  0.00    -0.311 N 
ATOM      8  C   UNL     1      -8.551 -13.534  18.527  0.00  0.00    +0.025 C 
ATOM      9  C   UNL     1      -7.638 -11.382  19.282  0.00  0.00    +0.052 C 
ATOM     10  C   UNL     1      -7.667 -12.879  19.581  0.00  0.00    +0.017 C 
ATOM     11  C   UNL     1      -9.979 -12.968  18.592  0.00  0.00    +0.114 C 
ATOM     12  C   UNL     1      -9.062 -10.806  19.403  0.00  0.00    +0.119 C 
ATOM     13  C   UNL     1      -7.906 -13.344  17.149  0.00  0.00    +0.130 C 
ATOM     14  C   UNL     1      -7.076 -11.112  17.899  0.00  0.00    +0.026 A 
ATOM     15  C   UNL     1      -6.401  -9.977  17.653  0.00  0.00    +0.022 A 
ATOM     16  C   UNL     1      -6.817 -11.825  15.564  0.00  0.00    +0.260 A 
ATOM     17  C   UNL     1      -6.097 -10.528  15.315  0.00  0.00    +0.053 A 
ATOM     18  C   UNL     1      -5.908  -9.682  16.337  0.00  0.00    +0.016 A 
ENDROOT
BRANCH  17  20
ATOM      2  S   UNL     1      -4.043 -10.681  13.544  0.00  0.00    -0.088 S 
ATOM     20  C   UNL     1      -5.616 -10.202  14.010  0.00  0.00    +0.026 A 
ATOM     23  C   UNL     1      -6.257  -9.518  12.998  0.00  0.00    +0.024 A 
ATOM     26  C   UNL     1      -5.457  -9.379  11.815  0.00  0.00    -0.010 A 
ATOM     27  C   UNL     1      -4.204  -9.977  11.978  0.00  0.00    +0.020 A 
ATOM     29  C   UNL     1      -5.744  -8.753  10.578  0.00  0.00    +0.009 A 
ATOM     30  C   UNL     1      -3.243  -9.967  10.948  0.00  0.00    +0.015 A 
ATOM     31  C   UNL     1      -4.793  -8.741   9.553  0.00  0.00    +0.001 A 
ATOM     32  C   UNL     1      -3.556  -9.343   9.739  0.00  0.00    +0.001 A 
ENDBRANCH  17  20
BRANCH   6   1
ATOM      1  S   UNL     1     -11.509 -10.758  18.230  0.00  0.00    +0.061 S 
ATOM      3  O   UNL     1     -11.887 -10.093  19.459  0.00  0.00    -0.153 OA
ATOM      4  O   UNL     1     -12.399 -11.706  17.594  0.00  0.00    -0.153 OA
BRANCH   1  19
ATOM     19  C   UNL     1     -11.106  -9.512  17.045  0.00  0.00    +0.105 A 
ATOM     21  C   UNL     1     -11.821  -8.327  17.039  0.00  0.00    +0.028 A 
ATOM     22  C   UNL     1     -10.082  -9.743  16.141  0.00  0.00    +0.028 A 
ATOM     24  C   UNL     1     -11.503  -7.343  16.101  0.00  0.00    +0.002 A 
ATOM     25  C   UNL     1      -9.764  -8.760  15.204  0.00  0.00    +0.002 A 
ATOM     28  C   UNL     1     -10.476  -7.560  15.184  0.00  0.00    +0.000 A 
ENDBRANCH   1  19
ENDBRANCH   6   1
TORSDOF 3
ENDMDL
MODEL 5
REMARK VINA RESULT:      -7.0      2.978      5.265
REMARK  Name = 7672469
REMARK  3 active torsions:
REMARK  status: ('A' for Active; 'I' for Inactive)
REMARK    1  A    between atoms: S_1  and  N_6
REMARK    2  A    between atoms: S_1  and  C_19
REMARK    3  A    between atoms: C_17  and  C_20
REMARK                            x       y       z     vdW  Elec       q    Type
REMARK                         _______ _______ _______ _____ _____    ______ ____
ROOT
ATOM      5  O   UNL     1      -7.724  -8.858  17.463  0.00  0.00    -0.267 OA
ATOM      6  N   UNL     1      -4.016 -11.661  15.669  0.00  0.00    -0.176 NA
ATOM      7  N   UNL     1      -6.678 -10.928  17.203  0.00  0.00    -0.311 N 
ATOM      8  C   UNL     1      -4.343 -11.420  18.132  0.00  0.00    +0.025 C 
ATOM      9  C   UNL     1      -5.561 -13.166  16.908  0.00  0.00    +0.052 C 
ATOM     10  C   UNL     1      -4.832 -12.860  18.214  0.00  0.00    +0.017 C 
ATOM     11  C   UNL     1      -3.377 -11.243  16.950  0.00  0.00    +0.114 C 
ATOM     12  C   UNL     1      -4.577 -13.044  15.729  0.00  0.00    +0.119 C 
ATOM     13  C   UNL     1      -5.556 -10.487  18.043  0.00  0.00    +0.130 C 
ATOM     14  C   UNL     1      -6.741 -12.233  16.709  0.00  0.00    +0.026 A 
ATOM     15  C   UNL     1      -7.829 -12.651  16.042  0.00  0.00    +0.022 A 
ATOM     16  C   UNL     1      -7.728 -10.006  17.015  0.00  0.00    +0.260 A 
ATOM     17  C   UNL     1      -8.916 -10.496  16.234  0.00  0.00    +0.053 A 
ATOM     18  C   UNL     1      -8.932 -11.764  15.800  0.00  0.00    +0.016 A 
ENDROOT
BRANCH  17  20
ATOM      2  S   UNL     1     -11.366  -9.615  17.009  0.00  0.00    -0.088 S 
ATOM     20  C   UNL     1     -10.017  -9.627  15.961  0.00  0.00    +0.026 A 
ATOM     23  C   UNL     1     -10.177  -8.735  14.920  0.00  0.00    +0.024 A 
ATOM     26  C   UNL     1     -11.422  -8.024  14.972  0.00  0.00    -0.010 A 
ATOM     27  C   UNL     1     -12.182  -8.414  16.079  0.00  0.00    +0.020 A 
ATOM     29  C   UNL     1     -11.958  -7.041  14.105  0.00  0.00    +0.009 A 
ATOM     30  C   UNL     1     -13.447  -7.851  16.339  0.00  0.00    +0.015 A 
ATOM     31  C   UNL     1     -13.213  -6.481  14.360  0.00  0.00    +0.001 A 
ATOM     32  C   UNL     1     -13.947  -6.883  15.467  0.00  0.00    +0.001 A 
ENDBRANCH  17  20
BRANCH   6   1
ATOM      1  S   UNL     1      -3.147 -11.276  14.247  0.00  0.00    +0.061 S 
ATOM      3  O   UNL     1      -2.809 -12.500  13.551  0.00  0.00    -0.153 OA
ATOM      4  O   UNL     1      -2.129 -10.297  14.568  0.00  0.00    -0.153 OA
BRANCH   1  19
ATOM     19  C   UNL     1      -4.412 -10.461  13.322  0.00  0.00    +0.105 A 
ATOM     21  C   UNL     1      -4.165 -10.105  12.007  0.00  0.00    +0.028 A 
ATOM     22  C   UNL     1      -5.627 -10.191  13.928  0.00  0.00    +0.028 A 
ATOM     24  C   UNL     1      -5.164  -9.460  11.276  0.00  0.00    +0.002 A 
ATOM     25  C   UNL     1      -6.625  -9.547  13.198  0.00  0.00    +0.002 A 
ATOM     28  C   UNL     1      -6.393  -9.180  11.872  0.00  0.00    +0.000 A 
ENDBRANCH   1  19
ENDBRANCH   6   1
TORSDOF 3
ENDMDL
MODEL 6
REMARK VINA RESULT:      -6.9     25.672     28.833
REMARK  Name = 7672469
REMARK  3 active torsions:
REMARK  status: ('A' for Active; 'I' for Inactive)
REMARK    1  A    between atoms: S_1  and  N_6
REMARK    2  A    between atoms: S_1  and  C_19
REMARK    3  A    between atoms: C_17  and  C_20
REMARK                            x       y       z     vdW  Elec       q    Type
REMARK                         _______ _______ _______ _____ _____    ______ ____
ROOT
ATOM      5  O   UNL     1      10.397   7.039   1.257  0.00  0.00    -0.267 OA
ATOM      6  N   UNL     1      11.393   7.129   6.137  0.00  0.00    -0.176 NA
ATOM      7  N   UNL     1      10.041   6.247   3.422  0.00  0.00    -0.311 N 
ATOM      8  C   UNL     1       9.119   7.726   5.299  0.00  0.00    +0.025 C 
ATOM      9  C   UNL     1       9.669   5.377   5.757  0.00  0.00    +0.052 C 
ATOM     10  C   UNL     1       8.564   6.424   5.861  0.00  0.00    +0.017 C 
ATOM     11  C   UNL     1      10.342   8.186   6.108  0.00  0.00    +0.114 C 
ATOM     12  C   UNL     1      10.873   5.812   6.614  0.00  0.00    +0.119 C 
ATOM     13  C   UNL     1       9.439   7.529   3.812  0.00  0.00    +0.130 C 
ATOM     14  C   UNL     1      10.095   5.174   4.315  0.00  0.00    +0.026 A 
ATOM     15  C   UNL     1      10.543   3.976   3.904  0.00  0.00    +0.022 A 
ATOM     16  C   UNL     1      10.459   6.126   2.082  0.00  0.00    +0.260 A 
ATOM     17  C   UNL     1      10.987   4.781   1.665  0.00  0.00    +0.053 A 
ATOM     18  C   UNL     1      10.998   3.780   2.556  0.00  0.00    +0.016 A 
ENDROOT
BRANCH  17  20
ATOM      2  S   UNL     1      13.127   4.772  -0.009  0.00  0.00    -0.088 S 
ATOM     20  C   UNL     1      11.466   4.568   0.335  0.00  0.00    +0.026 A 
ATOM     23  C   UNL     1      10.758   4.198  -0.790  0.00  0.00    +0.024 A 
ATOM     26  C   UNL     1      11.580   4.076  -1.960  0.00  0.00    -0.010 A 
ATOM     27  C   UNL     1      12.917   4.367  -1.672  0.00  0.00    +0.020 A 
ATOM     29  C   UNL     1      11.242   3.724  -3.289  0.00  0.00    +0.009 A 
ATOM     30  C   UNL     1      13.913   4.314  -2.667  0.00  0.00    +0.015 A 
ATOM     31  C   UNL     1      12.228   3.671  -4.279  0.00  0.00    +0.001 A 
ATOM     32  C   UNL     1      13.549   3.964  -3.968  0.00  0.00    +0.001 A 
ENDBRANCH  17  20
BRANCH   6   1
ATOM      1  S   UNL     1      12.905   7.605   6.782  0.00  0.00    +0.061 S 
ATOM      3  O   UNL     1      13.375   6.582   7.693  0.00  0.00    -0.153 OA
ATOM      4  O   UNL     1      12.825   8.990   7.196  0.00  0.00    -0.153 OA
BRANCH   1  19
ATOM     19  C   UNL     1      13.900   7.529   5.325  0.00  0.00    +0.105 A 
ATOM     21  C   UNL     1      13.303   7.233   4.112  0.00  0.00    +0.028 A 
ATOM     22  C   UNL     1      15.261   7.767   5.422  0.00  0.00    +0.028 A 
ATOM     24  C   UNL     1      14.089   7.172   2.961  0.00  0.00    +0.002 A 
ATOM     25  C   UNL     1      16.047   7.706   4.272  0.00  0.00    +0.002 A 
ATOM     28  C   UNL     1      15.461   7.408   3.041  0.00  0.00    +0.000 A 
ENDBRANCH   1  19
ENDBRANCH   6   1
TORSDOF 3
ENDMDL
MODEL 7
REMARK VINA RESULT:      -6.8     30.231     31.774
REMARK  Name = 7672469
REMARK  3 active torsions:
REMARK  status: ('A' for Active; 'I' for Inactive)
REMARK    1  A    between atoms: S_1  and  N_6
REMARK    2  A    between atoms: S_1  and  C_19
REMARK    3  A    between atoms: C_17  and  C_20
REMARK                            x       y       z     vdW  Elec       q    Type
REMARK                         _______ _______ _______ _____ _____    ______ ____
ROOT
ATOM      5  O   UNL     1      -2.188  11.452  38.855  0.00  0.00    -0.267 OA
ATOM      6  N   UNL     1      -3.475  13.499  34.499  0.00  0.00    -0.176 NA
ATOM      7  N   UNL     1      -1.614  12.453  36.827  0.00  0.00    -0.311 N 
ATOM      8  C   UNL     1      -2.290  14.851  36.231  0.00  0.00    +0.025 C 
ATOM      9  C   UNL     1      -0.992  13.517  34.630  0.00  0.00    +0.052 C 
ATOM     10  C   UNL     1      -1.028  14.845  35.379  0.00  0.00    +0.017 C 
ATOM     11  C   UNL     1      -3.540  14.725  35.346  0.00  0.00    +0.114 C 
ATOM     12  C   UNL     1      -2.216  13.417  33.700  0.00  0.00    +0.119 C 
ATOM     13  C   UNL     1      -2.192  13.729  37.272  0.00  0.00    +0.130 C 
ATOM     14  C   UNL     1      -0.966  12.346  35.595  0.00  0.00    +0.026 A 
ATOM     15  C   UNL     1      -0.342  11.204  35.257  0.00  0.00    +0.022 A 
ATOM     16  C   UNL     1      -1.654  11.386  37.746  0.00  0.00    +0.260 A 
ATOM     17  C   UNL     1      -0.977  10.112  37.322  0.00  0.00    +0.053 A 
ATOM     18  C   UNL     1      -0.353  10.070  36.136  0.00  0.00    +0.016 A 
ENDROOT
BRANCH  17  20
ATOM      2  S   UNL     1      -2.202   7.774  37.965  0.00  0.00    -0.088 S 
ATOM     20  C   UNL     1      -0.992   8.962  38.170  0.00  0.00    +0.026 A 
ATOM     23  C   UNL     1      -0.129   8.634  39.196  0.00  0.00    +0.024 A 
ATOM     26  C   UNL     1      -0.456   7.389  39.832  0.00  0.00    -0.010 A 
ATOM     27  C   UNL     1      -1.584   6.804  39.249  0.00  0.00    +0.020 A 
ATOM     29  C   UNL     1       0.171   6.712  40.906  0.00  0.00    +0.009 A 
ATOM     30  C   UNL     1      -2.095   5.574  39.708  0.00  0.00    +0.015 A 
ATOM     31  C   UNL     1      -0.334   5.492  41.364  0.00  0.00    +0.001 A 
ATOM     32  C   UNL     1      -1.455   4.931  40.768  0.00  0.00    +0.001 A 
ENDBRANCH  17  20
BRANCH   6   1
ATOM      1  S   UNL     1      -4.912  13.102  33.660  0.00  0.00    +0.061 S 
ATOM      3  O   UNL     1      -4.569  12.543  32.370  0.00  0.00    -0.153 OA
ATOM      4  O   UNL     1      -5.842  14.207  33.768  0.00  0.00    -0.153 OA
BRANCH   1  19
ATOM     19  C   UNL     1      -5.511  11.788  34.676  0.00  0.00    +0.105 A 
ATOM     21  C   UNL     1      -4.611  11.040  35.416  0.00  0.00    +0.028 A 
ATOM     22  C   UNL     1      -6.871  11.527  34.714  0.00  0.00    +0.028 A 
ATOM     24  C   UNL     1      -5.084  10.000  36.218  0.00  0.00    +0.002 A 
ATOM     25  C   UNL     1      -7.344  10.488  35.515  0.00  0.00    +0.002 A 
ATOM     28  C   UNL     1      -6.450   9.724  36.267  0.00  0.00    +0.000 A 
ENDBRANCH   1  19
ENDBRANCH   6   1
TORSDOF 3
ENDMDL
MODEL 8
REMARK VINA RESULT:      -6.7     21.630     23.515
REMARK  Name = 7672469
REMARK  3 active torsions:
REMARK  status: ('A' for Active; 'I' for Inactive)
REMARK    1  A    between atoms: S_1  and  N_6
REMARK    2  A    between atoms: S_1  and  C_19
REMARK    3  A    between atoms: C_17  and  C_20
REMARK                            x       y       z     vdW  Elec       q    Type
REMARK                         _______ _______ _______ _____ _____    ______ ____
ROOT
ATOM      5  O   UNL     1       9.308  -9.582  33.118  0.00  0.00    -0.267 OA
ATOM      6  N   UNL     1       8.313  -5.872  36.291  0.00  0.00    -0.176 NA
ATOM      7  N   UNL     1       8.687  -7.372  33.537  0.00  0.00    -0.311 N 
ATOM      8  C   UNL     1      10.236  -5.702  34.708  0.00  0.00    +0.025 C 
ATOM      9  C   UNL     1       7.999  -4.991  33.988  0.00  0.00    +0.052 C 
ATOM     10  C   UNL     1       9.484  -4.653  33.900  0.00  0.00    +0.017 C 
ATOM     11  C   UNL     1       9.787  -5.676  36.178  0.00  0.00    +0.114 C 
ATOM     12  C   UNL     1       7.537  -4.908  35.455  0.00  0.00    +0.119 C 
ATOM     13  C   UNL     1      10.029  -7.074  34.056  0.00  0.00    +0.130 C 
ATOM     14  C   UNL     1       7.719  -6.371  33.423  0.00  0.00    +0.026 A 
ATOM     15  C   UNL     1       6.539  -6.637  32.839  0.00  0.00    +0.022 A 
ATOM     16  C   UNL     1       8.468  -8.682  33.065  0.00  0.00    +0.260 A 
ATOM     17  C   UNL     1       7.124  -8.954  32.448  0.00  0.00    +0.053 A 
ATOM     18  C   UNL     1       6.239  -7.952  32.347  0.00  0.00    +0.016 A 
ENDROOT
BRANCH  17  20
ATOM      2  S   UNL     1       6.177 -11.427  33.055  0.00  0.00    -0.088 S 
ATOM     20  C   UNL     1       6.793 -10.259  31.970  0.00  0.00    +0.026 A 
ATOM     23  C   UNL     1       6.896 -10.763  30.690  0.00  0.00    +0.024 A 
ATOM     26  C   UNL     1       6.466 -12.128  30.583  0.00  0.00    -0.010 A 
ATOM     27  C   UNL     1       6.042 -12.623  31.820  0.00  0.00    +0.020 A 
ATOM     29  C   UNL     1       6.417 -12.993  29.464  0.00  0.00    +0.009 A 
ATOM     30  C   UNL     1       5.574 -13.944  31.964  0.00  0.00    +0.015 A 
ATOM     31  C   UNL     1       5.953 -14.304  29.602  0.00  0.00    +0.001 A 
ATOM     32  C   UNL     1       5.537 -14.772  30.841  0.00  0.00    +0.001 A 
ENDBRANCH  17  20
BRANCH   6   1
ATOM      1  S   UNL     1       7.719  -6.122  37.876  0.00  0.00    +0.061 S 
ATOM      3  O   UNL     1       7.209  -4.870  38.395  0.00  0.00    -0.153 OA
ATOM      4  O   UNL     1       8.684  -6.899  38.625  0.00  0.00    -0.153 OA
BRANCH   1  19
ATOM     19  C   UNL     1       6.336  -7.164  37.528  0.00  0.00    +0.105 A 
ATOM     21  C   UNL     1       6.414  -8.063  36.478  0.00  0.00    +0.028 A 
ATOM     22  C   UNL     1       5.198  -7.064  38.310  0.00  0.00    +0.028 A 
ATOM     24  C   UNL     1       5.321  -8.886  36.201  0.00  0.00    +0.002 A 
ATOM     25  C   UNL     1       4.106  -7.886  38.034  0.00  0.00    +0.002 A 
ATOM     28  C   UNL     1       4.168  -8.797  36.979  0.00  0.00    +0.000 A 
ENDBRANCH   1  19
ENDBRANCH   6   1
TORSDOF 3
ENDMDL
MODEL 9
REMARK VINA RESULT:      -6.6      5.004     10.289
REMARK  Name = 7672469
REMARK  3 active torsions:
REMARK  status: ('A' for Active; 'I' for Inactive)
REMARK    1  A    between atoms: S_1  and  N_6
REMARK    2  A    between atoms: S_1  and  C_19
REMARK    3  A    between atoms: C_17  and  C_20
REMARK                            x       y       z     vdW  Elec       q    Type
REMARK                         _______ _______ _______ _____ _____    ______ ____
ROOT
ATOM      5  O   UNL     1     -10.607 -12.175  16.752  0.00  0.00    -0.267 OA
ATOM      6  N   UNL     1     -14.669  -9.306  17.055  0.00  0.00    -0.176 NA
ATOM      7  N   UNL     1     -12.438 -11.357  17.945  0.00  0.00    -0.311 N 
ATOM      8  C   UNL     1     -14.858 -11.789  17.226  0.00  0.00    +0.025 C 
ATOM      9  C   UNL     1     -14.403 -10.461  19.241  0.00  0.00    +0.052 C 
ATOM     10  C   UNL     1     -15.173 -11.668  18.711  0.00  0.00    +0.017 C 
ATOM     11  C   UNL     1     -15.303 -10.524  16.474  0.00  0.00    +0.114 C 
ATOM     12  C   UNL     1     -14.891  -9.186  18.527  0.00  0.00    +0.119 C 
ATOM     13  C   UNL     1     -13.361 -12.076  17.057  0.00  0.00    +0.130 C 
ATOM     14  C   UNL     1     -12.909 -10.637  19.045  0.00  0.00    +0.026 A 
ATOM     15  C   UNL     1     -12.043 -10.084  19.911  0.00  0.00    +0.022 A 
ATOM     16  C   UNL     1     -11.061 -11.520  17.693  0.00  0.00    +0.260 A 
ATOM     17  C   UNL     1     -10.120 -10.859  18.661  0.00  0.00    +0.053 A 
ATOM     18  C   UNL     1     -10.626 -10.197  19.711  0.00  0.00    +0.016 A 
ENDROOT
BRANCH  17  20
ATOM      2  S   UNL     1      -7.783 -12.013  19.429  0.00  0.00    -0.088 S 
ATOM     20  C   UNL     1      -8.706 -10.939  18.472  0.00  0.00    +0.026 A 
ATOM     23  C   UNL     1      -7.912 -10.243  17.583  0.00  0.00    +0.024 A 
ATOM     26  C   UNL     1      -6.523 -10.588  17.678  0.00  0.00    -0.010 A 
ATOM     27  C   UNL     1      -6.307 -11.558  18.661  0.00  0.00    +0.020 A 
ATOM     29  C   UNL     1      -5.404 -10.108  16.955  0.00  0.00    +0.009 A 
ATOM     30  C   UNL     1      -5.018 -12.055  18.936  0.00  0.00    +0.015 A 
ATOM     31  C   UNL     1      -4.123 -10.599  17.225  0.00  0.00    +0.001 A 
ATOM     32  C   UNL     1      -3.935 -11.562  18.206  0.00  0.00    +0.001 A 
ENDBRANCH  17  20
BRANCH   6   1
ATOM      1  S   UNL     1     -14.874  -7.864  16.156  0.00  0.00    +0.061 S 
ATOM      3  O   UNL     1     -15.558  -6.887  16.976  0.00  0.00    -0.153 OA
ATOM      4  O   UNL     1     -15.360  -8.199  14.834  0.00  0.00    -0.153 OA
BRANCH   1  19
ATOM     19  C   UNL     1     -13.190  -7.354  16.001  0.00  0.00    +0.105 A 
ATOM     21  C   UNL     1     -12.196  -8.109  16.601  0.00  0.00    +0.028 A 
ATOM     22  C   UNL     1     -12.892  -6.207  15.284  0.00  0.00    +0.028 A 
ATOM     24  C   UNL     1     -10.865  -7.705  16.480  0.00  0.00    +0.002 A 
ATOM     25  C   UNL     1     -11.563  -5.804  15.163  0.00  0.00    +0.002 A 
ATOM     28  C   UNL     1     -10.550  -6.553  15.762  0.00  0.00    +0.000 A 
ENDBRANCH   1  19
ENDBRANCH   6   1
TORSDOF 3
ENDMDL
MODEL 10
REMARK VINA RESULT:      -6.6     20.124     22.066
REMARK  Name = 7672469
REMARK  3 active torsions:
REMARK  status: ('A' for Active; 'I' for Inactive)
REMARK    1  A    between atoms: S_1  and  N_6
REMARK    2  A    between atoms: S_1  and  C_19
REMARK    3  A    between atoms: C_17  and  C_20
REMARK                            x       y       z     vdW  Elec       q    Type
REMARK                         _______ _______ _______ _____ _____    ______ ____
ROOT
ATOM      5  O   UNL     1       9.075 -11.619  32.107  0.00  0.00    -0.267 OA
ATOM      6  N   UNL     1       7.624  -8.207  35.435  0.00  0.00    -0.176 NA
ATOM      7  N   UNL     1       8.629  -9.405  32.690  0.00  0.00    -0.311 N 
ATOM      8  C   UNL     1       9.941  -8.164  34.506  0.00  0.00    +0.025 C 
ATOM      9  C   UNL     1       8.129  -7.015  33.312  0.00  0.00    +0.052 C 
ATOM     10  C   UNL     1       9.601  -6.916  33.702  0.00  0.00    +0.017 C 
ATOM     11  C   UNL     1       9.076  -8.243  35.774  0.00  0.00    +0.114 C 
ATOM     12  C   UNL     1       7.259  -7.036  34.583  0.00  0.00    +0.119 C 
ATOM     13  C   UNL     1       9.777  -9.395  33.607  0.00  0.00    +0.130 C 
ATOM     14  C   UNL     1       7.868  -8.253  32.474  0.00  0.00    +0.026 A 
ATOM     15  C   UNL     1       6.897  -8.250  31.546  0.00  0.00    +0.022 A 
ATOM     16  C   UNL     1       8.405 -10.594  31.967  0.00  0.00    +0.260 A 
ATOM     17  C   UNL     1       7.288 -10.566  30.962  0.00  0.00    +0.053 A 
ATOM     18  C   UNL     1       6.603  -9.429  30.781  0.00  0.00    +0.016 A 
ENDROOT
BRANCH  17  20
ATOM      2  S   UNL     1       7.992 -12.235  28.937  0.00  0.00    -0.088 S 
ATOM     20  C   UNL     1       6.962 -11.733  30.204  0.00  0.00    +0.026 A 
ATOM     23  C   UNL     1       5.878 -12.576  30.339  0.00  0.00    +0.024 A 
ATOM     26  C   UNL     1       5.881 -13.656  29.393  0.00  0.00    -0.010 A 
ATOM     27  C   UNL     1       6.997 -13.590  28.553  0.00  0.00    +0.020 A 
ATOM     29  C   UNL     1       4.963 -14.716  29.204  0.00  0.00    +0.009 A 
ATOM     30  C   UNL     1       7.215 -14.546  27.542  0.00  0.00    +0.015 A 
ATOM     31  C   UNL     1       5.176 -15.667  28.201  0.00  0.00    +0.001 A 
ATOM     32  C   UNL     1       6.292 -15.580  27.381  0.00  0.00    +0.001 A 
ENDBRANCH  17  20
BRANCH   6   1
ATOM      1  S   UNL     1       6.553  -8.546  36.726  0.00  0.00    +0.061 S 
ATOM      3  O   UNL     1       5.809  -7.348  37.051  0.00  0.00    -0.153 OA
ATOM      4  O   UNL     1       7.267  -9.280  37.749  0.00  0.00    -0.153 OA
BRANCH   1  19
ATOM     19  C   UNL     1       5.448  -9.667  35.925  0.00  0.00    +0.105 A 
ATOM     21  C   UNL     1       4.114  -9.683  36.297  0.00  0.00    +0.028 A 
ATOM     22  C   UNL     1       5.933 -10.510  34.940  0.00  0.00    +0.028 A 
ATOM     24  C   UNL     1       3.240 -10.569  35.665  0.00  0.00    +0.002 A 
ATOM     25  C   UNL     1       5.061 -11.396  34.309  0.00  0.00    +0.002 A 
ATOM     28  C   UNL     1       3.714 -11.426  34.672  0.00  0.00    +0.000 A 
ENDBRANCH   1  19
ENDBRANCH   6   1
TORSDOF 3
ENDMDL
