MODEL 1
REMARK VINA RESULT:      -7.7      0.000      0.000
REMARK  Name = 40777187
REMARK  5 active torsions:
REMARK  status: ('A' for Active; 'I' for Inactive)
REMARK    1  A    between atoms: N_3  and  C_13
REMARK    2  A    between atoms: N_4  and  C_14
REMARK    3  A    between atoms: N_5  and  C_24
REMARK    4  A    between atoms: C_7  and  C_13
REMARK    5  A    between atoms: C_8  and  C_14
REMARK                            x       y       z     vdW  Elec       q    Type
REMARK                         _______ _______ _______ _____ _____    ______ ____
ROOT
ATOM      2  N   UNL     1      11.603   7.359  19.951  0.00  0.00    -0.298 NA
ATOM      6  C   UNL     1      13.330   8.978  21.030  0.00  0.00    -0.002 C 
ATOM      7  C   UNL     1      11.889   9.348  21.450  0.00  0.00    +0.023 C 
ATOM      8  C   UNL     1      12.498   7.922  18.903  0.00  0.00    +0.074 C 
ATOM      9  C   UNL     1      13.434   8.999  19.494  0.00  0.00    +0.024 C 
ATOM     10  C   UNL     1      10.902   8.450  20.669  0.00  0.00    +0.090 C 
ATOM     11  C   UNL     1      13.569   7.525  21.483  0.00  0.00    +0.019 C 
ATOM     12  C   UNL     1      12.447   6.630  20.928  0.00  0.00    +0.085 C 
ENDROOT
BRANCH   7  13
ATOM     13  C   UNL     1      11.569  10.830  21.264  0.00  0.00    +0.110 C 
BRANCH  13   3
ATOM      3  N   UNL     1      11.446  11.466  22.552  0.00  0.00    -0.329 N 
ATOM     15  C   UNL     1      11.263  10.709  23.788  0.00  0.00    +0.110 C 
ATOM     16  C   UNL     1      10.874  12.714  22.751  0.00  0.00    +0.033 A 
ATOM     17  C   UNL     1      11.000  11.741  24.902  0.00  0.00    +0.056 C 
ATOM     18  C   UNL     1      10.577  12.932  24.104  0.00  0.00    -0.025 A 
ATOM     19  C   UNL     1      10.598  13.703  21.819  0.00  0.00    +0.023 A 
ATOM     21  C   UNL     1      10.017  14.115  24.552  0.00  0.00    +0.005 A 
ATOM     22  C   UNL     1      10.022  14.901  22.256  0.00  0.00    +0.002 A 
ATOM     23  C   UNL     1       9.734  15.105  23.613  0.00  0.00    +0.000 A 
ENDBRANCH  13   3
ENDBRANCH   7  13
BRANCH   8  14
ATOM     14  C   UNL     1      11.721   8.446  17.692  0.00  0.00    +0.124 C 
BRANCH  14   4
ATOM      1  O   UNL     1      13.061   8.821  15.188  0.00  0.00    -0.253 OA
ATOM      4  N   UNL     1      12.330   9.658  17.216  0.00  0.00    -0.298 N 
ATOM      5  N   UNL     1      13.465  11.055  15.782  0.00  0.00    -0.269 N 
ATOM     20  C   UNL     1      12.970   9.762  15.973  0.00  0.00    +0.304 C 
ATOM     30  H   UNL     1      12.296  10.479  17.813  0.00  0.00    +0.150 HD
ATOM     31  H   UNL     1      13.304  11.721  16.536  0.00  0.00    +0.156 HD
BRANCH   5  24
ATOM     24  C   UNL     1      14.168  11.561  14.664  0.00  0.00    +0.035 A 
ATOM     25  C   UNL     1      15.542  11.353  14.553  0.00  0.00    +0.023 A 
ATOM     26  C   UNL     1      13.487  12.268  13.674  0.00  0.00    +0.023 A 
ATOM     27  C   UNL     1      16.236  11.852  13.450  0.00  0.00    +0.002 A 
ATOM     28  C   UNL     1      14.180  12.767  12.572  0.00  0.00    +0.002 A 
ATOM     29  C   UNL     1      15.555  12.558  12.459  0.00  0.00    +0.000 A 
ENDBRANCH   5  24
ENDBRANCH  14   4
ENDBRANCH   8  14
TORSDOF 5
ENDMDL
MODEL 2
REMARK VINA RESULT:      -7.4     27.816     29.959
REMARK  Name = 40777187
REMARK  5 active torsions:
REMARK  status: ('A' for Active; 'I' for Inactive)
REMARK    1  A    between atoms: N_3  and  C_13
REMARK    2  A    between atoms: N_4  and  C_14
REMARK    3  A    between atoms: N_5  and  C_24
REMARK    4  A    between atoms: C_7  and  C_13
REMARK    5  A    between atoms: C_8  and  C_14
REMARK                            x       y       z     vdW  Elec       q    Type
REMARK                         _______ _______ _______ _____ _____    ______ ____
ROOT
ATOM      2  N   UNL     1     -11.647  -8.929  17.037  0.00  0.00    -0.298 NA
ATOM      6  C   UNL     1      -9.660  -9.880  15.654  0.00  0.00    -0.002 C 
ATOM      7  C   UNL     1      -9.310  -9.829  17.159  0.00  0.00    +0.023 C 
ATOM      8  C   UNL     1     -11.317  -8.005  15.919  0.00  0.00    +0.074 C 
ATOM      9  C   UNL     1     -10.047  -8.470  15.172  0.00  0.00    +0.024 C 
ATOM     10  C   UNL     1     -10.464  -9.125  17.909  0.00  0.00    +0.090 C 
ATOM     11  C   UNL     1     -10.911 -10.768  15.515  0.00  0.00    +0.019 C 
ATOM     12  C   UNL     1     -12.013 -10.242  16.452  0.00  0.00    +0.085 C 
ENDROOT
BRANCH   7  13
ATOM     13  C   UNL     1      -7.966  -9.163  17.443  0.00  0.00    +0.110 C 
BRANCH  13   3
ATOM      3  N   UNL     1      -7.039 -10.138  17.962  0.00  0.00    -0.329 N 
ATOM     15  C   UNL     1      -6.956 -10.462  19.385  0.00  0.00    +0.110 C 
ATOM     16  C   UNL     1      -5.792 -10.396  17.413  0.00  0.00    +0.033 A 
ATOM     17  C   UNL     1      -5.745 -11.401  19.552  0.00  0.00    +0.056 C 
ATOM     18  C   UNL     1      -4.982 -11.120  18.298  0.00  0.00    -0.025 A 
ATOM     19  C   UNL     1      -5.304 -10.048  16.163  0.00  0.00    +0.023 A 
ATOM     21  C   UNL     1      -3.697 -11.513  17.966  0.00  0.00    +0.005 A 
ATOM     22  C   UNL     1      -4.003 -10.428  15.815  0.00  0.00    +0.002 A 
ATOM     23  C   UNL     1      -3.206 -11.156  16.711  0.00  0.00    +0.000 A 
ENDBRANCH  13   3
ENDBRANCH   7  13
BRANCH   8  14
ATOM     14  C   UNL     1     -11.205  -6.549  16.378  0.00  0.00    +0.124 C 
BRANCH  14   4
ATOM      1  O   UNL     1     -13.426  -5.876  14.698  0.00  0.00    -0.253 OA
ATOM      4  N   UNL     1     -11.184  -5.682  15.231  0.00  0.00    -0.298 N 
ATOM      5  N   UNL     1     -11.996  -4.530  13.412  0.00  0.00    -0.269 N 
ATOM     20  C   UNL     1     -12.319  -5.400  14.457  0.00  0.00    +0.304 C 
ATOM     30  H   UNL     1     -10.302  -5.253  14.970  0.00  0.00    +0.150 HD
ATOM     31  H   UNL     1     -11.025  -4.228  13.353  0.00  0.00    +0.156 HD
BRANCH   5  24
ATOM     24  C   UNL     1     -12.856  -4.010  12.417  0.00  0.00    +0.035 A 
ATOM     25  C   UNL     1     -14.113  -3.519  12.769  0.00  0.00    +0.023 A 
ATOM     26  C   UNL     1     -12.447  -3.991  11.083  0.00  0.00    +0.023 A 
ATOM     27  C   UNL     1     -14.961  -3.007  11.786  0.00  0.00    +0.002 A 
ATOM     28  C   UNL     1     -13.295  -3.479  10.102  0.00  0.00    +0.002 A 
ATOM     29  C   UNL     1     -14.553  -2.987  10.454  0.00  0.00    +0.000 A 
ENDBRANCH   5  24
ENDBRANCH  14   4
ENDBRANCH   8  14
TORSDOF 5
ENDMDL
MODEL 3
REMARK VINA RESULT:      -7.3     28.283     30.626
REMARK  Name = 40777187
REMARK  5 active torsions:
REMARK  status: ('A' for Active; 'I' for Inactive)
REMARK    1  A    between atoms: N_3  and  C_13
REMARK    2  A    between atoms: N_4  and  C_14
REMARK    3  A    between atoms: N_5  and  C_24
REMARK    4  A    between atoms: C_7  and  C_13
REMARK    5  A    between atoms: C_8  and  C_14
REMARK                            x       y       z     vdW  Elec       q    Type
REMARK                         _______ _______ _______ _____ _____    ______ ____
ROOT
ATOM      2  N   UNL     1     -12.482  -8.622  14.571  0.00  0.00    -0.298 NA
ATOM      6  C   UNL     1     -12.846  -6.328  15.742  0.00  0.00    -0.002 C 
ATOM      7  C   UNL     1     -13.005  -6.196  14.210  0.00  0.00    +0.023 C 
ATOM      8  C   UNL     1     -11.336  -8.322  15.471  0.00  0.00    +0.074 C 
ATOM      9  C   UNL     1     -11.454  -6.900  16.064  0.00  0.00    +0.024 C 
ATOM     10  C   UNL     1     -12.636  -7.548  13.559  0.00  0.00    +0.090 C 
ATOM     11  C   UNL     1     -13.885  -7.364  16.211  0.00  0.00    +0.019 C 
ATOM     12  C   UNL     1     -13.713  -8.658  15.396  0.00  0.00    +0.085 C 
ENDROOT
BRANCH   7  13
ATOM     13  C   UNL     1     -12.192  -5.046  13.618  0.00  0.00    +0.110 C 
BRANCH  13   3
ATOM      3  N   UNL     1     -13.061  -4.167  12.876  0.00  0.00    -0.329 N 
ATOM     15  C   UNL     1     -14.464  -3.966  13.233  0.00  0.00    +0.110 C 
ATOM     16  C   UNL     1     -12.950  -3.930  11.514  0.00  0.00    +0.033 A 
ATOM     17  C   UNL     1     -15.085  -3.109  12.112  0.00  0.00    +0.056 C 
ATOM     18  C   UNL     1     -14.106  -3.324  11.003  0.00  0.00    -0.025 A 
ATOM     19  C   UNL     1     -11.884  -4.199  10.669  0.00  0.00    +0.023 A 
ATOM     21  C   UNL     1     -14.224  -2.973   9.670  0.00  0.00    +0.005 A 
ATOM     22  C   UNL     1     -11.992  -3.859   9.316  0.00  0.00    +0.002 A 
ATOM     23  C   UNL     1     -13.154  -3.250   8.821  0.00  0.00    +0.000 A 
ENDBRANCH  13   3
ENDBRANCH   7  13
BRANCH   8  14
ATOM     14  C   UNL     1      -9.984  -8.542  14.788  0.00  0.00    +0.124 C 
BRANCH  14   4
ATOM      1  O   UNL     1      -8.482 -10.764  15.793  0.00  0.00    -0.253 OA
ATOM      4  N   UNL     1      -8.935  -8.497  15.769  0.00  0.00    -0.298 N 
ATOM      5  N   UNL     1      -7.282  -9.284  17.164  0.00  0.00    -0.269 N 
ATOM     20  C   UNL     1      -8.243  -9.634  16.211  0.00  0.00    +0.304 C 
ATOM     30  H   UNL     1      -8.683  -7.595  16.161  0.00  0.00    +0.150 HD
ATOM     31  H   UNL     1      -7.213  -8.297  17.401  0.00  0.00    +0.156 HD
BRANCH   5  24
ATOM     24  C   UNL     1      -6.385 -10.138  17.847  0.00  0.00    +0.035 A 
ATOM     25  C   UNL     1      -5.196 -10.532  17.236  0.00  0.00    +0.023 A 
ATOM     26  C   UNL     1      -6.692 -10.587  19.132  0.00  0.00    +0.023 A 
ATOM     27  C   UNL     1      -4.312 -11.375  17.910  0.00  0.00    +0.002 A 
ATOM     28  C   UNL     1      -5.808 -11.429  19.806  0.00  0.00    +0.002 A 
ATOM     29  C   UNL     1      -4.617 -11.823  19.195  0.00  0.00    +0.000 A 
ENDBRANCH   5  24
ENDBRANCH  14   4
ENDBRANCH   8  14
TORSDOF 5
ENDMDL
MODEL 4
REMARK VINA RESULT:      -7.1     27.437     29.180
REMARK  Name = 40777187
REMARK  5 active torsions:
REMARK  status: ('A' for Active; 'I' for Inactive)
REMARK    1  A    between atoms: N_3  and  C_13
REMARK    2  A    between atoms: N_4  and  C_14
REMARK    3  A    between atoms: N_5  and  C_24
REMARK    4  A    between atoms: C_7  and  C_13
REMARK    5  A    between atoms: C_8  and  C_14
REMARK                            x       y       z     vdW  Elec       q    Type
REMARK                         _______ _______ _______ _____ _____    ______ ____
ROOT
ATOM      2  N   UNL     1     -11.240  -9.863  16.025  0.00  0.00    -0.298 NA
ATOM      6  C   UNL     1      -9.329 -11.332  17.000  0.00  0.00    -0.002 C 
ATOM      7  C   UNL     1      -9.335  -9.931  17.654  0.00  0.00    +0.023 C 
ATOM      8  C   UNL     1     -10.419 -10.429  14.921  0.00  0.00    +0.074 C 
ATOM      9  C   UNL     1      -9.189 -11.183  15.475  0.00  0.00    +0.024 C 
ATOM     10  C   UNL     1     -10.391  -9.059  16.937  0.00  0.00    +0.090 C 
ATOM     11  C   UNL     1     -10.708 -11.960  17.273  0.00  0.00    +0.019 C 
ATOM     12  C   UNL     1     -11.808 -10.993  16.798  0.00  0.00    +0.085 C 
ENDROOT
BRANCH   7  13
ATOM     13  C   UNL     1      -7.962  -9.262  17.659  0.00  0.00    +0.110 C 
BRANCH  13   3
ATOM      3  N   UNL     1      -6.966 -10.201  18.111  0.00  0.00    -0.329 N 
ATOM     15  C   UNL     1      -6.768 -10.517  19.524  0.00  0.00    +0.110 C 
ATOM     16  C   UNL     1      -5.753 -10.415  17.473  0.00  0.00    +0.033 A 
ATOM     17  C   UNL     1      -5.514 -11.410  19.604  0.00  0.00    +0.056 C 
ATOM     18  C   UNL     1      -4.855 -11.106  18.298  0.00  0.00    -0.025 A 
ATOM     19  C   UNL     1      -5.369 -10.054  16.191  0.00  0.00    +0.023 A 
ATOM     21  C   UNL     1      -3.584 -11.453  17.873  0.00  0.00    +0.005 A 
ATOM     22  C   UNL     1      -4.084 -10.388  15.750  0.00  0.00    +0.002 A 
ATOM     23  C   UNL     1      -3.198 -11.083  16.586  0.00  0.00    +0.000 A 
ENDBRANCH  13   3
ENDBRANCH   7  13
BRANCH   8  14
ATOM     14  C   UNL     1     -10.019  -9.372  13.888  0.00  0.00    +0.124 C 
BRANCH  14   4
ATOM      1  O   UNL     1      -8.365  -9.771  11.584  0.00  0.00    -0.253 OA
ATOM      4  N   UNL     1      -8.587  -9.270  13.831  0.00  0.00    -0.298 N 
ATOM      5  N   UNL     1      -6.479  -9.315  12.906  0.00  0.00    -0.269 N 
ATOM     20  C   UNL     1      -7.845  -9.481  12.659  0.00  0.00    +0.304 C 
ATOM     30  H   UNL     1      -8.088  -9.034  14.683  0.00  0.00    +0.150 HD
ATOM     31  H   UNL     1      -6.214  -9.074  13.859  0.00  0.00    +0.156 HD
BRANCH   5  24
ATOM     24  C   UNL     1      -5.409  -9.441  11.990  0.00  0.00    +0.035 A 
ATOM     25  C   UNL     1      -4.480 -10.469  12.142  0.00  0.00    +0.023 A 
ATOM     26  C   UNL     1      -5.284  -8.536  10.936  0.00  0.00    +0.023 A 
ATOM     27  C   UNL     1      -3.424 -10.592  11.238  0.00  0.00    +0.002 A 
ATOM     28  C   UNL     1      -4.229  -8.660  10.034  0.00  0.00    +0.002 A 
ATOM     29  C   UNL     1      -3.298  -9.688  10.184  0.00  0.00    +0.000 A 
ENDBRANCH   5  24
ENDBRANCH  14   4
ENDBRANCH   8  14
TORSDOF 5
ENDMDL
MODEL 5
REMARK VINA RESULT:      -7.1     27.511     29.416
REMARK  Name = 40777187
REMARK  5 active torsions:
REMARK  status: ('A' for Active; 'I' for Inactive)
REMARK    1  A    between atoms: N_3  and  C_13
REMARK    2  A    between atoms: N_4  and  C_14
REMARK    3  A    between atoms: N_5  and  C_24
REMARK    4  A    between atoms: C_7  and  C_13
REMARK    5  A    between atoms: C_8  and  C_14
REMARK                            x       y       z     vdW  Elec       q    Type
REMARK                         _______ _______ _______ _____ _____    ______ ____
ROOT
ATOM      2  N   UNL     1      -5.163 -11.539  17.962  0.00  0.00    -0.298 NA
ATOM      6  C   UNL     1      -5.955 -12.438  15.653  0.00  0.00    -0.002 C 
ATOM      7  C   UNL     1      -4.787 -11.440  15.485  0.00  0.00    +0.023 C 
ATOM      8  C   UNL     1      -6.634 -11.364  17.824  0.00  0.00    +0.074 C 
ATOM      9  C   UNL     1      -7.109 -11.751  16.406  0.00  0.00    +0.024 C 
ATOM     10  C   UNL     1      -4.456 -10.831  16.867  0.00  0.00    +0.090 C 
ATOM     11  C   UNL     1      -5.442 -13.580  16.549  0.00  0.00    +0.019 C 
ATOM     12  C   UNL     1      -4.863 -12.987  17.846  0.00  0.00    +0.085 C 
ENDROOT
BRANCH   7  13
ATOM     13  C   UNL     1      -5.066 -10.356  14.445  0.00  0.00    +0.110 C 
BRANCH  13   3
ATOM      3  N   UNL     1      -4.207 -10.545  13.303  0.00  0.00    -0.329 N 
ATOM     15  C   UNL     1      -2.781 -10.837  13.433  0.00  0.00    +0.110 C 
ATOM     16  C   UNL     1      -4.382  -9.906  12.084  0.00  0.00    +0.033 A 
ATOM     17  C   UNL     1      -2.191 -10.792  12.009  0.00  0.00    +0.056 C 
ATOM     18  C   UNL     1      -3.234 -10.002  11.286  0.00  0.00    -0.025 A 
ATOM     19  C   UNL     1      -5.499  -9.241  11.604  0.00  0.00    +0.023 A 
ATOM     21  C   UNL     1      -3.174  -9.457  10.015  0.00  0.00    +0.005 A 
ATOM     22  C   UNL     1      -5.451  -8.675  10.325  0.00  0.00    +0.002 A 
ATOM     23  C   UNL     1      -4.296  -8.783   9.536  0.00  0.00    +0.000 A 
ENDBRANCH  13   3
ENDBRANCH   7  13
BRANCH   8  14
ATOM     14  C   UNL     1      -7.093  -9.956  18.213  0.00  0.00    +0.124 C 
BRANCH  14   4
ATOM      1  O   UNL     1      -9.756  -8.948  17.905  0.00  0.00    -0.253 OA
ATOM      4  N   UNL     1      -7.632  -9.289  17.059  0.00  0.00    -0.298 N 
ATOM      5  N   UNL     1      -9.190  -8.218  15.747  0.00  0.00    -0.269 N 
ATOM     20  C   UNL     1      -8.952  -8.822  16.985  0.00  0.00    +0.304 C 
ATOM     30  H   UNL     1      -7.024  -9.150  16.258  0.00  0.00    +0.150 HD
ATOM     31  H   UNL     1      -8.411  -8.197  15.092  0.00  0.00    +0.156 HD
BRANCH   5  24
ATOM     24  C   UNL     1     -10.389  -7.627  15.286  0.00  0.00    +0.035 A 
ATOM     25  C   UNL     1     -10.713  -6.324  15.660  0.00  0.00    +0.023 A 
ATOM     26  C   UNL     1     -11.248  -8.349  14.456  0.00  0.00    +0.023 A 
ATOM     27  C   UNL     1     -11.897  -5.741  15.205  0.00  0.00    +0.002 A 
ATOM     28  C   UNL     1     -12.430  -7.767  14.001  0.00  0.00    +0.002 A 
ATOM     29  C   UNL     1     -12.755  -6.462  14.375  0.00  0.00    +0.000 A 
ENDBRANCH   5  24
ENDBRANCH  14   4
ENDBRANCH   8  14
TORSDOF 5
ENDMDL
MODEL 6
REMARK VINA RESULT:      -7.1     28.202     30.598
REMARK  Name = 40777187
REMARK  5 active torsions:
REMARK  status: ('A' for Active; 'I' for Inactive)
REMARK    1  A    between atoms: N_3  and  C_13
REMARK    2  A    between atoms: N_4  and  C_14
REMARK    3  A    between atoms: N_5  and  C_24
REMARK    4  A    between atoms: C_7  and  C_13
REMARK    5  A    between atoms: C_8  and  C_14
REMARK                            x       y       z     vdW  Elec       q    Type
REMARK                         _______ _______ _______ _____ _____    ______ ____
ROOT
ATOM      2  N   UNL     1      -5.683 -12.414  17.026  0.00  0.00    -0.298 NA
ATOM      6  C   UNL     1      -5.866 -11.200  19.318  0.00  0.00    -0.002 C 
ATOM      7  C   UNL     1      -7.168 -11.970  18.997  0.00  0.00    +0.023 C 
ATOM      8  C   UNL     1      -5.326 -10.978  16.871  0.00  0.00    +0.074 C 
ATOM      9  C   UNL     1      -5.570 -10.202  18.184  0.00  0.00    +0.024 C 
ATOM     10  C   UNL     1      -7.057 -12.548  17.567  0.00  0.00    +0.090 C 
ATOM     11  C   UNL     1      -4.725 -12.234  19.326  0.00  0.00    +0.019 C 
ATOM     12  C   UNL     1      -4.742 -13.016  18.001  0.00  0.00    +0.085 C 
ENDROOT
BRANCH   7  13
ATOM     13  C   UNL     1      -8.427 -11.122  19.165  0.00  0.00    +0.110 C 
BRANCH  13   3
ATOM      3  N   UNL     1      -9.382 -11.825  19.984  0.00  0.00    -0.329 N 
ATOM     15  C   UNL     1      -9.399 -13.282  20.094  0.00  0.00    +0.110 C 
ATOM     16  C   UNL     1     -10.675 -11.384  20.224  0.00  0.00    +0.033 A 
ATOM     17  C   UNL     1     -10.657 -13.647  20.907  0.00  0.00    +0.056 C 
ATOM     18  C   UNL     1     -11.475 -12.406  20.753  0.00  0.00    -0.025 A 
ATOM     19  C   UNL     1     -11.215 -10.123  20.023  0.00  0.00    +0.023 A 
ATOM     21  C   UNL     1     -12.801 -12.201  21.092  0.00  0.00    +0.005 A 
ATOM     22  C   UNL     1     -12.556  -9.902  20.351  0.00  0.00    +0.002 A 
ATOM     23  C   UNL     1     -13.344 -10.934  20.883  0.00  0.00    +0.000 A 
ENDBRANCH  13   3
ENDBRANCH   7  13
BRANCH   8  14
ATOM     14  C   UNL     1      -6.037 -10.324  15.684  0.00  0.00    +0.124 C 
BRANCH  14   4
ATOM      1  O   UNL     1      -8.788 -10.001  14.955  0.00  0.00    -0.253 OA
ATOM      4  N   UNL     1      -6.939  -9.311  16.159  0.00  0.00    -0.298 N 
ATOM      5  N   UNL     1      -8.907  -8.139  16.379  0.00  0.00    -0.269 N 
ATOM     20  C   UNL     1      -8.278  -9.219  15.754  0.00  0.00    +0.304 C 
ATOM     30  H   UNL     1      -6.586  -8.628  16.823  0.00  0.00    +0.150 HD
ATOM     31  H   UNL     1      -8.338  -7.587  17.018  0.00  0.00    +0.156 HD
BRANCH   5  24
ATOM     24  C   UNL     1     -10.248  -7.713  16.236  0.00  0.00    +0.035 A 
ATOM     25  C   UNL     1     -10.528  -6.475  15.660  0.00  0.00    +0.023 A 
ATOM     26  C   UNL     1     -11.290  -8.532  16.672  0.00  0.00    +0.023 A 
ATOM     27  C   UNL     1     -11.851  -6.054  15.519  0.00  0.00    +0.002 A 
ATOM     28  C   UNL     1     -12.612  -8.111  16.531  0.00  0.00    +0.002 A 
ATOM     29  C   UNL     1     -12.893  -6.872  15.954  0.00  0.00    +0.000 A 
ENDBRANCH   5  24
ENDBRANCH  14   4
ENDBRANCH   8  14
TORSDOF 5
ENDMDL
MODEL 7
REMARK VINA RESULT:      -7.0     27.407     28.908
REMARK  Name = 40777187
REMARK  5 active torsions:
REMARK  status: ('A' for Active; 'I' for Inactive)
REMARK    1  A    between atoms: N_3  and  C_13
REMARK    2  A    between atoms: N_4  and  C_14
REMARK    3  A    between atoms: N_5  and  C_24
REMARK    4  A    between atoms: C_7  and  C_13
REMARK    5  A    between atoms: C_8  and  C_14
REMARK                            x       y       z     vdW  Elec       q    Type
REMARK                         _______ _______ _______ _____ _____    ______ ____
ROOT
ATOM      2  N   UNL     1      -6.716 -12.820  18.263  0.00  0.00    -0.298 NA
ATOM      6  C   UNL     1      -5.956 -10.389  18.790  0.00  0.00    -0.002 C 
ATOM      7  C   UNL     1      -7.160 -10.392  17.821  0.00  0.00    +0.023 C 
ATOM      8  C   UNL     1      -5.255 -12.678  18.017  0.00  0.00    +0.074 C 
ATOM      9  C   UNL     1      -4.805 -11.209  18.178  0.00  0.00    +0.024 C 
ATOM     10  C   UNL     1      -7.474 -11.855  17.430  0.00  0.00    +0.090 C 
ATOM     11  C   UNL     1      -6.408 -11.121  20.068  0.00  0.00    +0.019 C 
ATOM     12  C   UNL     1      -6.971 -12.502  19.688  0.00  0.00    +0.085 C 
ENDROOT
BRANCH   7  13
ATOM     13  C   UNL     1      -6.944  -9.515  16.589  0.00  0.00    +0.110 C 
BRANCH  13   3
ATOM      3  N   UNL     1      -8.106  -9.576  15.738  0.00  0.00    -0.329 N 
ATOM     15  C   UNL     1      -8.024  -9.925  14.322  0.00  0.00    +0.110 C 
ATOM     16  C   UNL     1      -9.228  -8.776  15.897  0.00  0.00    +0.033 A 
ATOM     17  C   UNL     1      -9.433  -9.708  13.733  0.00  0.00    +0.056 C 
ATOM     18  C   UNL     1     -10.039  -8.800  14.754  0.00  0.00    -0.025 A 
ATOM     19  C   UNL     1      -9.610  -8.021  16.995  0.00  0.00    +0.023 A 
ATOM     21  C   UNL     1     -11.227  -8.093  14.680  0.00  0.00    +0.005 A 
ATOM     22  C   UNL     1     -10.803  -7.292  16.932  0.00  0.00    +0.002 A 
ATOM     23  C   UNL     1     -11.605  -7.329  15.783  0.00  0.00    +0.000 A 
ENDBRANCH  13   3
ENDBRANCH   7  13
BRANCH   8  14
ATOM     14  C   UNL     1      -4.832 -13.257  16.664  0.00  0.00    +0.124 C 
BRANCH  14   4
ATOM      1  O   UNL     1      -5.395 -12.596  13.935  0.00  0.00    -0.253 OA
ATOM      4  N   UNL     1      -4.197 -12.234  15.879  0.00  0.00    -0.298 N 
ATOM      5  N   UNL     1      -3.751 -10.924  14.040  0.00  0.00    -0.269 N 
ATOM     20  C   UNL     1      -4.530 -11.970  14.543  0.00  0.00    +0.304 C 
ATOM     30  H   UNL     1      -3.471 -11.675  16.316  0.00  0.00    +0.150 HD
ATOM     31  H   UNL     1      -3.075 -10.510  14.680  0.00  0.00    +0.156 HD
BRANCH   5  24
ATOM     24  C   UNL     1      -3.782 -10.363  12.742  0.00  0.00    +0.035 A 
ATOM     25  C   UNL     1      -4.980  -9.875  12.222  0.00  0.00    +0.023 A 
ATOM     26  C   UNL     1      -2.615 -10.300  11.982  0.00  0.00    +0.023 A 
ATOM     27  C   UNL     1      -5.011  -9.322  10.942  0.00  0.00    +0.002 A 
ATOM     28  C   UNL     1      -2.645  -9.748  10.702  0.00  0.00    +0.002 A 
ATOM     29  C   UNL     1      -3.844  -9.258  10.182  0.00  0.00    +0.000 A 
ENDBRANCH   5  24
ENDBRANCH  14   4
ENDBRANCH   8  14
TORSDOF 5
ENDMDL
MODEL 8
REMARK VINA RESULT:      -6.8     13.436     16.561
REMARK  Name = 40777187
REMARK  5 active torsions:
REMARK  status: ('A' for Active; 'I' for Inactive)
REMARK    1  A    between atoms: N_3  and  C_13
REMARK    2  A    between atoms: N_4  and  C_14
REMARK    3  A    between atoms: N_5  and  C_24
REMARK    4  A    between atoms: C_7  and  C_13
REMARK    5  A    between atoms: C_8  and  C_14
REMARK                            x       y       z     vdW  Elec       q    Type
REMARK                         _______ _______ _______ _____ _____    ______ ____
ROOT
ATOM      2  N   UNL     1      11.833   5.487   0.303  0.00  0.00    -0.298 NA
ATOM      6  C   UNL     1      11.035   4.416   2.535  0.00  0.00    -0.002 C 
ATOM      7  C   UNL     1      11.037   5.959   2.634  0.00  0.00    +0.023 C 
ATOM      8  C   UNL     1      12.818   4.471   0.762  0.00  0.00    +0.074 C 
ATOM      9  C   UNL     1      12.445   3.927   2.158  0.00  0.00    +0.024 C 
ATOM     10  C   UNL     1      11.655   6.534   1.339  0.00  0.00    +0.090 C 
ATOM     11  C   UNL     1      10.097   4.044   1.371  0.00  0.00    +0.019 C 
ATOM     12  C   UNL     1      10.531   4.805   0.106  0.00  0.00    +0.085 C 
ENDROOT
BRANCH   7  13
ATOM     13  C   UNL     1      11.751   6.482   3.878  0.00  0.00    +0.110 C 
BRANCH  13   3
ATOM      3  N   UNL     1      10.830   7.242   4.685  0.00  0.00    -0.329 N 
ATOM     15  C   UNL     1      10.863   8.702   4.750  0.00  0.00    +0.110 C 
ATOM     16  C   UNL     1      10.291   6.794   5.882  0.00  0.00    +0.033 A 
ATOM     17  C   UNL     1       9.854   9.117   5.838  0.00  0.00    +0.056 C 
ATOM     18  C   UNL     1       9.716   7.845   6.610  0.00  0.00    -0.025 A 
ATOM     19  C   UNL     1      10.253   5.505   6.390  0.00  0.00    +0.023 A 
ATOM     21  C   UNL     1       9.097   7.641   7.831  0.00  0.00    +0.005 A 
ATOM     22  C   UNL     1       9.640   5.283   7.627  0.00  0.00    +0.002 A 
ATOM     23  C   UNL     1       9.066   6.345   8.343  0.00  0.00    +0.000 A 
ENDBRANCH  13   3
ENDBRANCH   7  13
BRANCH   8  14
ATOM     14  C   UNL     1      14.257   4.993   0.721  0.00  0.00    +0.124 C 
BRANCH  14   4
ATOM      1  O   UNL     1      14.995   7.563   1.747  0.00  0.00    -0.253 OA
ATOM      4  N   UNL     1      14.700   5.291   2.055  0.00  0.00    -0.298 N 
ATOM      5  N   UNL     1      15.436   6.565   3.825  0.00  0.00    -0.269 N 
ATOM     20  C   UNL     1      15.044   6.581   2.483  0.00  0.00    +0.304 C 
ATOM     30  H   UNL     1      14.767   4.526   2.721  0.00  0.00    +0.150 HD
ATOM     31  H   UNL     1      15.421   5.661   4.294  0.00  0.00    +0.156 HD
BRANCH   5  24
ATOM     24  C   UNL     1      15.855   7.656   4.621  0.00  0.00    +0.035 A 
ATOM     25  C   UNL     1      14.937   8.323   5.430  0.00  0.00    +0.023 A 
ATOM     26  C   UNL     1      17.188   8.066   4.594  0.00  0.00    +0.023 A 
ATOM     27  C   UNL     1      15.350   9.400   6.214  0.00  0.00    +0.002 A 
ATOM     28  C   UNL     1      17.602   9.143   5.378  0.00  0.00    +0.002 A 
ATOM     29  C   UNL     1      16.683   9.810   6.189  0.00  0.00    +0.000 A 
ENDBRANCH   5  24
ENDBRANCH  14   4
ENDBRANCH   8  14
TORSDOF 5
ENDMDL
MODEL 9
REMARK VINA RESULT:      -6.8     26.333     29.586
REMARK  Name = 40777187
REMARK  5 active torsions:
REMARK  status: ('A' for Active; 'I' for Inactive)
REMARK    1  A    between atoms: N_3  and  C_13
REMARK    2  A    between atoms: N_4  and  C_14
REMARK    3  A    between atoms: N_5  and  C_24
REMARK    4  A    between atoms: C_7  and  C_13
REMARK    5  A    between atoms: C_8  and  C_14
REMARK                            x       y       z     vdW  Elec       q    Type
REMARK                         _______ _______ _______ _____ _____    ______ ____
ROOT
ATOM      2  N   UNL     1      -6.700 -10.707  18.129  0.00  0.00    -0.298 NA
ATOM      6  C   UNL     1      -4.865 -12.545  18.278  0.00  0.00    -0.002 C 
ATOM      7  C   UNL     1      -4.558 -11.550  17.135  0.00  0.00    +0.023 C 
ATOM      8  C   UNL     1      -7.328 -12.056  18.117  0.00  0.00    +0.074 C 
ATOM      9  C   UNL     1      -6.256 -13.166  18.054  0.00  0.00    +0.024 C 
ATOM     10  C   UNL     1      -5.748 -10.573  16.999  0.00  0.00    +0.090 C 
ATOM     11  C   UNL     1      -4.937 -11.723  19.578  0.00  0.00    +0.019 C 
ATOM     12  C   UNL     1      -5.939 -10.569  19.394  0.00  0.00    +0.085 C 
ENDROOT
BRANCH   7  13
ATOM     13  C   UNL     1      -4.241 -12.237  15.808  0.00  0.00    +0.110 C 
BRANCH  13   3
ATOM      3  N   UNL     1      -3.093 -11.613  15.199  0.00  0.00    -0.329 N 
ATOM     15  C   UNL     1      -2.219 -10.697  15.928  0.00  0.00    +0.110 C 
ATOM     16  C   UNL     1      -3.014 -11.270  13.858  0.00  0.00    +0.033 A 
ATOM     17  C   UNL     1      -1.231 -10.117  14.896  0.00  0.00    +0.056 C 
ATOM     18  C   UNL     1      -1.953 -10.387  13.616  0.00  0.00    -0.025 A 
ATOM     19  C   UNL     1      -3.811 -11.692  12.804  0.00  0.00    +0.023 A 
ATOM     21  C   UNL     1      -1.662  -9.917  12.347  0.00  0.00    +0.005 A 
ATOM     22  C   UNL     1      -3.536 -11.218  11.517  0.00  0.00    +0.002 A 
ATOM     23  C   UNL     1      -2.468 -10.336  11.291  0.00  0.00    +0.000 A 
ENDBRANCH  13   3
ENDBRANCH   7  13
BRANCH   8  14
ATOM     14  C   UNL     1      -8.368 -12.206  17.004  0.00  0.00    +0.124 C 
BRANCH  14   4
ATOM      1  O   UNL     1      -9.039  -9.939  15.386  0.00  0.00    -0.253 OA
ATOM      4  N   UNL     1      -9.447 -11.282  17.224  0.00  0.00    -0.298 N 
ATOM      5  N   UNL     1     -10.819  -9.473  16.845  0.00  0.00    -0.269 N 
ATOM     20  C   UNL     1      -9.712 -10.192  16.383  0.00  0.00    +0.304 C 
ATOM     30  H   UNL     1     -10.046 -11.428  18.031  0.00  0.00    +0.150 HD
ATOM     31  H   UNL     1     -11.266  -9.819  17.692  0.00  0.00    +0.156 HD
BRANCH   5  24
ATOM     24  C   UNL     1     -11.400  -8.315  16.279  0.00  0.00    +0.035 A 
ATOM     25  C   UNL     1     -10.917  -7.053  16.623  0.00  0.00    +0.023 A 
ATOM     26  C   UNL     1     -12.458  -8.435  15.378  0.00  0.00    +0.023 A 
ATOM     27  C   UNL     1     -11.491  -5.911  16.065  0.00  0.00    +0.002 A 
ATOM     28  C   UNL     1     -13.032  -7.294  14.820  0.00  0.00    +0.002 A 
ATOM     29  C   UNL     1     -12.548  -6.031  15.164  0.00  0.00    +0.000 A 
ENDBRANCH   5  24
ENDBRANCH  14   4
ENDBRANCH   8  14
TORSDOF 5
ENDMDL
MODEL 10
REMARK VINA RESULT:      -6.7     13.378     16.878
REMARK  Name = 40777187
REMARK  5 active torsions:
REMARK  status: ('A' for Active; 'I' for Inactive)
REMARK    1  A    between atoms: N_3  and  C_13
REMARK    2  A    between atoms: N_4  and  C_14
REMARK    3  A    between atoms: N_5  and  C_24
REMARK    4  A    between atoms: C_7  and  C_13
REMARK    5  A    between atoms: C_8  and  C_14
REMARK                            x       y       z     vdW  Elec       q    Type
REMARK                         _______ _______ _______ _____ _____    ______ ____
ROOT
ATOM      2  N   UNL     1       9.107   5.593   6.455  0.00  0.00    -0.298 NA
ATOM      6  C   UNL     1      10.992   7.290   7.029  0.00  0.00    -0.002 C 
ATOM      7  C   UNL     1       9.682   8.024   6.665  0.00  0.00    +0.023 C 
ATOM      8  C   UNL     1      10.323   5.294   5.652  0.00  0.00    +0.074 C 
ATOM      9  C   UNL     1      11.406   6.375   5.863  0.00  0.00    +0.024 C 
ATOM     10  C   UNL     1       8.646   6.978   6.194  0.00  0.00    +0.090 C 
ATOM     11  C   UNL     1      10.676   6.380   8.232  0.00  0.00    +0.019 C 
ATOM     12  C   UNL     1       9.470   5.488   7.889  0.00  0.00    +0.085 C 
ENDROOT
BRANCH   7  13
ATOM     13  C   UNL     1       9.879   9.127   5.627  0.00  0.00    +0.110 C 
BRANCH  13   3
ATOM      3  N   UNL     1       9.208   8.768   4.403  0.00  0.00    -0.329 N 
ATOM     15  C   UNL     1       9.933   8.363   3.200  0.00  0.00    +0.110 C 
ATOM     16  C   UNL     1       8.003   9.315   3.986  0.00  0.00    +0.033 A 
ATOM     17  C   UNL     1       8.886   8.237   2.076  0.00  0.00    +0.056 C 
ATOM     18  C   UNL     1       7.762   9.051   2.631  0.00  0.00    -0.025 A 
ATOM     19  C   UNL     1       7.074  10.033   4.723  0.00  0.00    +0.023 A 
ATOM     21  C   UNL     1       6.612   9.480   1.992  0.00  0.00    +0.005 A 
ATOM     22  C   UNL     1       5.910  10.482   4.088  0.00  0.00    +0.002 A 
ATOM     23  C   UNL     1       5.681  10.207   2.732  0.00  0.00    +0.000 A 
ENDBRANCH  13   3
ENDBRANCH   7  13
BRANCH   8  14
ATOM     14  C   UNL     1      10.007   5.088   4.168  0.00  0.00    +0.124 C 
BRANCH  14   4
ATOM      1  O   UNL     1      11.574   5.883   1.907  0.00  0.00    -0.253 OA
ATOM      4  N   UNL     1      11.065   4.337   3.549  0.00  0.00    -0.298 N 
ATOM      5  N   UNL     1      12.752   3.858   2.059  0.00  0.00    -0.269 N 
ATOM     20  C   UNL     1      11.789   4.797   2.440  0.00  0.00    +0.304 C 
ATOM     30  H   UNL     1      11.299   3.428   3.936  0.00  0.00    +0.150 HD
ATOM     31  H   UNL     1      12.799   3.003   2.610  0.00  0.00    +0.156 HD
BRANCH   5  24
ATOM     24  C   UNL     1      13.677   3.946   0.992  0.00  0.00    +0.035 A 
ATOM     25  C   UNL     1      15.040   4.063   1.260  0.00  0.00    +0.023 A 
ATOM     26  C   UNL     1      13.225   3.916  -0.327  0.00  0.00    +0.023 A 
ATOM     27  C   UNL     1      15.952   4.150   0.208  0.00  0.00    +0.002 A 
ATOM     28  C   UNL     1      14.136   4.003  -1.378  0.00  0.00    +0.002 A 
ATOM     29  C   UNL     1      15.501   4.120  -1.111  0.00  0.00    +0.000 A 
ENDBRANCH   5  24
ENDBRANCH  14   4
ENDBRANCH   8  14
TORSDOF 5
ENDMDL
