MODEL 1
REMARK VINA RESULT:      -7.7      0.000      0.000
REMARK  Name = 11911909
REMARK  7 active torsions:
REMARK  status: ('A' for Active; 'I' for Inactive)
REMARK    1  A    between atoms: N_5  and  C_12
REMARK    2  A    between atoms: N_6  and  C_13
REMARK    3  A    between atoms: N_9  and  C_26
REMARK    4  A    between atoms: N_9  and  C_30
REMARK    5  A    between atoms: N_9  and  C_31
REMARK    6  A    between atoms: C_16  and  C_18
REMARK    7  A    between atoms: C_21  and  C_27
REMARK                            x       y       z     vdW  Elec       q    Type
REMARK                         _______ _______ _______ _____ _____    ______ ____
ROOT
ATOM      2  O   UNL     1      -6.380 -11.576  10.319  0.00  0.00    -0.370 OA
ATOM      3  O   UNL     1      -5.244  -8.713  10.674  0.00  0.00    -0.370 OA
ATOM     10  C   UNL     1      -4.898  -9.796   9.791  0.00  0.00    +0.171 C 
ATOM     11  C   UNL     1      -5.054 -11.082  10.579  0.00  0.00    +0.171 C 
ATOM     12  C   UNL     1      -5.918  -9.914   8.681  0.00  0.00    +0.130 C 
ATOM     13  C   UNL     1      -4.934 -10.647  12.020  0.00  0.00    +0.130 C 
ATOM     14  C   UNL     1      -7.015 -10.728   9.350  0.00  0.00    +0.185 C 
ATOM     15  C   UNL     1      -5.488  -9.234  11.989  0.00  0.00    +0.185 C 
ENDROOT
BRANCH  13   6
ATOM      6  N   UNL     1      -3.542 -10.632  12.419  0.00  0.00    -0.306 N 
ATOM      7  N   UNL     1      -4.082 -10.636  14.702  0.00  0.00    -0.214 NA
ATOM      8  N   UNL     1      -1.785 -10.614  13.973  0.00  0.00    -0.223 NA
ATOM     17  C   UNL     1      -3.124 -10.628  13.737  0.00  0.00    +0.216 A 
ATOM     21  C   UNL     1      -3.638 -10.631  15.977  0.00  0.00    +0.076 A 
ATOM     22  C   UNL     1      -1.412 -10.610  15.270  0.00  0.00    +0.116 A 
ATOM     23  C   UNL     1      -2.303 -10.618  16.324  0.00  0.00    +0.048 A 
ATOM     36  H   UNL     1      -2.821 -10.678  11.708  0.00  0.00    +0.149 HD
BRANCH  21  27
ATOM      1  F   UNL     1      -7.991  -9.261  17.559  0.00  0.00    -0.205 F 
ATOM     27  C   UNL     1      -4.672 -10.641  16.985  0.00  0.00    +0.003 A 
ATOM     28  C   UNL     1      -5.857  -9.932  16.782  0.00  0.00    +0.048 A 
ATOM     29  C   UNL     1      -4.490 -11.364  18.166  0.00  0.00    +0.010 A 
ATOM     32  C   UNL     1      -6.855  -9.943  17.756  0.00  0.00    +0.124 A 
ATOM     33  C   UNL     1      -5.488 -11.375  19.141  0.00  0.00    +0.003 A 
ATOM     34  C   UNL     1      -6.671 -10.665  18.936  0.00  0.00    +0.038 A 
ENDBRANCH  21  27
ENDBRANCH  13   6
BRANCH  12   5
ATOM      4  O   UNL     1      -6.797  -9.818   5.936  0.00  0.00    -0.270 OA
ATOM      5  N   UNL     1      -5.366 -10.663   7.554  0.00  0.00    -0.304 N 
ATOM     16  C   UNL     1      -5.863 -10.545   6.264  0.00  0.00    +0.244 C 
ATOM     35  H   UNL     1      -4.667 -11.367   7.771  0.00  0.00    +0.149 HD
BRANCH  16  18
ATOM     18  C   UNL     1      -5.209 -11.395   5.235  0.00  0.00    +0.037 A 
ATOM     19  C   UNL     1      -5.903 -11.700   4.083  0.00  0.00    +0.015 A 
ATOM     20  C   UNL     1      -3.928 -11.851   5.466  0.00  0.00    +0.015 A 
ATOM     24  C   UNL     1      -5.288 -12.498   3.117  0.00  0.00    +0.024 A 
ATOM     25  C   UNL     1      -3.313 -12.649   4.501  0.00  0.00    +0.024 A 
ATOM     26  C   UNL     1      -3.992 -12.972   3.326  0.00  0.00    +0.029 A 
BRANCH  26   9
ATOM      9  N   UNL     1      -3.370 -13.776   2.350  0.00  0.00    -0.336 N 
ATOM     30  C   UNL     1      -2.809 -15.064   2.706  0.00  0.00    +0.129 C 
ATOM     31  C   UNL     1      -3.269 -13.319   0.978  0.00  0.00    +0.129 C 
ENDBRANCH  26   9
ENDBRANCH  16  18
ENDBRANCH  12   5
TORSDOF 5
ENDMDL
MODEL 2
REMARK VINA RESULT:      -7.6      0.946      1.503
REMARK  Name = 11911909
REMARK  7 active torsions:
REMARK  status: ('A' for Active; 'I' for Inactive)
REMARK    1  A    between atoms: N_5  and  C_12
REMARK    2  A    between atoms: N_6  and  C_13
REMARK    3  A    between atoms: N_9  and  C_26
REMARK    4  A    between atoms: N_9  and  C_30
REMARK    5  A    between atoms: N_9  and  C_31
REMARK    6  A    between atoms: C_16  and  C_18
REMARK    7  A    between atoms: C_21  and  C_27
REMARK                            x       y       z     vdW  Elec       q    Type
REMARK                         _______ _______ _______ _____ _____    ______ ____
ROOT
ATOM      2  O   UNL     1      -6.929 -11.196  10.340  0.00  0.00    -0.370 OA
ATOM      3  O   UNL     1      -5.485  -8.466  10.609  0.00  0.00    -0.370 OA
ATOM     10  C   UNL     1      -5.273  -9.599   9.748  0.00  0.00    +0.171 C 
ATOM     11  C   UNL     1      -5.553 -10.843  10.569  0.00  0.00    +0.171 C 
ATOM     12  C   UNL     1      -6.319  -9.631   8.656  0.00  0.00    +0.130 C 
ATOM     13  C   UNL     1      -5.363 -10.391  11.997  0.00  0.00    +0.130 C 
ATOM     14  C   UNL     1      -7.485 -10.306   9.360  0.00  0.00    +0.185 C 
ATOM     15  C   UNL     1      -5.761  -8.928  11.940  0.00  0.00    +0.185 C 
ENDROOT
BRANCH  13   6
ATOM      6  N   UNL     1      -3.971 -10.517  12.376  0.00  0.00    -0.306 N 
ATOM      7  N   UNL     1      -4.477 -10.496  14.666  0.00  0.00    -0.214 NA
ATOM      8  N   UNL     1      -2.199 -10.692  13.903  0.00  0.00    -0.223 NA
ATOM     17  C   UNL     1      -3.536 -10.571  13.687  0.00  0.00    +0.216 A 
ATOM     21  C   UNL     1      -4.018 -10.551  15.934  0.00  0.00    +0.076 A 
ATOM     22  C   UNL     1      -1.811 -10.740  15.195  0.00  0.00    +0.116 A 
ATOM     23  C   UNL     1      -2.683 -10.674  16.262  0.00  0.00    +0.048 A 
ATOM     36  H   UNL     1      -3.268 -10.626  11.654  0.00  0.00    +0.149 HD
BRANCH  21  27
ATOM      1  F   UNL     1      -5.546 -11.440  20.428  0.00  0.00    -0.205 F 
ATOM     27  C   UNL     1      -5.033 -10.472  16.957  0.00  0.00    +0.003 A 
ATOM     28  C   UNL     1      -4.795 -11.005  18.225  0.00  0.00    +0.048 A 
ATOM     29  C   UNL     1      -6.259  -9.861  16.681  0.00  0.00    +0.010 A 
ATOM     32  C   UNL     1      -5.777 -10.928  19.212  0.00  0.00    +0.124 A 
ATOM     33  C   UNL     1      -7.241  -9.785  17.668  0.00  0.00    +0.003 A 
ATOM     34  C   UNL     1      -7.000 -10.318  18.934  0.00  0.00    +0.038 A 
ENDBRANCH  21  27
ENDBRANCH  13   6
BRANCH  12   5
ATOM      4  O   UNL     1      -6.722  -9.126   5.846  0.00  0.00    -0.270 OA
ATOM      5  N   UNL     1      -5.870 -10.461   7.539  0.00  0.00    -0.304 N 
ATOM     16  C   UNL     1      -6.116 -10.127   6.215  0.00  0.00    +0.244 C 
ATOM     35  H   UNL     1      -5.461 -11.360   7.773  0.00  0.00    +0.149 HD
BRANCH  16  18
ATOM     18  C   UNL     1      -5.616 -11.090   5.199  0.00  0.00    +0.037 A 
ATOM     19  C   UNL     1      -4.378 -11.669   5.381  0.00  0.00    +0.015 A 
ATOM     20  C   UNL     1      -6.407 -11.371   4.104  0.00  0.00    +0.015 A 
ATOM     24  C   UNL     1      -3.910 -12.573   4.427  0.00  0.00    +0.024 A 
ATOM     25  C   UNL     1      -5.939 -12.274   3.150  0.00  0.00    +0.024 A 
ATOM     26  C   UNL     1      -4.691 -12.876   3.311  0.00  0.00    +0.029 A 
BRANCH  26   9
ATOM      9  N   UNL     1      -4.219 -13.790   2.347  0.00  0.00    -0.336 N 
ATOM     30  C   UNL     1      -3.124 -14.688   2.660  0.00  0.00    +0.129 C 
ATOM     31  C   UNL     1      -4.812 -13.836   1.026  0.00  0.00    +0.129 C 
ENDBRANCH  26   9
ENDBRANCH  16  18
ENDBRANCH  12   5
TORSDOF 5
ENDMDL
MODEL 3
REMARK VINA RESULT:      -7.4     23.421     28.502
REMARK  Name = 11911909
REMARK  7 active torsions:
REMARK  status: ('A' for Active; 'I' for Inactive)
REMARK    1  A    between atoms: N_5  and  C_12
REMARK    2  A    between atoms: N_6  and  C_13
REMARK    3  A    between atoms: N_9  and  C_26
REMARK    4  A    between atoms: N_9  and  C_30
REMARK    5  A    between atoms: N_9  and  C_31
REMARK    6  A    between atoms: C_16  and  C_18
REMARK    7  A    between atoms: C_21  and  C_27
REMARK                            x       y       z     vdW  Elec       q    Type
REMARK                         _______ _______ _______ _____ _____    ______ ____
ROOT
ATOM      2  O   UNL     1     -13.409   3.680  31.678  0.00  0.00    -0.370 OA
ATOM      3  O   UNL     1     -15.921   3.757  33.494  0.00  0.00    -0.370 OA
ATOM     10  C   UNL     1     -15.736   3.943  32.079  0.00  0.00    +0.171 C 
ATOM     11  C   UNL     1     -14.423   4.678  31.893  0.00  0.00    +0.171 C 
ATOM     12  C   UNL     1     -15.515   2.610  31.400  0.00  0.00    +0.130 C 
ATOM     13  C   UNL     1     -14.199   5.371  33.216  0.00  0.00    +0.130 C 
ATOM     14  C   UNL     1     -14.029   2.385  31.627  0.00  0.00    +0.185 C 
ATOM     15  C   UNL     1     -14.870   4.433  34.201  0.00  0.00    +0.185 C 
ENDROOT
BRANCH  13   6
ATOM      6  N   UNL     1     -14.860   6.659  33.219  0.00  0.00    -0.306 N 
ATOM      7  N   UNL     1     -13.210   7.628  34.576  0.00  0.00    -0.214 NA
ATOM      8  N   UNL     1     -15.094   8.918  33.806  0.00  0.00    -0.223 NA
ATOM     17  C   UNL     1     -14.373   7.768  33.886  0.00  0.00    +0.216 A 
ATOM     21  C   UNL     1     -12.764   8.729  35.216  0.00  0.00    +0.076 A 
ATOM     22  C   UNL     1     -14.589   9.980  34.469  0.00  0.00    +0.116 A 
ATOM     23  C   UNL     1     -13.418   9.944  35.197  0.00  0.00    +0.048 A 
ATOM     36  H   UNL     1     -15.700   6.788  32.665  0.00  0.00    +0.149 HD
BRANCH  21  27
ATOM      1  F   UNL     1     -10.157   6.536  38.638  0.00  0.00    -0.205 F 
ATOM     27  C   UNL     1     -11.527   8.558  35.939  0.00  0.00    +0.003 A 
ATOM     28  C   UNL     1     -11.437   7.610  36.961  0.00  0.00    +0.048 A 
ATOM     29  C   UNL     1     -10.414   9.340  35.619  0.00  0.00    +0.010 A 
ATOM     32  C   UNL     1     -10.241   7.445  37.659  0.00  0.00    +0.124 A 
ATOM     33  C   UNL     1      -9.218   9.175  36.318  0.00  0.00    +0.003 A 
ATOM     34  C   UNL     1      -9.131   8.227  37.338  0.00  0.00    +0.038 A 
ENDBRANCH  21  27
ENDBRANCH  13   6
BRANCH  12   5
ATOM      4  O   UNL     1     -16.215   0.464  29.605  0.00  0.00    -0.270 OA
ATOM      5  N   UNL     1     -15.785   2.714  29.966  0.00  0.00    -0.304 N 
ATOM     16  C   UNL     1     -16.116   1.614  29.188  0.00  0.00    +0.244 C 
ATOM     35  H   UNL     1     -15.611   3.615  29.533  0.00  0.00    +0.149 HD
BRANCH  16  18
ATOM     18  C   UNL     1     -16.334   1.883  27.742  0.00  0.00    +0.037 A 
ATOM     19  C   UNL     1     -16.034   3.134  27.244  0.00  0.00    +0.015 A 
ATOM     20  C   UNL     1     -16.830   0.872  26.946  0.00  0.00    +0.015 A 
ATOM     24  C   UNL     1     -16.239   3.385  25.887  0.00  0.00    +0.024 A 
ATOM     25  C   UNL     1     -17.035   1.123  25.589  0.00  0.00    +0.024 A 
ATOM     26  C   UNL     1     -16.739   2.379  25.059  0.00  0.00    +0.029 A 
BRANCH  26   9
ATOM      9  N   UNL     1     -16.944   2.633  23.687  0.00  0.00    -0.336 N 
ATOM     30  C   UNL     1     -17.789   1.761  22.897  0.00  0.00    +0.129 C 
ATOM     31  C   UNL     1     -16.299   3.762  23.046  0.00  0.00    +0.129 C 
ENDBRANCH  26   9
ENDBRANCH  16  18
ENDBRANCH  12   5
TORSDOF 5
ENDMDL
MODEL 4
REMARK VINA RESULT:      -7.3     28.306     33.085
REMARK  Name = 11911909
REMARK  7 active torsions:
REMARK  status: ('A' for Active; 'I' for Inactive)
REMARK    1  A    between atoms: N_5  and  C_12
REMARK    2  A    between atoms: N_6  and  C_13
REMARK    3  A    between atoms: N_9  and  C_26
REMARK    4  A    between atoms: N_9  and  C_30
REMARK    5  A    between atoms: N_9  and  C_31
REMARK    6  A    between atoms: C_16  and  C_18
REMARK    7  A    between atoms: C_21  and  C_27
REMARK                            x       y       z     vdW  Elec       q    Type
REMARK                         _______ _______ _______ _____ _____    ______ ____
ROOT
ATOM      2  O   UNL     1      13.826  12.153  23.378  0.00  0.00    -0.370 OA
ATOM      3  O   UNL     1      10.895  13.053  23.840  0.00  0.00    -0.370 OA
ATOM     10  C   UNL     1      11.815  12.286  24.637  0.00  0.00    +0.171 C 
ATOM     11  C   UNL     1      12.622  11.426  23.684  0.00  0.00    +0.171 C 
ATOM     12  C   UNL     1      12.841  13.196  25.275  0.00  0.00    +0.130 C 
ATOM     13  C   UNL     1      11.751  11.321  22.455  0.00  0.00    +0.130 C 
ATOM     14  C   UNL     1      13.854  13.362  24.153  0.00  0.00    +0.185 C 
ATOM     15  C   UNL     1      10.995  12.637  22.469  0.00  0.00    +0.185 C 
ENDROOT
BRANCH  13   6
ATOM      6  N   UNL     1      10.830  10.213  22.594  0.00  0.00    -0.306 N 
ATOM      7  N   UNL     1      12.339   8.694  21.636  0.00  0.00    -0.214 NA
ATOM      8  N   UNL     1      10.164   7.973  22.383  0.00  0.00    -0.223 NA
ATOM     17  C   UNL     1      11.120   8.921  22.193  0.00  0.00    +0.216 A 
ATOM     21  C   UNL     1      12.588   7.423  21.255  0.00  0.00    +0.076 A 
ATOM     22  C   UNL     1      10.481   6.725  21.979  0.00  0.00    +0.116 A 
ATOM     23  C   UNL     1      11.689   6.387  21.404  0.00  0.00    +0.048 A 
ATOM     36  H   UNL     1       9.939  10.361  23.055  0.00  0.00    +0.149 HD
BRANCH  21  27
ATOM      1  F   UNL     1      17.295   6.434  21.697  0.00  0.00    -0.205 F 
ATOM     27  C   UNL     1      13.889   7.204  20.669  0.00  0.00    +0.003 A 
ATOM     28  C   UNL     1      14.987   6.919  21.482  0.00  0.00    +0.048 A 
ATOM     29  C   UNL     1      14.053   7.276  19.283  0.00  0.00    +0.010 A 
ATOM     32  C   UNL     1      16.243   6.707  20.914  0.00  0.00    +0.124 A 
ATOM     33  C   UNL     1      15.309   7.064  18.715  0.00  0.00    +0.003 A 
ATOM     34  C   UNL     1      16.404   6.780  19.530  0.00  0.00    +0.038 A 
ENDBRANCH  21  27
ENDBRANCH  13   6
BRANCH  12   5
ATOM      4  O   UNL     1      14.347  14.452  27.389  0.00  0.00    -0.270 OA
ATOM      5  N   UNL     1      13.473  12.537  26.417  0.00  0.00    -0.304 N 
ATOM     16  C   UNL     1      14.179  13.236  27.385  0.00  0.00    +0.244 C 
ATOM     35  H   UNL     1      13.470  11.522  26.417  0.00  0.00    +0.149 HD
BRANCH  16  18
ATOM     18  C   UNL     1      14.784  12.416  28.467  0.00  0.00    +0.037 A 
ATOM     19  C   UNL     1      15.616  11.371  28.125  0.00  0.00    +0.015 A 
ATOM     20  C   UNL     1      14.491  12.727  29.779  0.00  0.00    +0.015 A 
ATOM     24  C   UNL     1      16.183  10.602  29.142  0.00  0.00    +0.024 A 
ATOM     25  C   UNL     1      15.059  11.958  30.795  0.00  0.00    +0.024 A 
ATOM     26  C   UNL     1      15.905  10.896  30.477  0.00  0.00    +0.029 A 
BRANCH  26   9
ATOM      9  N   UNL     1      16.480  10.120  31.504  0.00  0.00    -0.336 N 
ATOM     30  C   UNL     1      17.319   8.982  31.184  0.00  0.00    +0.129 C 
ATOM     31  C   UNL     1      16.227  10.440  32.895  0.00  0.00    +0.129 C 
ENDBRANCH  26   9
ENDBRANCH  16  18
ENDBRANCH  12   5
TORSDOF 5
ENDMDL
MODEL 5
REMARK VINA RESULT:      -7.2     29.047     33.051
REMARK  Name = 11911909
REMARK  7 active torsions:
REMARK  status: ('A' for Active; 'I' for Inactive)
REMARK    1  A    between atoms: N_5  and  C_12
REMARK    2  A    between atoms: N_6  and  C_13
REMARK    3  A    between atoms: N_9  and  C_26
REMARK    4  A    between atoms: N_9  and  C_30
REMARK    5  A    between atoms: N_9  and  C_31
REMARK    6  A    between atoms: C_16  and  C_18
REMARK    7  A    between atoms: C_21  and  C_27
REMARK                            x       y       z     vdW  Elec       q    Type
REMARK                         _______ _______ _______ _____ _____    ______ ____
ROOT
ATOM      2  O   UNL     1      20.798   6.216  24.185  0.00  0.00    -0.370 OA
ATOM      3  O   UNL     1      22.547   8.242  22.622  0.00  0.00    -0.370 OA
ATOM     10  C   UNL     1      21.292   7.607  22.324  0.00  0.00    +0.171 C 
ATOM     11  C   UNL     1      21.367   6.192  22.864  0.00  0.00    +0.171 C 
ATOM     12  C   UNL     1      20.177   8.249  23.119  0.00  0.00    +0.130 C 
ATOM     13  C   UNL     1      22.848   5.906  22.941  0.00  0.00    +0.130 C 
ATOM     14  C   UNL     1      20.293   7.533  24.455  0.00  0.00    +0.185 C 
ATOM     15  C   UNL     1      23.439   7.279  23.204  0.00  0.00    +0.185 C 
ENDROOT
BRANCH  13   6
ATOM      6  N   UNL     1      23.320   5.392  21.672  0.00  0.00    -0.306 N 
ATOM      7  N   UNL     1      23.698   3.252  22.554  0.00  0.00    -0.214 NA
ATOM      8  N   UNL     1      24.154   3.734  20.238  0.00  0.00    -0.223 NA
ATOM     17  C   UNL     1      23.736   4.087  21.482  0.00  0.00    +0.216 A 
ATOM     21  C   UNL     1      24.111   1.986  22.334  0.00  0.00    +0.076 A 
ATOM     22  C   UNL     1      24.553   2.453  20.089  0.00  0.00    +0.116 A 
ATOM     23  C   UNL     1      24.554   1.526  21.110  0.00  0.00    +0.048 A 
ATOM     36  H   UNL     1      23.302   5.992  20.855  0.00  0.00    +0.149 HD
BRANCH  21  27
ATOM      1  F   UNL     1      26.055  -1.476  25.084  0.00  0.00    -0.205 F 
ATOM     27  C   UNL     1      24.061   1.116  23.485  0.00  0.00    +0.003 A 
ATOM     28  C   UNL     1      25.103   0.221  23.734  0.00  0.00    +0.048 A 
ATOM     29  C   UNL     1      22.969   1.169  24.354  0.00  0.00    +0.010 A 
ATOM     32  C   UNL     1      25.053  -0.618  24.847  0.00  0.00    +0.124 A 
ATOM     33  C   UNL     1      22.919   0.329  25.467  0.00  0.00    +0.003 A 
ATOM     34  C   UNL     1      23.961  -0.565  25.713  0.00  0.00    +0.038 A 
ENDBRANCH  21  27
ENDBRANCH  13   6
BRANCH  12   5
ATOM      4  O   UNL     1      18.875   9.718  21.007  0.00  0.00    -0.270 OA
ATOM      5  N   UNL     1      18.879   7.956  22.513  0.00  0.00    -0.304 N 
ATOM     16  C   UNL     1      18.338   8.729  21.496  0.00  0.00    +0.244 C 
ATOM     35  H   UNL     1      18.329   7.220  22.945  0.00  0.00    +0.149 HD
BRANCH  16  18
ATOM     18  C   UNL     1      16.998   8.313  21.006  0.00  0.00    +0.037 A 
ATOM     19  C   UNL     1      16.674   6.973  21.007  0.00  0.00    +0.015 A 
ATOM     20  C   UNL     1      16.122   9.283  20.565  0.00  0.00    +0.015 A 
ATOM     24  C   UNL     1      15.415   6.584  20.547  0.00  0.00    +0.024 A 
ATOM     25  C   UNL     1      14.863   8.894  20.105  0.00  0.00    +0.024 A 
ATOM     26  C   UNL     1      14.510   7.545  20.097  0.00  0.00    +0.029 A 
BRANCH  26   9
ATOM      9  N   UNL     1      13.237   7.151  19.634  0.00  0.00    -0.336 N 
ATOM     30  C   UNL     1      12.874   7.328  18.242  0.00  0.00    +0.129 C 
ATOM     31  C   UNL     1      12.269   6.578  20.548  0.00  0.00    +0.129 C 
ENDBRANCH  26   9
ENDBRANCH  16  18
ENDBRANCH  12   5
TORSDOF 5
ENDMDL
MODEL 6
REMARK VINA RESULT:      -7.2     25.231     26.852
REMARK  Name = 11911909
REMARK  7 active torsions:
REMARK  status: ('A' for Active; 'I' for Inactive)
REMARK    1  A    between atoms: N_5  and  C_12
REMARK    2  A    between atoms: N_6  and  C_13
REMARK    3  A    between atoms: N_9  and  C_26
REMARK    4  A    between atoms: N_9  and  C_30
REMARK    5  A    between atoms: N_9  and  C_31
REMARK    6  A    between atoms: C_16  and  C_18
REMARK    7  A    between atoms: C_21  and  C_27
REMARK                            x       y       z     vdW  Elec       q    Type
REMARK                         _______ _______ _______ _____ _____    ______ ____
ROOT
ATOM      2  O   UNL     1       9.653  11.928  12.315  0.00  0.00    -0.370 OA
ATOM      3  O   UNL     1      10.923  14.132  10.542  0.00  0.00    -0.370 OA
ATOM     10  C   UNL     1      10.884  12.698  10.434  0.00  0.00    +0.171 C 
ATOM     11  C   UNL     1      10.995  12.141  11.840  0.00  0.00    +0.171 C 
ATOM     12  C   UNL     1       9.520  12.245   9.962  0.00  0.00    +0.130 C 
ATOM     13  C   UNL     1      11.655  13.250  12.624  0.00  0.00    +0.130 C 
ATOM     14  C   UNL     1       8.728  12.230  11.259  0.00  0.00    +0.185 C 
ATOM     15  C   UNL     1      11.171  14.498  11.908  0.00  0.00    +0.185 C 
ENDROOT
BRANCH  13   6
ATOM      6  N   UNL     1      13.095  13.140  12.522  0.00  0.00    -0.306 N 
ATOM      7  N   UNL     1      13.212  11.585  14.275  0.00  0.00    -0.214 NA
ATOM      8  N   UNL     1      15.204  12.310  13.129  0.00  0.00    -0.223 NA
ATOM     17  C   UNL     1      13.859  12.320  13.332  0.00  0.00    +0.216 A 
ATOM     21  C   UNL     1      13.988  10.797  15.048  0.00  0.00    +0.076 A 
ATOM     22  C   UNL     1      15.918  11.500  13.937  0.00  0.00    +0.116 A 
ATOM     23  C   UNL     1      15.360  10.713  14.923  0.00  0.00    +0.048 A 
ATOM     36  H   UNL     1      13.581  13.643  11.788  0.00  0.00    +0.149 HD
BRANCH  21  27
ATOM      1  F   UNL     1      10.139   8.225  16.421  0.00  0.00    -0.205 F 
ATOM     27  C   UNL     1      13.279  10.025  16.040  0.00  0.00    +0.003 A 
ATOM     28  C   UNL     1      12.025   9.487  15.747  0.00  0.00    +0.048 A 
ATOM     29  C   UNL     1      13.848   9.812  17.299  0.00  0.00    +0.010 A 
ATOM     32  C   UNL     1      11.342   8.740  16.706  0.00  0.00    +0.124 A 
ATOM     33  C   UNL     1      13.164   9.065  18.258  0.00  0.00    +0.003 A 
ATOM     34  C   UNL     1      11.911   8.529  17.962  0.00  0.00    +0.038 A 
ENDBRANCH  21  27
ENDBRANCH  13   6
BRANCH  12   5
ATOM      4  O   UNL     1      10.230  11.500   7.268  0.00  0.00    -0.270 OA
ATOM      5  N   UNL     1       9.591  10.891   9.412  0.00  0.00    -0.304 N 
ATOM     16  C   UNL     1       9.946  10.638   8.095  0.00  0.00    +0.244 C 
ATOM     35  H   UNL     1       9.260  10.139  10.007  0.00  0.00    +0.149 HD
BRANCH  16  18
ATOM     18  C   UNL     1       9.945   9.210   7.685  0.00  0.00    +0.037 A 
ATOM     19  C   UNL     1      10.862   8.785   6.746  0.00  0.00    +0.015 A 
ATOM     20  C   UNL     1       9.025   8.355   8.256  0.00  0.00    +0.015 A 
ATOM     24  C   UNL     1      10.861   7.444   6.362  0.00  0.00    +0.024 A 
ATOM     25  C   UNL     1       9.024   7.014   7.872  0.00  0.00    +0.024 A 
ATOM     26  C   UNL     1       9.942   6.558   6.926  0.00  0.00    +0.029 A 
BRANCH  26   9
ATOM      9  N   UNL     1       9.942   5.202   6.539  0.00  0.00    -0.336 N 
ATOM     30  C   UNL     1      10.104   4.835   5.146  0.00  0.00    +0.129 C 
ATOM     31  C   UNL     1       9.765   4.157   7.527  0.00  0.00    +0.129 C 
ENDBRANCH  26   9
ENDBRANCH  16  18
ENDBRANCH  12   5
TORSDOF 5
ENDMDL
MODEL 7
REMARK VINA RESULT:      -7.2      5.856     10.723
REMARK  Name = 11911909
REMARK  7 active torsions:
REMARK  status: ('A' for Active; 'I' for Inactive)
REMARK    1  A    between atoms: N_5  and  C_12
REMARK    2  A    between atoms: N_6  and  C_13
REMARK    3  A    between atoms: N_9  and  C_26
REMARK    4  A    between atoms: N_9  and  C_30
REMARK    5  A    between atoms: N_9  and  C_31
REMARK    6  A    between atoms: C_16  and  C_18
REMARK    7  A    between atoms: C_21  and  C_27
REMARK                            x       y       z     vdW  Elec       q    Type
REMARK                         _______ _______ _______ _____ _____    ______ ____
ROOT
ATOM      2  O   UNL     1      -6.548 -12.728  17.540  0.00  0.00    -0.370 OA
ATOM      3  O   UNL     1      -5.072 -11.423  19.934  0.00  0.00    -0.370 OA
ATOM     10  C   UNL     1      -5.939 -10.890  18.916  0.00  0.00    +0.171 C 
ATOM     11  C   UNL     1      -5.625 -11.629  17.630  0.00  0.00    +0.171 C 
ATOM     12  C   UNL     1      -7.378 -11.252  19.211  0.00  0.00    +0.130 C 
ATOM     13  C   UNL     1      -4.220 -12.145  17.836  0.00  0.00    +0.130 C 
ATOM     14  C   UNL     1      -7.470 -12.658  18.640  0.00  0.00    +0.185 C 
ATOM     15  C   UNL     1      -4.160 -12.358  19.337  0.00  0.00    +0.185 C 
ENDROOT
BRANCH  13   6
ATOM      6  N   UNL     1      -3.259 -11.140  17.433  0.00  0.00    -0.306 N 
ATOM      7  N   UNL     1      -3.243 -11.888  15.210  0.00  0.00    -0.214 NA
ATOM      8  N   UNL     1      -1.880 -10.023  15.898  0.00  0.00    -0.223 NA
ATOM     17  C   UNL     1      -2.780 -11.013  16.142  0.00  0.00    +0.216 A 
ATOM     21  C   UNL     1      -2.754 -11.735  13.961  0.00  0.00    +0.076 A 
ATOM     22  C   UNL     1      -1.434  -9.929  14.628  0.00  0.00    +0.116 A 
ATOM     23  C   UNL     1      -1.840 -10.764  13.608  0.00  0.00    +0.048 A 
ATOM     36  H   UNL     1      -2.948 -10.451  18.108  0.00  0.00    +0.149 HD
BRANCH  21  27
ATOM      1  F   UNL     1      -3.707 -12.952   9.385  0.00  0.00    -0.205 F 
ATOM     27  C   UNL     1      -3.260 -12.673  12.987  0.00  0.00    +0.003 A 
ATOM     28  C   UNL     1      -3.240 -12.354  11.628  0.00  0.00    +0.048 A 
ATOM     29  C   UNL     1      -3.772 -13.905  13.402  0.00  0.00    +0.010 A 
ATOM     32  C   UNL     1      -3.728 -13.262  10.689  0.00  0.00    +0.124 A 
ATOM     33  C   UNL     1      -4.261 -14.813  12.462  0.00  0.00    +0.003 A 
ATOM     34  C   UNL     1      -4.240 -14.491  11.105  0.00  0.00    +0.038 A 
ENDBRANCH  21  27
ENDBRANCH  13   6
BRANCH  12   5
ATOM      4  O   UNL     1     -10.154 -10.754  19.807  0.00  0.00    -0.270 OA
ATOM      5  N   UNL     1      -8.288 -10.365  18.487  0.00  0.00    -0.304 N 
ATOM     16  C   UNL     1      -9.614 -10.194  18.857  0.00  0.00    +0.244 C 
ATOM     35  H   UNL     1      -7.940  -9.958  17.625  0.00  0.00    +0.149 HD
BRANCH  16  18
ATOM     18  C   UNL     1     -10.414  -9.278  18.003  0.00  0.00    +0.037 A 
ATOM     19  C   UNL     1     -11.743  -9.569  17.776  0.00  0.00    +0.015 A 
ATOM     20  C   UNL     1      -9.801  -8.167  17.464  0.00  0.00    +0.015 A 
ATOM     24  C   UNL     1     -12.493  -8.709  16.974  0.00  0.00    +0.024 A 
ATOM     25  C   UNL     1     -10.551  -7.306  16.662  0.00  0.00    +0.024 A 
ATOM     26  C   UNL     1     -11.897  -7.577  16.417  0.00  0.00    +0.029 A 
BRANCH  26   9
ATOM      9  N   UNL     1     -12.656  -6.706  15.608  0.00  0.00    -0.336 N 
ATOM     30  C   UNL     1     -14.105  -6.740  15.650  0.00  0.00    +0.129 C 
ATOM     31  C   UNL     1     -11.998  -5.776  14.713  0.00  0.00    +0.129 C 
ENDBRANCH  26   9
ENDBRANCH  16  18
ENDBRANCH  12   5
TORSDOF 5
ENDMDL
MODEL 8
REMARK VINA RESULT:      -7.1     24.165     26.365
REMARK  Name = 11911909
REMARK  7 active torsions:
REMARK  status: ('A' for Active; 'I' for Inactive)
REMARK    1  A    between atoms: N_5  and  C_12
REMARK    2  A    between atoms: N_6  and  C_13
REMARK    3  A    between atoms: N_9  and  C_26
REMARK    4  A    between atoms: N_9  and  C_30
REMARK    5  A    between atoms: N_9  and  C_31
REMARK    6  A    between atoms: C_16  and  C_18
REMARK    7  A    between atoms: C_21  and  C_27
REMARK                            x       y       z     vdW  Elec       q    Type
REMARK                         _______ _______ _______ _____ _____    ______ ____
ROOT
ATOM      2  O   UNL     1       8.725  11.026  10.760  0.00  0.00    -0.370 OA
ATOM      3  O   UNL     1       9.984  13.525   9.427  0.00  0.00    -0.370 OA
ATOM     10  C   UNL     1       8.641  13.009   9.454  0.00  0.00    +0.171 C 
ATOM     11  C   UNL     1       8.743  11.497   9.401  0.00  0.00    +0.171 C 
ATOM     12  C   UNL     1       7.999  13.291  10.794  0.00  0.00    +0.130 C 
ATOM     13  C   UNL     1      10.096  11.241   8.779  0.00  0.00    +0.130 C 
ATOM     14  C   UNL     1       8.524  12.142  11.641  0.00  0.00    +0.185 C 
ATOM     15  C   UNL     1      10.905  12.440   9.239  0.00  0.00    +0.185 C 
ENDROOT
BRANCH  13   6
ATOM      6  N   UNL     1       9.985  11.234   7.336  0.00  0.00    -0.306 N 
ATOM      7  N   UNL     1       9.793   8.898   7.252  0.00  0.00    -0.214 NA
ATOM      8  N   UNL     1       9.740  10.217   5.236  0.00  0.00    -0.223 NA
ATOM     17  C   UNL     1       9.834  10.082   6.586  0.00  0.00    +0.216 A 
ATOM     21  C   UNL     1       9.646   7.794   6.489  0.00  0.00    +0.076 A 
ATOM     22  C   UNL     1       9.595   9.072   4.536  0.00  0.00    +0.116 A 
ATOM     23  C   UNL     1       9.540   7.821   5.113  0.00  0.00    +0.048 A 
ATOM     36  H   UNL     1       9.962  12.115   6.835  0.00  0.00    +0.149 HD
BRANCH  21  27
ATOM      1  F   UNL     1       8.571   5.277  10.468  0.00  0.00    -0.205 F 
ATOM     27  C   UNL     1       9.603   6.548   7.217  0.00  0.00    +0.003 A 
ATOM     28  C   UNL     1       9.098   6.512   8.518  0.00  0.00    +0.048 A 
ATOM     29  C   UNL     1      10.065   5.372   6.620  0.00  0.00    +0.010 A 
ATOM     32  C   UNL     1       9.056   5.308   9.220  0.00  0.00    +0.124 A 
ATOM     33  C   UNL     1      10.023   4.168   7.323  0.00  0.00    +0.003 A 
ATOM     34  C   UNL     1       9.519   4.136   8.623  0.00  0.00    +0.038 A 
ENDBRANCH  21  27
ENDBRANCH  13   6
BRANCH  12   5
ATOM      4  O   UNL     1       6.280  14.851   9.084  0.00  0.00    -0.270 OA
ATOM      5  N   UNL     1       6.542  13.203  10.694  0.00  0.00    -0.304 N 
ATOM     16  C   UNL     1       5.804  14.003   9.834  0.00  0.00    +0.244 C 
ATOM     35  H   UNL     1       6.073  12.604  11.365  0.00  0.00    +0.149 HD
BRANCH  16  18
ATOM     18  C   UNL     1       4.331  13.810   9.870  0.00  0.00    +0.037 A 
ATOM     19  C   UNL     1       3.710  13.221   8.789  0.00  0.00    +0.015 A 
ATOM     20  C   UNL     1       3.633  14.227  10.984  0.00  0.00    +0.015 A 
ATOM     24  C   UNL     1       2.327  13.040   8.823  0.00  0.00    +0.024 A 
ATOM     25  C   UNL     1       2.250  14.046  11.019  0.00  0.00    +0.024 A 
ATOM     26  C   UNL     1       1.597  13.452   9.939  0.00  0.00    +0.029 A 
BRANCH  26   9
ATOM      9  N   UNL     1       0.200  13.267   9.975  0.00  0.00    -0.336 N 
ATOM     30  C   UNL     1      -0.566  13.677  11.135  0.00  0.00    +0.129 C 
ATOM     31  C   UNL     1      -0.488  12.650   8.858  0.00  0.00    +0.129 C 
ENDBRANCH  26   9
ENDBRANCH  16  18
ENDBRANCH  12   5
TORSDOF 5
ENDMDL
MODEL 9
REMARK VINA RESULT:      -7.0     22.953     24.715
REMARK  Name = 11911909
REMARK  7 active torsions:
REMARK  status: ('A' for Active; 'I' for Inactive)
REMARK    1  A    between atoms: N_5  and  C_12
REMARK    2  A    between atoms: N_6  and  C_13
REMARK    3  A    between atoms: N_9  and  C_26
REMARK    4  A    between atoms: N_9  and  C_30
REMARK    5  A    between atoms: N_9  and  C_31
REMARK    6  A    between atoms: C_16  and  C_18
REMARK    7  A    between atoms: C_21  and  C_27
REMARK                            x       y       z     vdW  Elec       q    Type
REMARK                         _______ _______ _______ _____ _____    ______ ____
ROOT
ATOM      2  O   UNL     1       4.193  10.958   3.466  0.00  0.00    -0.370 OA
ATOM      3  O   UNL     1       5.551  13.617   4.300  0.00  0.00    -0.370 OA
ATOM     10  C   UNL     1       5.627  12.279   4.823  0.00  0.00    +0.171 C 
ATOM     11  C   UNL     1       4.240  11.675   4.712  0.00  0.00    +0.171 C 
ATOM     12  C   UNL     1       6.482  11.413   3.925  0.00  0.00    +0.130 C 
ATOM     13  C   UNL     1       3.322  12.873   4.658  0.00  0.00    +0.130 C 
ATOM     14  C   UNL     1       5.489  11.002   2.849  0.00  0.00    +0.185 C 
ATOM     15  C   UNL     1       4.184  13.924   3.984  0.00  0.00    +0.185 C 
ENDROOT
BRANCH  13   6
ATOM      6  N   UNL     1       2.976  13.293   5.999  0.00  0.00    -0.306 N 
ATOM      7  N   UNL     1       1.065  11.934   6.052  0.00  0.00    -0.214 NA
ATOM      8  N   UNL     1       1.659  13.306   7.942  0.00  0.00    -0.223 NA
ATOM     17  C   UNL     1       1.868  12.830   6.685  0.00  0.00    +0.216 A 
ATOM     21  C   UNL     1      -0.008  11.503   6.749  0.00  0.00    +0.076 A 
ATOM     22  C   UNL     1       0.569  12.833   8.580  0.00  0.00    +0.116 A 
ATOM     23  C   UNL     1      -0.309  11.922   8.029  0.00  0.00    +0.048 A 
ATOM     36  H   UNL     1       3.596  13.921   6.499  0.00  0.00    +0.149 HD
BRANCH  21  27
ATOM      1  F   UNL     1      -1.603   9.485   2.662  0.00  0.00    -0.205 F 
ATOM     27  C   UNL     1      -0.844  10.551   6.059  0.00  0.00    +0.003 A 
ATOM     28  C   UNL     1      -0.820  10.476   4.665  0.00  0.00    +0.048 A 
ATOM     29  C   UNL     1      -1.681   9.699   6.784  0.00  0.00    +0.010 A 
ATOM     32  C   UNL     1      -1.628   9.555   3.999  0.00  0.00    +0.124 A 
ATOM     33  C   UNL     1      -2.490   8.778   6.118  0.00  0.00    +0.003 A 
ATOM     34  C   UNL     1      -2.463   8.706   4.725  0.00  0.00    +0.038 A 
ENDBRANCH  21  27
ENDBRANCH  13   6
BRANCH  12   5
ATOM      4  O   UNL     1       9.072  11.020   5.130  0.00  0.00    -0.270 OA
ATOM      5  N   UNL     1       6.947  10.228   4.645  0.00  0.00    -0.304 N 
ATOM     16  C   UNL     1       8.220  10.139   5.191  0.00  0.00    +0.244 C 
ATOM     35  H   UNL     1       6.335   9.419   4.636  0.00  0.00    +0.149 HD
BRANCH  16  18
ATOM     18  C   UNL     1       8.547   8.857   5.869  0.00  0.00    +0.037 A 
ATOM     19  C   UNL     1       9.024   8.890   7.162  0.00  0.00    +0.015 A 
ATOM     20  C   UNL     1       8.363   7.676   5.181  0.00  0.00    +0.015 A 
ATOM     24  C   UNL     1       9.331   7.687   7.798  0.00  0.00    +0.024 A 
ATOM     25  C   UNL     1       8.670   6.472   5.817  0.00  0.00    +0.024 A 
ATOM     26  C   UNL     1       9.153   6.477   7.125  0.00  0.00    +0.029 A 
BRANCH  26   9
ATOM      9  N   UNL     1       9.461   5.261   7.768  0.00  0.00    -0.336 N 
ATOM     30  C   UNL     1       9.820   4.090   6.993  0.00  0.00    +0.129 C 
ATOM     31  C   UNL     1       9.409   5.161   9.213  0.00  0.00    +0.129 C 
ENDBRANCH  26   9
ENDBRANCH  16  18
ENDBRANCH  12   5
TORSDOF 5
ENDMDL
MODEL 10
REMARK VINA RESULT:      -7.0      7.271     12.652
REMARK  Name = 11911909
REMARK  7 active torsions:
REMARK  status: ('A' for Active; 'I' for Inactive)
REMARK    1  A    between atoms: N_5  and  C_12
REMARK    2  A    between atoms: N_6  and  C_13
REMARK    3  A    between atoms: N_9  and  C_26
REMARK    4  A    between atoms: N_9  and  C_30
REMARK    5  A    between atoms: N_9  and  C_31
REMARK    6  A    between atoms: C_16  and  C_18
REMARK    7  A    between atoms: C_21  and  C_27
REMARK                            x       y       z     vdW  Elec       q    Type
REMARK                         _______ _______ _______ _____ _____    ______ ____
ROOT
ATOM      2  O   UNL     1     -10.203  -7.253  16.147  0.00  0.00    -0.370 OA
ATOM      3  O   UNL     1     -10.073 -10.333  15.820  0.00  0.00    -0.370 OA
ATOM     10  C   UNL     1     -10.879  -9.475  16.647  0.00  0.00    +0.171 C 
ATOM     11  C   UNL     1      -9.998  -8.322  17.088  0.00  0.00    +0.171 C 
ATOM     12  C   UNL     1     -11.964  -8.819  15.821  0.00  0.00    +0.130 C 
ATOM     13  C   UNL     1      -8.594  -8.865  16.961  0.00  0.00    +0.130 C 
ATOM     14  C   UNL     1     -11.222  -7.640  15.212  0.00  0.00    +0.185 C 
ATOM     15  C   UNL     1      -8.720  -9.854  15.817  0.00  0.00    +0.185 C 
ENDROOT
BRANCH  13   6
ATOM      6  N   UNL     1      -8.217  -9.551  18.179  0.00  0.00    -0.306 N 
ATOM      7  N   UNL     1      -6.117 -10.152  17.321  0.00  0.00    -0.214 NA
ATOM      8  N   UNL     1      -6.772 -10.789  19.551  0.00  0.00    -0.223 NA
ATOM     17  C   UNL     1      -6.999 -10.182  18.356  0.00  0.00    +0.216 A 
ATOM     21  C   UNL     1      -4.940 -10.778  17.528  0.00  0.00    +0.076 A 
ATOM     22  C   UNL     1      -5.574 -11.395  19.689  0.00  0.00    +0.116 A 
ATOM     23  C   UNL     1      -4.609 -11.422  18.703  0.00  0.00    +0.048 A 
ATOM     36  H   UNL     1      -8.845  -9.535  18.974  0.00  0.00    +0.149 HD
BRANCH  21  27
ATOM      1  F   UNL     1      -0.433 -10.621  15.798  0.00  0.00    -0.205 F 
ATOM     27  C   UNL     1      -4.019 -10.731  16.417  0.00  0.00    +0.003 A 
ATOM     28  C   UNL     1      -2.642 -10.698  16.648  0.00  0.00    +0.048 A 
ATOM     29  C   UNL     1      -4.503 -10.721  15.107  0.00  0.00    +0.010 A 
ATOM     32  C   UNL     1      -1.754 -10.653  15.574  0.00  0.00    +0.124 A 
ATOM     33  C   UNL     1      -3.613 -10.676  14.033  0.00  0.00    +0.003 A 
ATOM     34  C   UNL     1      -2.239 -10.642  14.266  0.00  0.00    +0.038 A 
ENDBRANCH  21  27
ENDBRANCH  13   6
BRANCH  12   5
ATOM      4  O   UNL     1     -14.756  -9.522  15.671  0.00  0.00    -0.270 OA
ATOM      5  N   UNL     1     -13.041  -8.333  16.682  0.00  0.00    -0.304 N 
ATOM     16  C   UNL     1     -14.360  -8.735  16.526  0.00  0.00    +0.244 C 
ATOM     35  H   UNL     1     -12.805  -7.595  17.337  0.00  0.00    +0.149 HD
BRANCH  16  18
ATOM     18  C   UNL     1     -15.339  -8.129  17.465  0.00  0.00    +0.037 A 
ATOM     19  C   UNL     1     -15.921  -6.923  17.135  0.00  0.00    +0.015 A 
ATOM     20  C   UNL     1     -15.634  -8.793  18.638  0.00  0.00    +0.015 A 
ATOM     24  C   UNL     1     -16.841  -6.355  18.017  0.00  0.00    +0.024 A 
ATOM     25  C   UNL     1     -16.554  -8.225  19.520  0.00  0.00    +0.024 A 
ATOM     26  C   UNL     1     -17.158  -7.006  19.209  0.00  0.00    +0.029 A 
BRANCH  26   9
ATOM      9  N   UNL     1     -18.089  -6.433  20.099  0.00  0.00    -0.336 N 
ATOM     30  C   UNL     1     -18.965  -5.365  19.659  0.00  0.00    +0.129 C 
ATOM     31  C   UNL     1     -18.172  -6.893  21.471  0.00  0.00    +0.129 C 
ENDBRANCH  26   9
ENDBRANCH  16  18
ENDBRANCH  12   5
TORSDOF 5
ENDMDL
