MODEL 1
REMARK VINA RESULT:      -6.7      0.000      0.000
REMARK  Name = 7049301
REMARK  11 active torsions:
REMARK  status: ('A' for Active; 'I' for Inactive)
REMARK    1  A    between atoms: O_1  and  C_17
REMARK    2  A    between atoms: O_2  and  C_18
REMARK    3  A    between atoms: N_6  and  C_10
REMARK    4  A    between atoms: N_7  and  C_16
REMARK    5  A    between atoms: N_8  and  C_24
REMARK    6  A    between atoms: C_20  and  C_23
REMARK    7  A    between atoms: C_24  and  C_25
REMARK    8  A    between atoms: C_24  and  C_27
REMARK    9  A    between atoms: C_25  and  C_26
REMARK   10  A    between atoms: C_26  and  C_28
REMARK   11  A    between atoms: C_26  and  C_29
REMARK                            x       y       z     vdW  Elec       q    Type
REMARK                         _______ _______ _______ _____ _____    ______ ____
ROOT
ATOM     16  C   UNL     1      12.133   5.024   1.672  0.00  0.00    +0.129 C 
ATOM     17  C   UNL     1      12.490   6.521   1.589  0.00  0.00    +0.167 C 
ATOM     18  C   UNL     1      12.909   7.077   2.956  0.00  0.00    +0.149 C 
ATOM     19  C   UNL     1      11.833   6.844   4.031  0.00  0.00    +0.074 C 
ATOM     20  C   UNL     1      11.153   5.509   3.913  0.00  0.00    +0.015 C 
ATOM     21  C   UNL     1      11.285   4.680   2.867  0.00  0.00    +0.006 C 
ENDROOT
BRANCH  16   7
ATOM      3  O   UNL     1      13.034   2.978  -0.153  0.00  0.00    -0.253 OA
ATOM      6  N   UNL     1      11.128   3.327  -1.429  0.00  0.00    -0.297 N 
ATOM      7  N   UNL     1      11.465   4.569   0.479  0.00  0.00    -0.291 N 
ATOM     22  C   UNL     1      11.974   3.570  -0.349  0.00  0.00    +0.300 C 
ATOM     30  H   UNL     1      10.239   3.818  -1.460  0.00  0.00    +0.151 HD
ATOM     31  H   UNL     1      10.603   5.028   0.198  0.00  0.00    +0.151 HD
BRANCH   6  10
ATOM     10  C   UNL     1      11.417   2.339  -2.444  0.00  0.00    +0.074 C 
ATOM     11  C   UNL     1      10.126   1.752  -3.023  0.00  0.00    +0.022 C 
ATOM     12  C   UNL     1      12.305   2.924  -3.546  0.00  0.00    +0.022 C 
ATOM     13  C   UNL     1       9.380   2.746  -3.914  0.00  0.00    +0.002 C 
ATOM     14  C   UNL     1      11.556   3.916  -4.436  0.00  0.00    +0.002 C 
ATOM     15  C   UNL     1      10.281   3.307  -5.010  0.00  0.00    +0.000 C 
ENDBRANCH   6  10
ENDBRANCH  16   7
BRANCH  20  23
ATOM      4  O   UNL     1       9.800   3.949   5.019  0.00  0.00    -0.271 OA
ATOM      8  N   UNL     1      10.159   6.032   6.005  0.00  0.00    -0.300 N 
ATOM     23  C   UNL     1      10.303   5.068   5.023  0.00  0.00    +0.241 C 
ATOM     33  H   UNL     1      10.725   6.872   5.986  0.00  0.00    +0.150 HD
BRANCH   8  24
ATOM     24  C   UNL     1       9.367   5.831   7.190  0.00  0.00    +0.159 C 
BRANCH  24  27
ATOM      5  O   UNL     1      10.964   5.760   9.023  0.00  0.00    -0.274 OA
ATOM      9  N   UNL     1      10.175   3.775   8.176  0.00  0.00    -0.328 N 
ATOM     27  C   UNL     1      10.265   5.151   8.215  0.00  0.00    +0.231 C 
ATOM     35  H   UNL     1       9.577   3.286   7.519  0.00  0.00    +0.145 HD
ATOM     36  H   UNL     1      10.713   3.200   8.816  0.00  0.00    +0.145 HD
ENDBRANCH  24  27
BRANCH  24  25
ATOM     25  C   UNL     1       8.820   7.148   7.755  0.00  0.00    +0.034 C 
BRANCH  25  26
ATOM     26  C   UNL     1       9.335   8.419   7.049  0.00  0.00    -0.015 C 
ATOM     28  C   UNL     1       9.591   9.517   8.085  0.00  0.00    +0.007 C 
ATOM     29  C   UNL     1       8.359   8.931   5.988  0.00  0.00    +0.007 C 
ENDBRANCH  25  26
ENDBRANCH  24  25
ENDBRANCH   8  24
ENDBRANCH  20  23
BRANCH  17   1
ATOM      1  O   UNL     1      11.358   7.257   1.121  0.00  0.00    -0.387 OA
ATOM     32  H   UNL     1      11.566   8.202   1.214  0.00  0.00    +0.210 HD
ENDBRANCH  17   1
BRANCH  18   2
ATOM      2  O   UNL     1      14.144   6.492   3.365  0.00  0.00    -0.389 OA
ATOM     34  H   UNL     1      14.511   6.017   2.599  0.00  0.00    +0.210 HD
ENDBRANCH  18   2
TORSDOF 9
ENDMDL
MODEL 2
REMARK VINA RESULT:      -6.5     14.755     18.167
REMARK  Name = 7049301
REMARK  11 active torsions:
REMARK  status: ('A' for Active; 'I' for Inactive)
REMARK    1  A    between atoms: O_1  and  C_17
REMARK    2  A    between atoms: O_2  and  C_18
REMARK    3  A    between atoms: N_6  and  C_10
REMARK    4  A    between atoms: N_7  and  C_16
REMARK    5  A    between atoms: N_8  and  C_24
REMARK    6  A    between atoms: C_20  and  C_23
REMARK    7  A    between atoms: C_24  and  C_25
REMARK    8  A    between atoms: C_24  and  C_27
REMARK    9  A    between atoms: C_25  and  C_26
REMARK   10  A    between atoms: C_26  and  C_28
REMARK   11  A    between atoms: C_26  and  C_29
REMARK                            x       y       z     vdW  Elec       q    Type
REMARK                         _______ _______ _______ _____ _____    ______ ____
ROOT
ATOM     16  C   UNL     1      12.558   8.907  18.584  0.00  0.00    +0.129 C 
ATOM     17  C   UNL     1      13.601   7.811  18.877  0.00  0.00    +0.167 C 
ATOM     18  C   UNL     1      13.090   6.814  19.925  0.00  0.00    +0.149 C 
ATOM     19  C   UNL     1      12.669   7.511  21.230  0.00  0.00    +0.074 C 
ATOM     20  C   UNL     1      11.972   8.823  21.007  0.00  0.00    +0.015 C 
ATOM     21  C   UNL     1      11.907   9.455  19.825  0.00  0.00    +0.006 C 
ENDROOT
BRANCH  16   7
ATOM      3  O   UNL     1      12.942   9.044  15.728  0.00  0.00    -0.253 OA
ATOM      6  N   UNL     1      13.855  11.160  15.987  0.00  0.00    -0.297 N 
ATOM      7  N   UNL     1      13.129   9.999  17.835  0.00  0.00    -0.291 N 
ATOM     22  C   UNL     1      13.278   9.980  16.450  0.00  0.00    +0.300 C 
ATOM     30  H   UNL     1      14.028  11.903  16.658  0.00  0.00    +0.151 HD
ATOM     31  H   UNL     1      13.485  10.804  18.343  0.00  0.00    +0.151 HD
BRANCH   6  10
ATOM     10  C   UNL     1      14.123  11.405  14.588  0.00  0.00    +0.074 C 
ATOM     11  C   UNL     1      13.804  12.857  14.212  0.00  0.00    +0.022 C 
ATOM     12  C   UNL     1      15.569  11.044  14.231  0.00  0.00    +0.022 C 
ATOM     13  C   UNL     1      14.817  13.846  14.789  0.00  0.00    +0.002 C 
ATOM     14  C   UNL     1      16.579  12.036  14.808  0.00  0.00    +0.002 C 
ATOM     15  C   UNL     1      16.247  13.472  14.412  0.00  0.00    +0.000 C 
ENDBRANCH   6  10
ENDBRANCH  16   7
BRANCH  20  23
ATOM      4  O   UNL     1      10.611   8.780  22.913  0.00  0.00    -0.271 OA
ATOM      8  N   UNL     1      11.530  10.811  22.227  0.00  0.00    -0.300 N 
ATOM     23  C   UNL     1      11.298   9.449  22.147  0.00  0.00    +0.241 C 
ATOM     33  H   UNL     1      12.222  11.248  21.631  0.00  0.00    +0.150 HD
BRANCH   8  24
ATOM     24  C   UNL     1      10.971  11.642  23.261  0.00  0.00    +0.159 C 
BRANCH  24  27
ATOM      5  O   UNL     1      12.903  12.140  24.651  0.00  0.00    -0.274 OA
ATOM      9  N   UNL     1      11.371  10.605  25.409  0.00  0.00    -0.328 N 
ATOM     27  C   UNL     1      11.868  11.498  24.482  0.00  0.00    +0.231 C 
ATOM     35  H   UNL     1      10.504  10.098  25.267  0.00  0.00    +0.145 HD
ATOM     36  H   UNL     1      11.867  10.424  26.276  0.00  0.00    +0.145 HD
ENDBRANCH  24  27
BRANCH  24  25
ATOM     25  C   UNL     1      10.881  13.114  22.839  0.00  0.00    +0.034 C 
BRANCH  25  26
ATOM     26  C   UNL     1      11.540  13.440  21.483  0.00  0.00    -0.015 C 
ATOM     28  C   UNL     1      12.939  14.017  21.714  0.00  0.00    +0.007 C 
ATOM     29  C   UNL     1      10.710  14.421  20.653  0.00  0.00    +0.007 C 
ENDBRANCH  25  26
ENDBRANCH  24  25
ENDBRANCH   8  24
ENDBRANCH  20  23
BRANCH  17   1
ATOM      1  O   UNL     1      14.803   8.412  19.362  0.00  0.00    -0.387 OA
ATOM     32  H   UNL     1      14.816   8.300  20.327  0.00  0.00    +0.210 HD
ENDBRANCH  17   1
BRANCH  18   2
ATOM      2  O   UNL     1      12.000   6.063  19.397  0.00  0.00    -0.389 OA
ATOM     34  H   UNL     1      12.321   5.595  18.606  0.00  0.00    +0.210 HD
ENDBRANCH  18   2
TORSDOF 9
ENDMDL
MODEL 3
REMARK VINA RESULT:      -6.4     32.099     36.057
REMARK  Name = 7049301
REMARK  11 active torsions:
REMARK  status: ('A' for Active; 'I' for Inactive)
REMARK    1  A    between atoms: O_1  and  C_17
REMARK    2  A    between atoms: O_2  and  C_18
REMARK    3  A    between atoms: N_6  and  C_10
REMARK    4  A    between atoms: N_7  and  C_16
REMARK    5  A    between atoms: N_8  and  C_24
REMARK    6  A    between atoms: C_20  and  C_23
REMARK    7  A    between atoms: C_24  and  C_25
REMARK    8  A    between atoms: C_24  and  C_27
REMARK    9  A    between atoms: C_25  and  C_26
REMARK   10  A    between atoms: C_26  and  C_28
REMARK   11  A    between atoms: C_26  and  C_29
REMARK                            x       y       z     vdW  Elec       q    Type
REMARK                         _______ _______ _______ _____ _____    ______ ____
ROOT
ATOM     16  C   UNL     1     -16.934   4.148  25.470  0.00  0.00    +0.129 C 
ATOM     17  C   UNL     1     -16.897   2.872  24.608  0.00  0.00    +0.167 C 
ATOM     18  C   UNL     1     -17.495   1.671  25.352  0.00  0.00    +0.149 C 
ATOM     19  C   UNL     1     -16.800   1.423  26.703  0.00  0.00    +0.074 C 
ATOM     20  C   UNL     1     -16.446   2.687  27.432  0.00  0.00    +0.015 C 
ATOM     21  C   UNL     1     -16.510   3.915  26.895  0.00  0.00    +0.006 C 
ENDROOT
BRANCH  16   7
ATOM      3  O   UNL     1     -17.510   5.724  23.123  0.00  0.00    -0.253 OA
ATOM      6  N   UNL     1     -15.514   6.861  23.439  0.00  0.00    -0.297 N 
ATOM      7  N   UNL     1     -16.121   5.196  24.906  0.00  0.00    -0.291 N 
ATOM     22  C   UNL     1     -16.477   5.909  23.764  0.00  0.00    +0.300 C 
ATOM     30  H   UNL     1     -14.732   6.986  24.076  0.00  0.00    +0.151 HD
ATOM     31  H   UNL     1     -15.220   5.397  25.332  0.00  0.00    +0.151 HD
BRANCH   6  10
ATOM     10  C   UNL     1     -15.633   7.740  22.297  0.00  0.00    +0.074 C 
ATOM     11  C   UNL     1     -15.168   9.159  22.644  0.00  0.00    +0.022 C 
ATOM     12  C   UNL     1     -14.868   7.184  21.092  0.00  0.00    +0.022 C 
ATOM     13  C   UNL     1     -13.652   9.252  22.815  0.00  0.00    +0.002 C 
ATOM     14  C   UNL     1     -13.353   7.281  21.265  0.00  0.00    +0.002 C 
ATOM     15  C   UNL     1     -12.913   8.703  21.598  0.00  0.00    +0.000 C 
ENDBRANCH   6  10
ENDBRANCH  16   7
BRANCH  20  23
ATOM      4  O   UNL     1     -16.325   3.448  29.644  0.00  0.00    -0.271 OA
ATOM      8  N   UNL     1     -15.277   1.442  29.081  0.00  0.00    -0.300 N 
ATOM     23  C   UNL     1     -16.021   2.581  28.831  0.00  0.00    +0.241 C 
ATOM     33  H   UNL     1     -15.197   0.718  28.378  0.00  0.00    +0.150 HD
BRANCH   8  24
ATOM     24  C   UNL     1     -14.746   1.122  30.380  0.00  0.00    +0.159 C 
BRANCH  24  27
ATOM      5  O   UNL     1     -13.170  -0.673  29.930  0.00  0.00    -0.274 OA
ATOM      9  N   UNL     1     -15.219  -1.209  30.819  0.00  0.00    -0.328 N 
ATOM     27  C   UNL     1     -14.280  -0.326  30.327  0.00  0.00    +0.231 C 
ATOM     35  H   UNL     1     -16.123  -0.907  31.164  0.00  0.00    +0.145 HD
ATOM     36  H   UNL     1     -15.030  -2.206  30.852  0.00  0.00    +0.145 HD
ENDBRANCH  24  27
BRANCH  24  25
ATOM     25  C   UNL     1     -13.583   2.040  30.776  0.00  0.00    +0.034 C 
BRANCH  25  26
ATOM     26  C   UNL     1     -13.661   2.603  32.209  0.00  0.00    -0.015 C 
ATOM     28  C   UNL     1     -14.913   2.066  32.908  0.00  0.00    +0.007 C 
ATOM     29  C   UNL     1     -13.674   4.132  32.234  0.00  0.00    +0.007 C 
ENDBRANCH  25  26
ENDBRANCH  24  25
ENDBRANCH   8  24
ENDBRANCH  20  23
BRANCH  17   1
ATOM      1  O   UNL     1     -15.545   2.569  24.259  0.00  0.00    -0.387 OA
ATOM     32  H   UNL     1     -15.426   2.803  23.323  0.00  0.00    +0.210 HD
ENDBRANCH  17   1
BRANCH  18   2
ATOM      2  O   UNL     1     -18.894   1.864  25.550  0.00  0.00    -0.389 OA
ATOM     34  H   UNL     1     -19.004   2.644  26.121  0.00  0.00    +0.210 HD
ENDBRANCH  18   2
TORSDOF 9
ENDMDL
MODEL 4
REMARK VINA RESULT:      -6.4      4.179      7.249
REMARK  Name = 7049301
REMARK  11 active torsions:
REMARK  status: ('A' for Active; 'I' for Inactive)
REMARK    1  A    between atoms: O_1  and  C_17
REMARK    2  A    between atoms: O_2  and  C_18
REMARK    3  A    between atoms: N_6  and  C_10
REMARK    4  A    between atoms: N_7  and  C_16
REMARK    5  A    between atoms: N_8  and  C_24
REMARK    6  A    between atoms: C_20  and  C_23
REMARK    7  A    between atoms: C_24  and  C_25
REMARK    8  A    between atoms: C_24  and  C_27
REMARK    9  A    between atoms: C_25  and  C_26
REMARK   10  A    between atoms: C_26  and  C_28
REMARK   11  A    between atoms: C_26  and  C_29
REMARK                            x       y       z     vdW  Elec       q    Type
REMARK                         _______ _______ _______ _____ _____    ______ ____
ROOT
ATOM     16  C   UNL     1      14.647   6.596   2.403  0.00  0.00    +0.129 C 
ATOM     17  C   UNL     1      14.694   5.313   1.552  0.00  0.00    +0.167 C 
ATOM     18  C   UNL     1      13.320   4.984   0.954  0.00  0.00    +0.149 C 
ATOM     19  C   UNL     1      12.231   4.868   2.035  0.00  0.00    +0.074 C 
ATOM     20  C   UNL     1      12.373   5.881   3.136  0.00  0.00    +0.015 C 
ATOM     21  C   UNL     1      13.446   6.668   3.307  0.00  0.00    +0.006 C 
ENDROOT
BRANCH  16   7
ATOM      3  O   UNL     1      16.466   8.836   2.392  0.00  0.00    -0.253 OA
ATOM      6  N   UNL     1      17.744   7.762   4.002  0.00  0.00    -0.297 N 
ATOM      7  N   UNL     1      15.840   6.752   3.198  0.00  0.00    -0.291 N 
ATOM     22  C   UNL     1      16.665   7.872   3.129  0.00  0.00    +0.300 C 
ATOM     30  H   UNL     1      17.777   6.958   4.622  0.00  0.00    +0.151 HD
ATOM     31  H   UNL     1      16.122   5.988   3.807  0.00  0.00    +0.151 HD
BRANCH   6  10
ATOM     10  C   UNL     1      18.757   8.786   4.130  0.00  0.00    +0.074 C 
ATOM     11  C   UNL     1      18.717   9.427   5.522  0.00  0.00    +0.022 C 
ATOM     12  C   UNL     1      20.148   8.228   3.815  0.00  0.00    +0.022 C 
ATOM     13  C   UNL     1      19.237   8.490   6.612  0.00  0.00    +0.002 C 
ATOM     14  C   UNL     1      20.666   7.293   4.908  0.00  0.00    +0.002 C 
ATOM     15  C   UNL     1      20.627   7.956   6.282  0.00  0.00    +0.000 C 
ENDBRANCH   6  10
ENDBRANCH  16   7
BRANCH  20  23
ATOM      4  O   UNL     1      10.099   5.993   3.683  0.00  0.00    -0.271 OA
ATOM      8  N   UNL     1      11.682   6.238   5.379  0.00  0.00    -0.300 N 
ATOM     23  C   UNL     1      11.260   6.039   4.076  0.00  0.00    +0.241 C 
ATOM     33  H   UNL     1      12.657   6.121   5.625  0.00  0.00    +0.150 HD
BRANCH   8  24
ATOM     24  C   UNL     1      10.771   6.423   6.478  0.00  0.00    +0.159 C 
BRANCH  24  27
ATOM      5  O   UNL     1      10.846   5.367   8.667  0.00  0.00    -0.274 OA
ATOM      9  N   UNL     1      12.828   5.928   7.650  0.00  0.00    -0.328 N 
ATOM     27  C   UNL     1      11.452   5.864   7.719  0.00  0.00    +0.231 C 
ATOM     35  H   UNL     1      13.316   6.320   6.851  0.00  0.00    +0.145 HD
ATOM     36  H   UNL     1      13.404   5.577   8.407  0.00  0.00    +0.145 HD
ENDBRANCH  24  27
BRANCH  24  25
ATOM     25  C   UNL     1      10.408   7.898   6.690  0.00  0.00    +0.034 C 
BRANCH  25  26
ATOM     26  C   UNL     1       8.939   8.254   6.381  0.00  0.00    -0.015 C 
ATOM     28  C   UNL     1       8.091   6.979   6.366  0.00  0.00    +0.007 C 
ATOM     29  C   UNL     1       8.786   8.989   5.048  0.00  0.00    +0.007 C 
ENDBRANCH  25  26
ENDBRANCH  24  25
ENDBRANCH   8  24
ENDBRANCH  20  23
BRANCH  17   1
ATOM      1  O   UNL     1      15.116   4.215   2.364  0.00  0.00    -0.387 OA
ATOM     32  H   UNL     1      15.235   4.550   3.269  0.00  0.00    +0.210 HD
ENDBRANCH  17   1
BRANCH  18   2
ATOM      2  O   UNL     1      12.953   5.972  -0.006  0.00  0.00    -0.389 OA
ATOM     34  H   UNL     1      13.765   6.253  -0.462  0.00  0.00    +0.210 HD
ENDBRANCH  18   2
TORSDOF 9
ENDMDL
MODEL 5
REMARK VINA RESULT:      -6.3     15.910     20.658
REMARK  Name = 7049301
REMARK  11 active torsions:
REMARK  status: ('A' for Active; 'I' for Inactive)
REMARK    1  A    between atoms: O_1  and  C_17
REMARK    2  A    between atoms: O_2  and  C_18
REMARK    3  A    between atoms: N_6  and  C_10
REMARK    4  A    between atoms: N_7  and  C_16
REMARK    5  A    between atoms: N_8  and  C_24
REMARK    6  A    between atoms: C_20  and  C_23
REMARK    7  A    between atoms: C_24  and  C_25
REMARK    8  A    between atoms: C_24  and  C_27
REMARK    9  A    between atoms: C_25  and  C_26
REMARK   10  A    between atoms: C_26  and  C_28
REMARK   11  A    between atoms: C_26  and  C_29
REMARK                            x       y       z     vdW  Elec       q    Type
REMARK                         _______ _______ _______ _____ _____    ______ ____
ROOT
ATOM     16  C   UNL     1      19.968   6.194  21.530  0.00  0.00    +0.129 C 
ATOM     17  C   UNL     1      20.438   7.661  21.478  0.00  0.00    +0.167 C 
ATOM     18  C   UNL     1      19.268   8.634  21.668  0.00  0.00    +0.149 C 
ATOM     19  C   UNL     1      18.146   8.397  20.642  0.00  0.00    +0.074 C 
ATOM     20  C   UNL     1      17.903   6.944  20.349  0.00  0.00    +0.015 C 
ATOM     21  C   UNL     1      18.706   5.946  20.748  0.00  0.00    +0.006 C 
ENDROOT
BRANCH  16   7
ATOM      3  O   UNL     1      21.690   4.536  23.146  0.00  0.00    -0.253 OA
ATOM      6  N   UNL     1      22.685   3.741  21.208  0.00  0.00    -0.297 N 
ATOM      7  N   UNL     1      20.991   5.290  21.065  0.00  0.00    -0.291 N 
ATOM     22  C   UNL     1      21.780   4.524  21.920  0.00  0.00    +0.300 C 
ATOM     30  H   UNL     1      22.629   3.748  20.194  0.00  0.00    +0.151 HD
ATOM     31  H   UNL     1      21.181   5.241  20.068  0.00  0.00    +0.151 HD
BRANCH   6  10
ATOM     10  C   UNL     1      23.626   2.850  21.850  0.00  0.00    +0.074 C 
ATOM     11  C   UNL     1      24.268   1.902  20.832  0.00  0.00    +0.022 C 
ATOM     12  C   UNL     1      24.688   3.635  22.626  0.00  0.00    +0.022 C 
ATOM     13  C   UNL     1      25.260   2.616  19.913  0.00  0.00    +0.002 C 
ATOM     14  C   UNL     1      25.679   4.346  21.704  0.00  0.00    +0.002 C 
ATOM     15  C   UNL     1      26.314   3.381  20.708  0.00  0.00    +0.000 C 
ENDBRANCH   6  10
ENDBRANCH  16   7
BRANCH  20  23
ATOM      4  O   UNL     1      16.705   5.626  18.828  0.00  0.00    -0.271 OA
ATOM      8  N   UNL     1      15.631   7.424  19.855  0.00  0.00    -0.300 N 
ATOM     23  C   UNL     1      16.700   6.584  19.595  0.00  0.00    +0.241 C 
ATOM     33  H   UNL     1      15.683   8.101  20.607  0.00  0.00    +0.150 HD
BRANCH   8  24
ATOM     24  C   UNL     1      14.344   7.272  19.229  0.00  0.00    +0.159 C 
BRANCH  24  27
ATOM      5  O   UNL     1      13.481   7.313  21.503  0.00  0.00    -0.274 OA
ATOM      9  N   UNL     1      12.248   6.254  19.879  0.00  0.00    -0.328 N 
ATOM     27  C   UNL     1      13.347   6.951  20.335  0.00  0.00    +0.231 C 
ATOM     35  H   UNL     1      12.140   5.981  18.908  0.00  0.00    +0.145 HD
ATOM     36  H   UNL     1      11.501   5.987  20.512  0.00  0.00    +0.145 HD
ENDBRANCH  24  27
BRANCH  24  25
ATOM     25  C   UNL     1      13.911   8.534  18.473  0.00  0.00    +0.034 C 
BRANCH  25  26
ATOM     26  C   UNL     1      13.224   8.273  17.117  0.00  0.00    -0.015 C 
ATOM     28  C   UNL     1      14.099   8.815  15.983  0.00  0.00    +0.007 C 
ATOM     29  C   UNL     1      11.832   8.902  17.039  0.00  0.00    +0.007 C 
ENDBRANCH  25  26
ENDBRANCH  24  25
ENDBRANCH   8  24
ENDBRANCH  20  23
BRANCH  17   1
ATOM      1  O   UNL     1      21.053   7.922  20.215  0.00  0.00    -0.387 OA
ATOM     32  H   UNL     1      21.430   7.085  19.895  0.00  0.00    +0.210 HD
ENDBRANCH  17   1
BRANCH  18   2
ATOM      2  O   UNL     1      18.751   8.527  22.993  0.00  0.00    -0.389 OA
ATOM     34  H   UNL     1      17.992   9.131  23.060  0.00  0.00    +0.210 HD
ENDBRANCH  18   2
TORSDOF 9
ENDMDL
MODEL 6
REMARK VINA RESULT:      -6.3     24.637     27.158
REMARK  Name = 7049301
REMARK  11 active torsions:
REMARK  status: ('A' for Active; 'I' for Inactive)
REMARK    1  A    between atoms: O_1  and  C_17
REMARK    2  A    between atoms: O_2  and  C_18
REMARK    3  A    between atoms: N_6  and  C_10
REMARK    4  A    between atoms: N_7  and  C_16
REMARK    5  A    between atoms: N_8  and  C_24
REMARK    6  A    between atoms: C_20  and  C_23
REMARK    7  A    between atoms: C_24  and  C_25
REMARK    8  A    between atoms: C_24  and  C_27
REMARK    9  A    between atoms: C_25  and  C_26
REMARK   10  A    between atoms: C_26  and  C_28
REMARK   11  A    between atoms: C_26  and  C_29
REMARK                            x       y       z     vdW  Elec       q    Type
REMARK                         _______ _______ _______ _____ _____    ______ ____
ROOT
ATOM     16  C   UNL     1      -4.843 -11.640  15.668  0.00  0.00    +0.129 C 
ATOM     17  C   UNL     1      -4.026 -10.898  16.744  0.00  0.00    +0.167 C 
ATOM     18  C   UNL     1      -4.387 -11.378  18.155  0.00  0.00    +0.149 C 
ATOM     19  C   UNL     1      -5.892 -11.246  18.444  0.00  0.00    +0.074 C 
ATOM     20  C   UNL     1      -6.757 -11.591  17.266  0.00  0.00    +0.015 C 
ATOM     21  C   UNL     1      -6.300 -11.778  16.019  0.00  0.00    +0.006 C 
ENDROOT
BRANCH  16   7
ATOM      3  O   UNL     1      -2.953 -12.262  13.578  0.00  0.00    -0.253 OA
ATOM      6  N   UNL     1      -3.898 -10.591  12.275  0.00  0.00    -0.297 N 
ATOM      7  N   UNL     1      -4.731 -11.003  14.380  0.00  0.00    -0.291 N 
ATOM     22  C   UNL     1      -3.784 -11.368  13.426  0.00  0.00    +0.300 C 
ATOM     30  H   UNL     1      -4.666  -9.928  12.221  0.00  0.00    +0.151 HD
ATOM     31  H   UNL     1      -5.340 -10.216  14.171  0.00  0.00    +0.151 HD
BRANCH   6  10
ATOM     10  C   UNL     1      -3.036 -10.760  11.127  0.00  0.00    +0.074 C 
ATOM     11  C   UNL     1      -3.623 -11.779  10.144  0.00  0.00    +0.022 C 
ATOM     12  C   UNL     1      -2.763  -9.419  10.440  0.00  0.00    +0.022 C 
ATOM     13  C   UNL     1      -4.846 -11.238   9.403  0.00  0.00    +0.002 C 
ATOM     14  C   UNL     1      -3.987  -8.882   9.698  0.00  0.00    +0.002 C 
ATOM     15  C   UNL     1      -4.547  -9.908   8.718  0.00  0.00    +0.000 C 
ENDBRANCH   6  10
ENDBRANCH  16   7
BRANCH  20  23
ATOM      4  O   UNL     1      -8.782 -12.756  17.091  0.00  0.00    -0.271 OA
ATOM      8  N   UNL     1      -8.759 -10.687  18.169  0.00  0.00    -0.300 N 
ATOM     23  C   UNL     1      -8.196 -11.754  17.490  0.00  0.00    +0.241 C 
ATOM     33  H   UNL     1      -8.170  -9.973  18.578  0.00  0.00    +0.150 HD
BRANCH   8  24
ATOM     24  C   UNL     1     -10.158 -10.619  18.501  0.00  0.00    +0.159 C 
BRANCH  24  27
ATOM      5  O   UNL     1     -10.128 -12.218  20.333  0.00  0.00    -0.274 OA
ATOM      9  N   UNL     1     -10.571 -10.014  20.806  0.00  0.00    -0.328 N 
ATOM     27  C   UNL     1     -10.293 -11.061  19.952  0.00  0.00    +0.231 C 
ATOM     35  H   UNL     1     -10.682  -9.060  20.480  0.00  0.00    +0.145 HD
ATOM     36  H   UNL     1     -10.674 -10.169  21.803  0.00  0.00    +0.145 HD
ENDBRANCH  24  27
BRANCH  24  25
ATOM     25  C   UNL     1     -10.731  -9.208  18.320  0.00  0.00    +0.034 C 
BRANCH  25  26
ATOM     26  C   UNL     1     -10.958  -8.785  16.854  0.00  0.00    -0.015 C 
ATOM     28  C   UNL     1     -10.100  -7.557  16.534  0.00  0.00    +0.007 C 
ATOM     29  C   UNL     1     -12.426  -8.477  16.557  0.00  0.00    +0.007 C 
ENDBRANCH  25  26
ENDBRANCH  24  25
ENDBRANCH   8  24
ENDBRANCH  20  23
BRANCH  17   1
ATOM      1  O   UNL     1      -4.282  -9.495  16.656  0.00  0.00    -0.387 OA
ATOM     32  H   UNL     1      -4.472  -9.177  17.554  0.00  0.00    +0.210 HD
ENDBRANCH  17   1
BRANCH  18   2
ATOM      2  O   UNL     1      -3.970 -12.730  18.335  0.00  0.00    -0.389 OA
ATOM     34  H   UNL     1      -4.139 -12.967  19.263  0.00  0.00    +0.210 HD
ENDBRANCH  18   2
TORSDOF 9
ENDMDL
MODEL 7
REMARK VINA RESULT:      -6.3     24.379     26.992
REMARK  Name = 7049301
REMARK  11 active torsions:
REMARK  status: ('A' for Active; 'I' for Inactive)
REMARK    1  A    between atoms: O_1  and  C_17
REMARK    2  A    between atoms: O_2  and  C_18
REMARK    3  A    between atoms: N_6  and  C_10
REMARK    4  A    between atoms: N_7  and  C_16
REMARK    5  A    between atoms: N_8  and  C_24
REMARK    6  A    between atoms: C_20  and  C_23
REMARK    7  A    between atoms: C_24  and  C_25
REMARK    8  A    between atoms: C_24  and  C_27
REMARK    9  A    between atoms: C_25  and  C_26
REMARK   10  A    between atoms: C_26  and  C_28
REMARK   11  A    between atoms: C_26  and  C_29
REMARK                            x       y       z     vdW  Elec       q    Type
REMARK                         _______ _______ _______ _____ _____    ______ ____
ROOT
ATOM     16  C   UNL     1      -4.972 -11.600  15.864  0.00  0.00    +0.129 C 
ATOM     17  C   UNL     1      -3.736 -11.279  16.726  0.00  0.00    +0.167 C 
ATOM     18  C   UNL     1      -3.971 -11.631  18.201  0.00  0.00    +0.149 C 
ATOM     19  C   UNL     1      -5.215 -10.929  18.772  0.00  0.00    +0.074 C 
ATOM     20  C   UNL     1      -6.359 -10.861  17.801  0.00  0.00    +0.015 C 
ATOM     21  C   UNL     1      -6.267 -11.167  16.498  0.00  0.00    +0.006 C 
ENDROOT
BRANCH  16   7
ATOM      3  O   UNL     1      -3.136 -12.329  13.762  0.00  0.00    -0.253 OA
ATOM      6  N   UNL     1      -4.076 -10.689  12.419  0.00  0.00    -0.297 N 
ATOM      7  N   UNL     1      -4.875 -11.010  14.552  0.00  0.00    -0.291 N 
ATOM     22  C   UNL     1      -3.953 -11.426  13.594  0.00  0.00    +0.300 C 
ATOM     30  H   UNL     1      -4.833 -10.014  12.355  0.00  0.00    +0.151 HD
ATOM     31  H   UNL     1      -5.473 -10.221  14.327  0.00  0.00    +0.151 HD
BRANCH   6  10
ATOM     10  C   UNL     1      -3.240 -10.914  11.261  0.00  0.00    +0.074 C 
ATOM     11  C   UNL     1      -3.948 -11.810  10.238  0.00  0.00    +0.022 C 
ATOM     12  C   UNL     1      -2.803  -9.588  10.630  0.00  0.00    +0.022 C 
ATOM     13  C   UNL     1      -5.093 -11.091   9.525  0.00  0.00    +0.002 C 
ATOM     14  C   UNL     1      -3.950  -8.873   9.916  0.00  0.00    +0.002 C 
ATOM     15  C   UNL     1      -4.632  -9.780   8.896  0.00  0.00    +0.000 C 
ENDBRANCH   6  10
ENDBRANCH  16   7
BRANCH  20  23
ATOM      4  O   UNL     1      -8.015 -10.735  19.453  0.00  0.00    -0.271 OA
ATOM      8  N   UNL     1      -8.418  -9.757  17.374  0.00  0.00    -0.300 N 
ATOM     23  C   UNL     1      -7.672 -10.454  18.309  0.00  0.00    +0.241 C 
ATOM     33  H   UNL     1      -7.995  -9.454  16.506  0.00  0.00    +0.150 HD
BRANCH   8  24
ATOM     24  C   UNL     1      -9.741  -9.258  17.642  0.00  0.00    +0.159 C 
BRANCH  24  27
ATOM      5  O   UNL     1     -10.662  -7.076  17.091  0.00  0.00    -0.274 OA
ATOM      9  N   UNL     1      -9.151  -8.027  15.645  0.00  0.00    -0.328 N 
ATOM     27  C   UNL     1      -9.929  -8.014  16.784  0.00  0.00    +0.231 C 
ATOM     35  H   UNL     1      -8.534  -8.799  15.415  0.00  0.00    +0.145 HD
ATOM     36  H   UNL     1      -9.172  -7.251  14.991  0.00  0.00    +0.145 HD
ENDBRANCH  24  27
BRANCH  24  25
ATOM     25  C   UNL     1     -10.828 -10.292  17.323  0.00  0.00    +0.034 C 
BRANCH  25  26
ATOM     26  C   UNL     1     -11.949 -10.399  18.377  0.00  0.00    -0.015 C 
ATOM     28  C   UNL     1     -13.131  -9.518  17.965  0.00  0.00    +0.007 C 
ATOM     29  C   UNL     1     -11.473 -10.000  19.775  0.00  0.00    +0.007 C 
ENDBRANCH  25  26
ENDBRANCH  24  25
ENDBRANCH   8  24
ENDBRANCH  20  23
BRANCH  17   1
ATOM      1  O   UNL     1      -3.432  -9.886  16.628  0.00  0.00    -0.387 OA
ATOM     32  H   UNL     1      -2.745  -9.691  17.288  0.00  0.00    +0.210 HD
ENDBRANCH  17   1
BRANCH  18   2
ATOM      2  O   UNL     1      -4.091 -13.043  18.355  0.00  0.00    -0.389 OA
ATOM     34  H   UNL     1      -3.295 -13.357  18.816  0.00  0.00    +0.210 HD
ENDBRANCH  18   2
TORSDOF 9
ENDMDL
MODEL 8
REMARK VINA RESULT:      -6.2     28.675     33.786
REMARK  Name = 7049301
REMARK  11 active torsions:
REMARK  status: ('A' for Active; 'I' for Inactive)
REMARK    1  A    between atoms: O_1  and  C_17
REMARK    2  A    between atoms: O_2  and  C_18
REMARK    3  A    between atoms: N_6  and  C_10
REMARK    4  A    between atoms: N_7  and  C_16
REMARK    5  A    between atoms: N_8  and  C_24
REMARK    6  A    between atoms: C_20  and  C_23
REMARK    7  A    between atoms: C_24  and  C_25
REMARK    8  A    between atoms: C_24  and  C_27
REMARK    9  A    between atoms: C_25  and  C_26
REMARK   10  A    between atoms: C_26  and  C_28
REMARK   11  A    between atoms: C_26  and  C_29
REMARK                            x       y       z     vdW  Elec       q    Type
REMARK                         _______ _______ _______ _____ _____    ______ ____
ROOT
ATOM     16  C   UNL     1     -15.424   4.556  23.187  0.00  0.00    +0.129 C 
ATOM     17  C   UNL     1     -16.633   5.425  22.791  0.00  0.00    +0.167 C 
ATOM     18  C   UNL     1     -16.597   5.796  21.303  0.00  0.00    +0.149 C 
ATOM     19  C   UNL     1     -15.284   6.500  20.914  0.00  0.00    +0.074 C 
ATOM     20  C   UNL     1     -14.076   5.927  21.598  0.00  0.00    +0.015 C 
ATOM     21  C   UNL     1     -14.123   5.049  22.611  0.00  0.00    +0.006 C 
ENDROOT
BRANCH  16   7
ATOM      3  O   UNL     1     -16.988   2.904  24.961  0.00  0.00    -0.253 OA
ATOM      6  N   UNL     1     -15.750   3.712  26.749  0.00  0.00    -0.297 N 
ATOM      7  N   UNL     1     -15.290   4.449  24.618  0.00  0.00    -0.291 N 
ATOM     22  C   UNL     1     -16.092   3.622  25.401  0.00  0.00    +0.300 C 
ATOM     30  H   UNL     1     -14.945   4.279  27.000  0.00  0.00    +0.151 HD
ATOM     31  H   UNL     1     -14.610   5.039  25.089  0.00  0.00    +0.151 HD
BRANCH   6  10
ATOM     10  C   UNL     1     -16.425   2.958  27.781  0.00  0.00    +0.074 C 
ATOM     11  C   UNL     1     -15.422   2.379  28.784  0.00  0.00    +0.022 C 
ATOM     12  C   UNL     1     -17.484   3.813  28.485  0.00  0.00    +0.022 C 
ATOM     13  C   UNL     1     -14.809   3.452  29.684  0.00  0.00    +0.002 C 
ATOM     14  C   UNL     1     -16.867   4.883  29.385  0.00  0.00    +0.002 C 
ATOM     15  C   UNL     1     -15.881   4.282  30.382  0.00  0.00    +0.000 C 
ENDBRANCH   6  10
ENDBRANCH  16   7
BRANCH  20  23
ATOM      4  O   UNL     1     -11.734   5.916  21.658  0.00  0.00    -0.271 OA
ATOM      8  N   UNL     1     -12.816   7.203  20.041  0.00  0.00    -0.300 N 
ATOM     23  C   UNL     1     -12.753   6.335  21.117  0.00  0.00    +0.241 C 
ATOM     33  H   UNL     1     -13.699   7.381  19.578  0.00  0.00    +0.150 HD
BRANCH   8  24
ATOM     24  C   UNL     1     -11.646   7.743  19.400  0.00  0.00    +0.159 C 
BRANCH  24  27
ATOM      5  O   UNL     1     -13.116   8.161  17.509  0.00  0.00    -0.274 OA
ATOM      9  N   UNL     1     -10.880   7.816  17.107  0.00  0.00    -0.328 N 
ATOM     27  C   UNL     1     -11.986   7.915  17.926  0.00  0.00    +0.231 C 
ATOM     35  H   UNL     1      -9.949   7.635  17.468  0.00  0.00    +0.145 HD
ATOM     36  H   UNL     1     -10.966   7.924  16.102  0.00  0.00    +0.145 HD
ENDBRANCH  24  27
BRANCH  24  25
ATOM     25  C   UNL     1     -11.218   9.086  20.007  0.00  0.00    +0.034 C 
BRANCH  25  26
ATOM     26  C   UNL     1     -12.378  10.049  20.330  0.00  0.00    -0.015 C 
ATOM     28  C   UNL     1     -12.139  11.394  19.638  0.00  0.00    +0.007 C 
ATOM     29  C   UNL     1     -12.551  10.268  21.834  0.00  0.00    +0.007 C 
ENDBRANCH  25  26
ENDBRANCH  24  25
ENDBRANCH   8  24
ENDBRANCH  20  23
BRANCH  17   1
ATOM      1  O   UNL     1     -16.632   6.627  23.565  0.00  0.00    -0.387 OA
ATOM     32  H   UNL     1     -16.233   7.325  23.018  0.00  0.00    +0.210 HD
ENDBRANCH  17   1
BRANCH  18   2
ATOM      2  O   UNL     1     -16.784   4.632  20.502  0.00  0.00    -0.389 OA
ATOM     34  H   UNL     1     -17.273   4.899  19.705  0.00  0.00    +0.210 HD
ENDBRANCH  18   2
TORSDOF 9
ENDMDL
MODEL 9
REMARK VINA RESULT:      -6.0      3.283      8.441
REMARK  Name = 7049301
REMARK  11 active torsions:
REMARK  status: ('A' for Active; 'I' for Inactive)
REMARK    1  A    between atoms: O_1  and  C_17
REMARK    2  A    between atoms: O_2  and  C_18
REMARK    3  A    between atoms: N_6  and  C_10
REMARK    4  A    between atoms: N_7  and  C_16
REMARK    5  A    between atoms: N_8  and  C_24
REMARK    6  A    between atoms: C_20  and  C_23
REMARK    7  A    between atoms: C_24  and  C_25
REMARK    8  A    between atoms: C_24  and  C_27
REMARK    9  A    between atoms: C_25  and  C_26
REMARK   10  A    between atoms: C_26  and  C_28
REMARK   11  A    between atoms: C_26  and  C_29
REMARK                            x       y       z     vdW  Elec       q    Type
REMARK                         _______ _______ _______ _____ _____    ______ ____
ROOT
ATOM     16  C   UNL     1      13.685   8.059   5.192  0.00  0.00    +0.129 C 
ATOM     17  C   UNL     1      14.939   8.589   5.915  0.00  0.00    +0.167 C 
ATOM     18  C   UNL     1      15.871   9.335   4.951  0.00  0.00    +0.149 C 
ATOM     19  C   UNL     1      16.277   8.464   3.749  0.00  0.00    +0.074 C 
ATOM     20  C   UNL     1      15.160   7.602   3.233  0.00  0.00    +0.015 C 
ATOM     21  C   UNL     1      13.991   7.419   3.865  0.00  0.00    +0.006 C 
ENDROOT
BRANCH  16   7
ATOM      3  O   UNL     1      10.934   7.249   4.880  0.00  0.00    -0.253 OA
ATOM      6  N   UNL     1      11.172   5.854   6.718  0.00  0.00    -0.297 N 
ATOM      7  N   UNL     1      12.958   7.118   6.008  0.00  0.00    -0.291 N 
ATOM     22  C   UNL     1      11.625   6.784   5.785  0.00  0.00    +0.300 C 
ATOM     30  H   UNL     1      11.843   5.477   7.381  0.00  0.00    +0.151 HD
ATOM     31  H   UNL     1      13.423   6.712   6.815  0.00  0.00    +0.151 HD
BRANCH   6  10
ATOM     10  C   UNL     1       9.823   5.335   6.717  0.00  0.00    +0.074 C 
ATOM     11  C   UNL     1       9.737   4.024   7.505  0.00  0.00    +0.022 C 
ATOM     12  C   UNL     1       8.832   6.372   7.254  0.00  0.00    +0.022 C 
ATOM     13  C   UNL     1       9.871   4.239   9.013  0.00  0.00    +0.002 C 
ATOM     14  C   UNL     1       8.967   6.583   8.763  0.00  0.00    +0.002 C 
ATOM     15  C   UNL     1       8.868   5.267   9.527  0.00  0.00    +0.000 C 
ENDBRANCH   6  10
ENDBRANCH  16   7
BRANCH  20  23
ATOM      4  O   UNL     1      16.168   7.347   1.134  0.00  0.00    -0.271 OA
ATOM      8  N   UNL     1      14.515   5.835   1.784  0.00  0.00    -0.300 N 
ATOM     23  C   UNL     1      15.346   6.930   1.944  0.00  0.00    +0.241 C 
ATOM     33  H   UNL     1      13.970   5.488   2.564  0.00  0.00    +0.150 HD
BRANCH   8  24
ATOM     24  C   UNL     1      14.513   5.020   0.599  0.00  0.00    +0.159 C 
BRANCH  24  27
ATOM      5  O   UNL     1      16.416   3.636  -0.017  0.00  0.00    -0.274 OA
ATOM      9  N   UNL     1      15.456   3.327   2.047  0.00  0.00    -0.328 N 
ATOM     27  C   UNL     1      15.553   3.927   0.808  0.00  0.00    +0.231 C 
ATOM     35  H   UNL     1      14.753   3.593   2.728  0.00  0.00    +0.145 HD
ATOM     36  H   UNL     1      16.098   2.591   2.320  0.00  0.00    +0.145 HD
ENDBRANCH  24  27
BRANCH  24  25
ATOM     25  C   UNL     1      13.138   4.398   0.322  0.00  0.00    +0.034 C 
BRANCH  25  26
ATOM     26  C   UNL     1      12.032   4.805   1.316  0.00  0.00    -0.015 C 
ATOM     28  C   UNL     1      11.704   3.625   2.235  0.00  0.00    +0.007 C 
ATOM     29  C   UNL     1      10.759   5.276   0.610  0.00  0.00    +0.007 C 
ENDBRANCH  25  26
ENDBRANCH  24  25
ENDBRANCH   8  24
ENDBRANCH  20  23
BRANCH  17   1
ATOM      1  O   UNL     1      15.655   7.498   6.495  0.00  0.00    -0.387 OA
ATOM     32  H   UNL     1      15.058   7.059   7.124  0.00  0.00    +0.210 HD
ENDBRANCH  17   1
BRANCH  18   2
ATOM      2  O   UNL     1      15.250  10.535   4.498  0.00  0.00    -0.389 OA
ATOM     34  H   UNL     1      14.980  11.041   5.284  0.00  0.00    +0.210 HD
ENDBRANCH  18   2
TORSDOF 9
ENDMDL
MODEL 10
REMARK VINA RESULT:      -5.9      5.369      8.137
REMARK  Name = 7049301
REMARK  11 active torsions:
REMARK  status: ('A' for Active; 'I' for Inactive)
REMARK    1  A    between atoms: O_1  and  C_17
REMARK    2  A    between atoms: O_2  and  C_18
REMARK    3  A    between atoms: N_6  and  C_10
REMARK    4  A    between atoms: N_7  and  C_16
REMARK    5  A    between atoms: N_8  and  C_24
REMARK    6  A    between atoms: C_20  and  C_23
REMARK    7  A    between atoms: C_24  and  C_25
REMARK    8  A    between atoms: C_24  and  C_27
REMARK    9  A    between atoms: C_25  and  C_26
REMARK   10  A    between atoms: C_26  and  C_28
REMARK   11  A    between atoms: C_26  and  C_29
REMARK                            x       y       z     vdW  Elec       q    Type
REMARK                         _______ _______ _______ _____ _____    ______ ____
ROOT
ATOM     16  C   UNL     1      15.708   9.197   6.234  0.00  0.00    +0.129 C 
ATOM     17  C   UNL     1      14.922  10.348   5.577  0.00  0.00    +0.167 C 
ATOM     18  C   UNL     1      13.598  10.613   6.305  0.00  0.00    +0.149 C 
ATOM     19  C   UNL     1      12.723   9.350   6.392  0.00  0.00    +0.074 C 
ATOM     20  C   UNL     1      13.509   8.096   6.648  0.00  0.00    +0.015 C 
ATOM     21  C   UNL     1      14.847   8.015   6.590  0.00  0.00    +0.006 C 
ENDROOT
BRANCH  16   7
ATOM      3  O   UNL     1      18.465  10.040   6.362  0.00  0.00    -0.253 OA
ATOM      6  N   UNL     1      18.947   8.614   4.597  0.00  0.00    -0.297 N 
ATOM      7  N   UNL     1      16.794   8.749   5.398  0.00  0.00    -0.291 N 
ATOM     22  C   UNL     1      18.102   9.211   5.530  0.00  0.00    +0.300 C 
ATOM     30  H   UNL     1      18.563   7.886   4.002  0.00  0.00    +0.151 HD
ATOM     31  H   UNL     1      16.592   8.099   4.644  0.00  0.00    +0.151 HD
BRANCH   6  10
ATOM     10  C   UNL     1      20.358   8.915   4.513  0.00  0.00    +0.074 C 
ATOM     11  C   UNL     1      21.176   7.971   5.402  0.00  0.00    +0.022 C 
ATOM     12  C   UNL     1      20.846   8.871   3.061  0.00  0.00    +0.022 C 
ATOM     13  C   UNL     1      21.237   6.549   4.845  0.00  0.00    +0.002 C 
ATOM     14  C   UNL     1      20.908   7.448   2.508  0.00  0.00    +0.002 C 
ATOM     15  C   UNL     1      21.736   6.530   3.403  0.00  0.00    +0.000 C 
ENDBRANCH   6  10
ENDBRANCH  16   7
BRANCH  20  23
ATOM      4  O   UNL     1      13.295   6.016   7.704  0.00  0.00    -0.271 OA
ATOM      8  N   UNL     1      11.494   6.853   6.482  0.00  0.00    -0.300 N 
ATOM     23  C   UNL     1      12.773   6.881   7.008  0.00  0.00    +0.241 C 
ATOM     33  H   UNL     1      11.105   7.675   6.036  0.00  0.00    +0.150 HD
BRANCH   8  24
ATOM     24  C   UNL     1      10.582   5.759   6.695  0.00  0.00    +0.159 C 
BRANCH  24  27
ATOM      5  O   UNL     1       8.983   6.773   8.221  0.00  0.00    -0.274 OA
ATOM      9  N   UNL     1      10.437   5.195   9.042  0.00  0.00    -0.328 N 
ATOM     27  C   UNL     1       9.916   5.992   8.044  0.00  0.00    +0.231 C 
ATOM     35  H   UNL     1      11.192   4.538   8.877  0.00  0.00    +0.145 HD
ATOM     36  H   UNL     1      10.074   5.241   9.989  0.00  0.00    +0.145 HD
ENDBRANCH  24  27
BRANCH  24  25
ATOM     25  C   UNL     1       9.523   5.660   5.590  0.00  0.00    +0.034 C 
BRANCH  25  26
ATOM     26  C   UNL     1       9.527   6.828   4.583  0.00  0.00    -0.015 C 
ATOM     28  C   UNL     1       8.156   7.508   4.575  0.00  0.00    +0.007 C 
ATOM     29  C   UNL     1       9.884   6.374   3.166  0.00  0.00    +0.007 C 
ENDBRANCH  25  26
ENDBRANCH  24  25
ENDBRANCH   8  24
ENDBRANCH  20  23
BRANCH  17   1
ATOM      1  O   UNL     1      14.640  10.019   4.215  0.00  0.00    -0.387 OA
ATOM     32  H   UNL     1      14.350   9.091   4.194  0.00  0.00    +0.210 HD
ENDBRANCH  17   1
BRANCH  18   2
ATOM      2  O   UNL     1      13.851  11.124   7.612  0.00  0.00    -0.389 OA
ATOM     34  H   UNL     1      14.740  10.830   7.875  0.00  0.00    +0.210 HD
ENDBRANCH  18   2
TORSDOF 9
ENDMDL
