REMARK  Name = 11867502
REMARK  8 active torsions:
REMARK  status: ('A' for Active; 'I' for Inactive)
REMARK    1  A    between atoms: O_3  and  C_14
REMARK    2  A    between atoms: O_3  and  C_18
REMARK    3  A    between atoms: N_5  and  C_13
REMARK    4  A    between atoms: N_9  and  C_22
REMARK    5  A    between atoms: N_10  and  C_25
REMARK    6  A    between atoms: N_10  and  C_32
REMARK    7  A    between atoms: N_10  and  C_33
REMARK    8  A    between atoms: C_17  and  C_19
REMARK                            x       y       z     vdW  Elec       q    Type
REMARK                         _______ _______ _______ _____ _____    ______ ____
ROOT
ATOM      1  O   UNL     1       0.295   0.283  -1.072  0.00  0.00    -0.368 OA
ATOM      2  O   UNL     1      -1.595  -1.753   0.283  0.00  0.00    -0.368 OA
ATOM     11  C   UNL     1      -1.498  -0.314   0.368  0.00  0.00    +0.177 C 
ATOM     12  C   UNL     1      -0.023   0.029   0.306  0.00  0.00    +0.192 C 
ATOM     13  C   UNL     1      -2.087   0.310  -0.882  0.00  0.00    +0.168 C 
ATOM     14  C   UNL     1       0.634  -1.235   0.806  0.00  0.00    +0.235 C 
ATOM     15  C   UNL     1      -0.909   0.296  -1.851  0.00  0.00    +0.190 C 
ATOM     16  C   UNL     1      -0.273  -2.306   0.248  0.00  0.00    +0.207 C 
ENDROOT
BRANCH  13   5
ATOM      5  N   UNL     1      -2.675   1.627  -0.628  0.00  0.00    -0.217 N 
ATOM      6  N   UNL     1      -1.925   2.731  -0.699  0.00  0.00    -0.043 NA
ATOM      7  N   UNL     1      -4.027   3.252  -0.171  0.00  0.00    -0.108 NA
ATOM      8  N   UNL     1      -2.759   3.725  -0.418  0.00  0.00    -0.023 NA
ATOM     17  C   UNL     1      -3.952   1.948  -0.307  0.00  0.00    +0.182 A 
BRANCH  17  19
ATOM     19  C   UNL     1      -5.022   0.996  -0.150  0.00  0.00    +0.021 A 
ATOM     20  C   UNL     1      -5.272   0.426   1.100  0.00  0.00    +0.013 A 
ATOM     21  C   UNL     1      -5.810   0.642  -1.246  0.00  0.00    +0.013 A 
ATOM     23  C   UNL     1      -6.307  -0.496   1.253  0.00  0.00    +0.024 A 
ATOM     24  C   UNL     1      -6.845  -0.281  -1.093  0.00  0.00    +0.024 A 
ATOM     25  C   UNL     1      -7.094  -0.850   0.156  0.00  0.00    +0.029 A 
BRANCH  25  10
ATOM     10  N   UNL     1      -8.140  -1.782   0.311  0.00  0.00    -0.336 N 
ATOM     32  C   UNL     1      -8.829  -1.908   1.580  0.00  0.00    +0.129 C 
ATOM     33  C   UNL     1      -8.532  -2.636  -0.793  0.00  0.00    +0.129 C 
ENDBRANCH  25  10
ENDBRANCH  17  19
ENDBRANCH  13   5
BRANCH  14   3
ATOM      3  O   UNL     1       1.967  -1.387   0.372  0.00  0.00    -0.442 OA
BRANCH   3  18
ATOM      4  O   UNL     1       2.558   0.507   1.508  0.00  0.00    -0.226 OA
ATOM      9  N   UNL     1       4.122  -0.730   0.283  0.00  0.00    -0.251 N 
ATOM     18  C   UNL     1       2.873  -0.435   0.792  0.00  0.00    +0.405 C 
ATOM     37  H   UNL     1       4.152  -1.566  -0.289  0.00  0.00    +0.158 HD
BRANCH   9  22
ATOM     22  C   UNL     1       5.328  -0.016   0.468  0.00  0.00    +0.044 A 
ATOM     26  C   UNL     1       6.523  -0.445  -0.116  0.00  0.00    +0.003 A 
ATOM     27  C   UNL     1       5.271   1.127   1.255  0.00  0.00    +0.024 A 
ATOM     28  C   UNL     1       7.699   0.311   0.104  0.00  0.00    -0.016 A 
ATOM     29  C   UNL     1       6.588  -1.599  -0.913  0.00  0.00    +0.010 A 
ATOM     30  C   UNL     1       6.427   1.870   1.472  0.00  0.00    +0.002 A 
ATOM     31  C   UNL     1       7.635   1.466   0.901  0.00  0.00    +0.008 A 
ATOM     34  C   UNL     1       8.906  -0.110  -0.478  0.00  0.00    +0.008 A 
ATOM     35  C   UNL     1       7.795  -2.003  -1.484  0.00  0.00    +0.001 A 
ATOM     36  C   UNL     1       8.952  -1.260  -1.267  0.00  0.00    +0.001 A 
ENDBRANCH   9  22
ENDBRANCH   3  18
ENDBRANCH  14   3
TORSDOF 6
