MODEL 1
REMARK VINA RESULT:      -6.5      0.000      0.000
REMARK  Name = 7113393
REMARK  15 active torsions:
REMARK  status: ('A' for Active; 'I' for Inactive)
REMARK    1  A    between atoms: S_1  and  N_9
REMARK    2  A    between atoms: S_1  and  C_19
REMARK    3  A    between atoms: O_6  and  C_25
REMARK    4  A    between atoms: O_6  and  C_40
REMARK    5  A    between atoms: O_8  and  C_39
REMARK    6  A    between atoms: O_8  and  C_43
REMARK    7  A    between atoms: N_11  and  C_20
REMARK    8  A    between atoms: N_12  and  C_34
REMARK    9  A    between atoms: N_12  and  C_41
REMARK   10  A    between atoms: N_12  and  C_42
REMARK   11  A    between atoms: C_13  and  C_17
REMARK   12  A    between atoms: C_18  and  C_21
REMARK   13  A    between atoms: C_20  and  C_22
REMARK   14  A    between atoms: C_20  and  C_25
REMARK   15  A    between atoms: C_22  and  C_28
REMARK                            x       y       z     vdW  Elec       q    Type
REMARK                         _______ _______ _______ _____ _____    ______ ____
ROOT
ATOM      5  O   UNL     1      14.647   6.989   6.673  0.00  0.00    -0.270 OA
ATOM      9  N   UNL     1      12.011  11.288   6.171  0.00  0.00    -0.162 NA
ATOM     10  N   UNL     1      14.018   9.218   6.344  0.00  0.00    -0.294 N 
ATOM     13  C   UNL     1      11.626   9.902   6.558  0.00  0.00    +0.183 C 
ATOM     14  C   UNL     1      12.787   9.091   7.125  0.00  0.00    +0.138 C 
ATOM     15  C   UNL     1      13.439  11.631   6.403  0.00  0.00    +0.129 C 
ATOM     16  C   UNL     1      14.318  10.546   5.798  0.00  0.00    +0.125 C 
ATOM     18  C   UNL     1      14.870   8.114   6.227  0.00  0.00    +0.247 C 
ENDROOT
BRANCH  18  21
ATOM     21  C   UNL     1      16.143   8.299   5.514  0.00  0.00    +0.037 A 
ATOM     26  C   UNL     1      16.213   8.064   4.141  0.00  0.00    +0.015 A 
ATOM     27  C   UNL     1      17.280   8.709   6.211  0.00  0.00    +0.015 A 
ATOM     32  C   UNL     1      17.421   8.239   3.464  0.00  0.00    +0.024 A 
ATOM     33  C   UNL     1      18.487   8.884   5.535  0.00  0.00    +0.024 A 
ATOM     34  C   UNL     1      18.557   8.649   4.162  0.00  0.00    +0.029 A 
BRANCH  34  12
ATOM     12  N   UNL     1      19.779   8.825   3.478  0.00  0.00    -0.336 N 
ATOM     41  C   UNL     1      20.327   7.753   2.670  0.00  0.00    +0.129 C 
ATOM     42  C   UNL     1      20.509  10.072   3.586  0.00  0.00    +0.129 C 
ENDBRANCH  34  12
ENDBRANCH  18  21
BRANCH  13  17
ATOM      4  O   UNL     1      11.845   8.988   4.368  0.00  0.00    -0.274 OA
ATOM     11  N   UNL     1       9.725   9.159   5.312  0.00  0.00    -0.301 N 
ATOM     17  C   UNL     1      11.102   9.296   5.296  0.00  0.00    +0.234 C 
ATOM     44  H   UNL     1       9.208   9.428   6.145  0.00  0.00    +0.150 HD
BRANCH  11  20
ATOM     20  C   UNL     1       8.970   8.620   4.203  0.00  0.00    +0.186 C 
BRANCH  20  25
ATOM      7  O   UNL     1       8.646  10.612   2.874  0.00  0.00    -0.249 OA
ATOM     25  C   UNL     1       8.140   9.683   3.496  0.00  0.00    +0.328 C 
BRANCH  25   6
ATOM      6  O   UNL     1       6.802   9.482   3.657  0.00  0.00    -0.467 OA
ATOM     40  C   UNL     1       6.077  10.566   4.246  0.00  0.00    +0.280 C 
ENDBRANCH  25   6
ENDBRANCH  20  25
BRANCH  20  22
ATOM     22  C   UNL     1       8.118   7.420   4.639  0.00  0.00    +0.069 C 
BRANCH  22  28
ATOM     28  C   UNL     1       8.668   6.649   5.819  0.00  0.00    -0.045 A 
ATOM     35  C   UNL     1       8.528   7.159   7.110  0.00  0.00    +0.007 A 
ATOM     36  C   UNL     1       9.315   5.430   5.617  0.00  0.00    +0.007 A 
ATOM     37  C   UNL     1       9.036   6.449   8.199  0.00  0.00    +0.046 A 
ATOM     38  C   UNL     1       9.822   4.721   6.705  0.00  0.00    +0.046 A 
ATOM     39  C   UNL     1       9.682   5.229   7.996  0.00  0.00    +0.120 A 
BRANCH  39   8
ATOM      8  O   UNL     1      10.178   4.538   9.058  0.00  0.00    -0.495 OA
ATOM     43  C   UNL     1       9.426   4.584  10.270  0.00  0.00    +0.277 C 
ENDBRANCH  39   8
ENDBRANCH  22  28
ENDBRANCH  20  22
ENDBRANCH  11  20
ENDBRANCH  13  17
BRANCH   9   1
ATOM      1  S   UNL     1      10.875  12.524   6.495  0.00  0.00    +0.062 S 
ATOM      2  O   UNL     1       9.673  12.275   5.729  0.00  0.00    -0.153 OA
ATOM      3  O   UNL     1      11.544  13.806   6.436  0.00  0.00    -0.153 OA
BRANCH   1  19
ATOM     19  C   UNL     1      10.516  12.176   8.189  0.00  0.00    +0.106 A 
ATOM     23  C   UNL     1      11.444  12.499   9.179  0.00  0.00    +0.028 A 
ATOM     24  C   UNL     1       9.304  11.580   8.537  0.00  0.00    +0.028 A 
ATOM     29  C   UNL     1      11.161  12.226  10.517  0.00  0.00    +0.002 A 
ATOM     30  C   UNL     1       9.020  11.307   9.875  0.00  0.00    +0.002 A 
ATOM     31  C   UNL     1       9.949  11.630  10.865  0.00  0.00    +0.000 A 
ENDBRANCH   1  19
ENDBRANCH   9   1
TORSDOF 11
ENDMDL
MODEL 2
REMARK VINA RESULT:      -6.5     22.529     27.343
REMARK  Name = 7113393
REMARK  15 active torsions:
REMARK  status: ('A' for Active; 'I' for Inactive)
REMARK    1  A    between atoms: S_1  and  N_9
REMARK    2  A    between atoms: S_1  and  C_19
REMARK    3  A    between atoms: O_6  and  C_25
REMARK    4  A    between atoms: O_6  and  C_40
REMARK    5  A    between atoms: O_8  and  C_39
REMARK    6  A    between atoms: O_8  and  C_43
REMARK    7  A    between atoms: N_11  and  C_20
REMARK    8  A    between atoms: N_12  and  C_34
REMARK    9  A    between atoms: N_12  and  C_41
REMARK   10  A    between atoms: N_12  and  C_42
REMARK   11  A    between atoms: C_13  and  C_17
REMARK   12  A    between atoms: C_18  and  C_21
REMARK   13  A    between atoms: C_20  and  C_22
REMARK   14  A    between atoms: C_20  and  C_25
REMARK   15  A    between atoms: C_22  and  C_28
REMARK                            x       y       z     vdW  Elec       q    Type
REMARK                         _______ _______ _______ _____ _____    ______ ____
ROOT
ATOM      5  O   UNL     1      18.533  -6.755  29.998  0.00  0.00    -0.270 OA
ATOM      9  N   UNL     1      18.073  -5.555  25.097  0.00  0.00    -0.162 NA
ATOM     10  N   UNL     1      17.799  -6.576  27.784  0.00  0.00    -0.294 N 
ATOM     13  C   UNL     1      19.126  -5.279  26.113  0.00  0.00    +0.183 C 
ATOM     14  C   UNL     1      19.134  -6.286  27.260  0.00  0.00    +0.138 C 
ATOM     15  C   UNL     1      17.227  -6.745  25.375  0.00  0.00    +0.129 C 
ATOM     16  C   UNL     1      16.712  -6.668  26.805  0.00  0.00    +0.125 C 
ATOM     18  C   UNL     1      17.642  -6.824  29.153  0.00  0.00    +0.247 C 
ENDROOT
BRANCH  18  21
ATOM     21  C   UNL     1      16.305  -7.204  29.635  0.00  0.00    +0.037 A 
ATOM     26  C   UNL     1      16.012  -8.542  29.896  0.00  0.00    +0.015 A 
ATOM     27  C   UNL     1      15.331  -6.225  29.831  0.00  0.00    +0.015 A 
ATOM     32  C   UNL     1      14.744  -8.902  30.353  0.00  0.00    +0.024 A 
ATOM     33  C   UNL     1      14.063  -6.585  30.288  0.00  0.00    +0.024 A 
ATOM     34  C   UNL     1      13.770  -7.923  30.549  0.00  0.00    +0.029 A 
BRANCH  34  12
ATOM     12  N   UNL     1      12.487  -8.287  31.009  0.00  0.00    -0.336 N 
ATOM     41  C   UNL     1      11.528  -7.268  31.390  0.00  0.00    +0.129 C 
ATOM     42  C   UNL     1      12.115  -9.683  31.120  0.00  0.00    +0.129 C 
ENDBRANCH  34  12
ENDBRANCH  18  21
BRANCH  13  17
ATOM      4  O   UNL     1      17.760  -3.339  26.337  0.00  0.00    -0.274 OA
ATOM     11  N   UNL     1      19.862  -3.361  27.335  0.00  0.00    -0.301 N 
ATOM     17  C   UNL     1      18.820  -3.900  26.600  0.00  0.00    +0.234 C 
ATOM     44  H   UNL     1      20.690  -3.924  27.511  0.00  0.00    +0.150 HD
BRANCH  11  20
ATOM     20  C   UNL     1      19.827  -2.031  27.900  0.00  0.00    +0.186 C 
BRANCH  20  25
ATOM      7  O   UNL     1      20.751  -0.589  26.195  0.00  0.00    -0.249 OA
ATOM     25  C   UNL     1      20.884  -1.116  27.296  0.00  0.00    +0.328 C 
BRANCH  25   6
ATOM      6  O   UNL     1      21.971  -0.980  28.105  0.00  0.00    -0.467 OA
ATOM     40  C   UNL     1      22.499   0.345  28.220  0.00  0.00    +0.280 C 
ENDBRANCH  25   6
ENDBRANCH  20  25
BRANCH  20  22
ATOM     22  C   UNL     1      19.911  -2.073  29.432  0.00  0.00    +0.069 C 
BRANCH  22  28
ATOM     28  C   UNL     1      18.615  -2.431  30.127  0.00  0.00    -0.045 A 
ATOM     35  C   UNL     1      17.407  -1.920  29.654  0.00  0.00    +0.007 A 
ATOM     36  C   UNL     1      18.629  -3.272  31.239  0.00  0.00    +0.007 A 
ATOM     37  C   UNL     1      16.212  -2.250  30.295  0.00  0.00    +0.046 A 
ATOM     38  C   UNL     1      17.435  -3.602  31.880  0.00  0.00    +0.046 A 
ATOM     39  C   UNL     1      16.226  -3.092  31.407  0.00  0.00    +0.120 A 
BRANCH  39   8
ATOM      8  O   UNL     1      15.061  -3.412  32.032  0.00  0.00    -0.495 OA
ATOM     43  C   UNL     1      15.143  -4.315  33.134  0.00  0.00    +0.277 C 
ENDBRANCH  39   8
ENDBRANCH  22  28
ENDBRANCH  20  22
ENDBRANCH  11  20
ENDBRANCH  13  17
BRANCH   9   1
ATOM      1  S   UNL     1      18.491  -5.293  23.460  0.00  0.00    +0.062 S 
ATOM      2  O   UNL     1      17.890  -6.328  22.646  0.00  0.00    -0.153 OA
ATOM      3  O   UNL     1      19.908  -5.007  23.376  0.00  0.00    -0.153 OA
BRANCH   1  19
ATOM     19  C   UNL     1      17.616  -3.790  23.154  0.00  0.00    +0.106 A 
ATOM     23  C   UNL     1      16.221  -3.785  23.147  0.00  0.00    +0.028 A 
ATOM     24  C   UNL     1      18.319  -2.608  22.921  0.00  0.00    +0.028 A 
ATOM     29  C   UNL     1      15.529  -2.598  22.906  0.00  0.00    +0.002 A 
ATOM     30  C   UNL     1      17.628  -1.421  22.681  0.00  0.00    +0.002 A 
ATOM     31  C   UNL     1      16.232  -1.417  22.673  0.00  0.00    +0.000 A 
ENDBRANCH   1  19
ENDBRANCH   9   1
TORSDOF 11
ENDMDL
MODEL 3
REMARK VINA RESULT:      -6.4      2.751      6.005
REMARK  Name = 7113393
REMARK  15 active torsions:
REMARK  status: ('A' for Active; 'I' for Inactive)
REMARK    1  A    between atoms: S_1  and  N_9
REMARK    2  A    between atoms: S_1  and  C_19
REMARK    3  A    between atoms: O_6  and  C_25
REMARK    4  A    between atoms: O_6  and  C_40
REMARK    5  A    between atoms: O_8  and  C_39
REMARK    6  A    between atoms: O_8  and  C_43
REMARK    7  A    between atoms: N_11  and  C_20
REMARK    8  A    between atoms: N_12  and  C_34
REMARK    9  A    between atoms: N_12  and  C_41
REMARK   10  A    between atoms: N_12  and  C_42
REMARK   11  A    between atoms: C_13  and  C_17
REMARK   12  A    between atoms: C_18  and  C_21
REMARK   13  A    between atoms: C_20  and  C_22
REMARK   14  A    between atoms: C_20  and  C_25
REMARK   15  A    between atoms: C_22  and  C_28
REMARK                            x       y       z     vdW  Elec       q    Type
REMARK                         _______ _______ _______ _____ _____    ______ ____
ROOT
ATOM      5  O   UNL     1      15.253  10.395   5.089  0.00  0.00    -0.270 OA
ATOM      9  N   UNL     1      12.735   6.283   3.533  0.00  0.00    -0.162 NA
ATOM     10  N   UNL     1      14.674   8.331   4.154  0.00  0.00    -0.294 N 
ATOM     13  C   UNL     1      12.299   7.559   4.164  0.00  0.00    +0.183 C 
ATOM     14  C   UNL     1      13.277   8.708   3.936  0.00  0.00    +0.138 C 
ATOM     15  C   UNL     1      14.027   6.352   2.802  0.00  0.00    +0.129 C 
ATOM     16  C   UNL     1      15.075   6.995   3.699  0.00  0.00    +0.125 C 
ATOM     18  C   UNL     1      15.558   9.269   4.699  0.00  0.00    +0.247 C 
ENDROOT
BRANCH  18  21
ATOM     21  C   UNL     1      16.975   8.892   4.820  0.00  0.00    +0.037 A 
ATOM     26  C   UNL     1      17.720   8.608   3.676  0.00  0.00    +0.015 A 
ATOM     27  C   UNL     1      17.572   8.817   6.078  0.00  0.00    +0.015 A 
ATOM     32  C   UNL     1      19.064   8.250   3.790  0.00  0.00    +0.024 A 
ATOM     33  C   UNL     1      18.915   8.459   6.193  0.00  0.00    +0.024 A 
ATOM     34  C   UNL     1      19.661   8.175   5.049  0.00  0.00    +0.029 A 
BRANCH  34  12
ATOM     12  N   UNL     1      21.018   7.810   5.165  0.00  0.00    -0.336 N 
ATOM     41  C   UNL     1      21.501   6.578   4.571  0.00  0.00    +0.129 C 
ATOM     42  C   UNL     1      21.946   8.655   5.890  0.00  0.00    +0.129 C 
ENDBRANCH  34  12
ENDBRANCH  18  21
BRANCH  13  17
ATOM      4  O   UNL     1      13.157   7.029   6.323  0.00  0.00    -0.274 OA
ATOM     11  N   UNL     1      10.852   7.167   6.027  0.00  0.00    -0.301 N 
ATOM     17  C   UNL     1      12.173   7.231   5.617  0.00  0.00    +0.234 C 
ATOM     44  H   UNL     1      10.114   7.374   5.359  0.00  0.00    +0.150 HD
BRANCH  11  20
ATOM     20  C   UNL     1      10.459   6.844   7.380  0.00  0.00    +0.186 C 
BRANCH  20  25
ATOM      7  O   UNL     1       9.793   4.629   6.681  0.00  0.00    -0.249 OA
ATOM     25  C   UNL     1      10.222   5.353   7.575  0.00  0.00    +0.328 C 
BRANCH  25   6
ATOM      6  O   UNL     1      10.523   4.945   8.839  0.00  0.00    -0.467 OA
ATOM     40  C   UNL     1       9.418   4.490   9.626  0.00  0.00    +0.280 C 
ENDBRANCH  25   6
ENDBRANCH  20  25
BRANCH  20  22
ATOM     22  C   UNL     1       9.251   7.682   7.824  0.00  0.00    +0.069 C 
BRANCH  22  28
ATOM     28  C   UNL     1       9.043   8.958   7.039  0.00  0.00    -0.045 A 
ATOM     35  C   UNL     1       8.279   8.941   5.872  0.00  0.00    +0.007 A 
ATOM     36  C   UNL     1       9.614  10.151   7.482  0.00  0.00    +0.007 A 
ATOM     37  C   UNL     1       8.087  10.118   5.147  0.00  0.00    +0.046 A 
ATOM     38  C   UNL     1       9.423  11.326   6.757  0.00  0.00    +0.046 A 
ATOM     39  C   UNL     1       8.659  11.311   5.591  0.00  0.00    +0.120 A 
BRANCH  39   8
ATOM      8  O   UNL     1       8.473  12.458   4.883  0.00  0.00    -0.495 OA
ATOM     43  C   UNL     1       7.143  12.746   4.453  0.00  0.00    +0.277 C 
ENDBRANCH  39   8
ENDBRANCH  22  28
ENDBRANCH  20  22
ENDBRANCH  11  20
ENDBRANCH  13  17
BRANCH   9   1
ATOM      1  S   UNL     1      11.516   5.318   2.820  0.00  0.00    +0.062 S 
ATOM      2  O   UNL     1      10.721   4.710   3.866  0.00  0.00    -0.153 OA
ATOM      3  O   UNL     1      12.104   4.515   1.770  0.00  0.00    -0.153 OA
BRANCH   1  19
ATOM     19  C   UNL     1      10.535   6.574   2.059  0.00  0.00    +0.106 A 
ATOM     23  C   UNL     1      10.872   7.049   0.792  0.00  0.00    +0.028 A 
ATOM     24  C   UNL     1       9.422   7.088   2.724  0.00  0.00    +0.028 A 
ATOM     29  C   UNL     1      10.097   8.040   0.190  0.00  0.00    +0.002 A 
ATOM     30  C   UNL     1       8.646   8.078   2.122  0.00  0.00    +0.002 A 
ATOM     31  C   UNL     1       8.984   8.554   0.855  0.00  0.00    +0.000 A 
ENDBRANCH   1  19
ENDBRANCH   9   1
TORSDOF 11
ENDMDL
MODEL 4
REMARK VINA RESULT:      -6.3      3.355      6.602
REMARK  Name = 7113393
REMARK  15 active torsions:
REMARK  status: ('A' for Active; 'I' for Inactive)
REMARK    1  A    between atoms: S_1  and  N_9
REMARK    2  A    between atoms: S_1  and  C_19
REMARK    3  A    between atoms: O_6  and  C_25
REMARK    4  A    between atoms: O_6  and  C_40
REMARK    5  A    between atoms: O_8  and  C_39
REMARK    6  A    between atoms: O_8  and  C_43
REMARK    7  A    between atoms: N_11  and  C_20
REMARK    8  A    between atoms: N_12  and  C_34
REMARK    9  A    between atoms: N_12  and  C_41
REMARK   10  A    between atoms: N_12  and  C_42
REMARK   11  A    between atoms: C_13  and  C_17
REMARK   12  A    between atoms: C_18  and  C_21
REMARK   13  A    between atoms: C_20  and  C_22
REMARK   14  A    between atoms: C_20  and  C_25
REMARK   15  A    between atoms: C_22  and  C_28
REMARK                            x       y       z     vdW  Elec       q    Type
REMARK                         _______ _______ _______ _____ _____    ______ ____
ROOT
ATOM      5  O   UNL     1      14.990  10.774   4.554  0.00  0.00    -0.270 OA
ATOM      9  N   UNL     1      12.147   6.697   3.564  0.00  0.00    -0.162 NA
ATOM     10  N   UNL     1      14.247   8.647   3.923  0.00  0.00    -0.294 N 
ATOM     13  C   UNL     1      11.814   8.086   3.986  0.00  0.00    +0.183 C 
ATOM     14  C   UNL     1      12.891   9.103   3.615  0.00  0.00    +0.138 C 
ATOM     15  C   UNL     1      13.450   6.548   2.865  0.00  0.00    +0.129 C 
ATOM     16  C   UNL     1      14.537   7.229   3.683  0.00  0.00    +0.125 C 
ATOM     18  C   UNL     1      15.201   9.580   4.344  0.00  0.00    +0.247 C 
ENDROOT
BRANCH  18  21
ATOM     21  C   UNL     1      16.579   9.109   4.557  0.00  0.00    +0.037 A 
ATOM     26  C   UNL     1      17.373   8.761   3.465  0.00  0.00    +0.015 A 
ATOM     27  C   UNL     1      17.089   9.009   5.852  0.00  0.00    +0.015 A 
ATOM     32  C   UNL     1      18.679   8.313   3.666  0.00  0.00    +0.024 A 
ATOM     33  C   UNL     1      18.395   8.561   6.053  0.00  0.00    +0.024 A 
ATOM     34  C   UNL     1      19.189   8.213   4.961  0.00  0.00    +0.029 A 
BRANCH  34  12
ATOM     12  N   UNL     1      20.509   7.759   5.165  0.00  0.00    -0.336 N 
ATOM     41  C   UNL     1      21.277   8.225   6.303  0.00  0.00    +0.129 C 
ATOM     42  C   UNL     1      21.119   6.832   4.233  0.00  0.00    +0.129 C 
ENDBRANCH  34  12
ENDBRANCH  18  21
BRANCH  13  17
ATOM      4  O   UNL     1      12.370   7.291   6.163  0.00  0.00    -0.274 OA
ATOM     11  N   UNL     1      10.578   8.756   5.920  0.00  0.00    -0.301 N 
ATOM     17  C   UNL     1      11.641   7.993   5.468  0.00  0.00    +0.234 C 
ATOM     44  H   UNL     1      10.052   9.319   5.257  0.00  0.00    +0.150 HD
BRANCH  11  20
ATOM     20  C   UNL     1      10.185   8.820   7.310  0.00  0.00    +0.186 C 
BRANCH  20  25
ATOM      7  O   UNL     1       8.162   7.517   7.526  0.00  0.00    -0.249 OA
ATOM     25  C   UNL     1       9.367   7.609   7.738  0.00  0.00    +0.328 C 
BRANCH  25   6
ATOM      6  O   UNL     1      10.124   6.679   8.383  0.00  0.00    -0.467 OA
ATOM     40  C   UNL     1       9.434   5.497   8.801  0.00  0.00    +0.280 C 
ENDBRANCH  25   6
ENDBRANCH  20  25
BRANCH  20  22
ATOM     22  C   UNL     1       9.468  10.140   7.626  0.00  0.00    +0.069 C 
BRANCH  22  28
ATOM     28  C   UNL     1       9.918  10.814   8.903  0.00  0.00    -0.045 A 
ATOM     35  C   UNL     1      11.267  11.111   9.096  0.00  0.00    +0.007 A 
ATOM     36  C   UNL     1       8.985  11.139   9.888  0.00  0.00    +0.007 A 
ATOM     37  C   UNL     1      11.684  11.733  10.274  0.00  0.00    +0.046 A 
ATOM     38  C   UNL     1       9.401  11.759  11.065  0.00  0.00    +0.046 A 
ATOM     39  C   UNL     1      10.750  12.057  11.258  0.00  0.00    +0.120 A 
BRANCH  39   8
ATOM      8  O   UNL     1      11.156  12.662  12.407  0.00  0.00    -0.495 OA
ATOM     43  C   UNL     1      12.482  12.379  12.856  0.00  0.00    +0.277 C 
ENDBRANCH  39   8
ENDBRANCH  22  28
ENDBRANCH  20  22
ENDBRANCH  11  20
ENDBRANCH  13  17
BRANCH   9   1
ATOM      1  S   UNL     1      10.859   5.741   2.972  0.00  0.00    +0.062 S 
ATOM      2  O   UNL     1       9.878   6.603   2.347  0.00  0.00    -0.153 OA
ATOM      3  O   UNL     1      10.472   4.789   3.991  0.00  0.00    -0.153 OA
BRANCH   1  19
ATOM     19  C   UNL     1      11.694   4.857   1.692  0.00  0.00    +0.106 A 
ATOM     23  C   UNL     1      11.625   5.308   0.374  0.00  0.00    +0.028 A 
ATOM     24  C   UNL     1      12.423   3.708   2.000  0.00  0.00    +0.028 A 
ATOM     29  C   UNL     1      12.285   4.610  -0.637  0.00  0.00    +0.002 A 
ATOM     30  C   UNL     1      13.084   3.011   0.989  0.00  0.00    +0.002 A 
ATOM     31  C   UNL     1      13.015   3.462  -0.330  0.00  0.00    +0.000 A 
ENDBRANCH   1  19
ENDBRANCH   9   1
TORSDOF 11
ENDMDL
MODEL 5
REMARK VINA RESULT:      -6.3     22.475     27.270
REMARK  Name = 7113393
REMARK  15 active torsions:
REMARK  status: ('A' for Active; 'I' for Inactive)
REMARK    1  A    between atoms: S_1  and  N_9
REMARK    2  A    between atoms: S_1  and  C_19
REMARK    3  A    between atoms: O_6  and  C_25
REMARK    4  A    between atoms: O_6  and  C_40
REMARK    5  A    between atoms: O_8  and  C_39
REMARK    6  A    between atoms: O_8  and  C_43
REMARK    7  A    between atoms: N_11  and  C_20
REMARK    8  A    between atoms: N_12  and  C_34
REMARK    9  A    between atoms: N_12  and  C_41
REMARK   10  A    between atoms: N_12  and  C_42
REMARK   11  A    between atoms: C_13  and  C_17
REMARK   12  A    between atoms: C_18  and  C_21
REMARK   13  A    between atoms: C_20  and  C_22
REMARK   14  A    between atoms: C_20  and  C_25
REMARK   15  A    between atoms: C_22  and  C_28
REMARK                            x       y       z     vdW  Elec       q    Type
REMARK                         _______ _______ _______ _____ _____    ______ ____
ROOT
ATOM      5  O   UNL     1      18.462  -5.981  30.465  0.00  0.00    -0.270 OA
ATOM      9  N   UNL     1      17.982  -5.292  25.467  0.00  0.00    -0.162 NA
ATOM     10  N   UNL     1      17.683  -5.969  28.259  0.00  0.00    -0.294 N 
ATOM     13  C   UNL     1      19.091  -5.025  26.425  0.00  0.00    +0.183 C 
ATOM     14  C   UNL     1      19.025  -5.891  27.680  0.00  0.00    +0.138 C 
ATOM     15  C   UNL     1      17.020  -6.341  25.896  0.00  0.00    +0.129 C 
ATOM     16  C   UNL     1      16.562  -6.048  27.317  0.00  0.00    +0.125 C 
ATOM     18  C   UNL     1      17.543  -6.044  29.650  0.00  0.00    +0.247 C 
ENDROOT
BRANCH  18  21
ATOM     21  C   UNL     1      16.188  -6.214  30.198  0.00  0.00    +0.037 A 
ATOM     26  C   UNL     1      15.491  -5.110  30.687  0.00  0.00    +0.015 A 
ATOM     27  C   UNL     1      15.602  -7.479  30.227  0.00  0.00    +0.015 A 
ATOM     32  C   UNL     1      14.206  -5.270  31.206  0.00  0.00    +0.024 A 
ATOM     33  C   UNL     1      14.317  -7.640  30.747  0.00  0.00    +0.024 A 
ATOM     34  C   UNL     1      13.620  -6.536  31.236  0.00  0.00    +0.029 A 
BRANCH  34  12
ATOM     12  N   UNL     1      12.321  -6.699  31.763  0.00  0.00    -0.336 N 
ATOM     41  C   UNL     1      11.630  -7.967  31.631  0.00  0.00    +0.129 C 
ATOM     42  C   UNL     1      11.656  -5.598  32.431  0.00  0.00    +0.129 C 
ENDBRANCH  34  12
ENDBRANCH  18  21
BRANCH  13  17
ATOM      4  O   UNL     1      17.903  -2.965  26.578  0.00  0.00    -0.274 OA
ATOM     11  N   UNL     1      20.130  -3.035  27.249  0.00  0.00    -0.301 N 
ATOM     17  C   UNL     1      18.954  -3.574  26.757  0.00  0.00    +0.234 C 
ATOM     44  H   UNL     1      20.938  -3.639  27.377  0.00  0.00    +0.150 HD
BRANCH  11  20
ATOM     20  C   UNL     1      20.269  -1.646  27.623  0.00  0.00    +0.186 C 
BRANCH  20  25
ATOM      7  O   UNL     1      20.740  -0.446  25.579  0.00  0.00    -0.249 OA
ATOM     25  C   UNL     1      21.151  -0.870  26.655  0.00  0.00    +0.328 C 
BRANCH  25   6
ATOM      6  O   UNL     1      22.424  -0.728  27.119  0.00  0.00    -0.467 OA
ATOM     40  C   UNL     1      23.419  -1.516  26.457  0.00  0.00    +0.280 C 
ENDBRANCH  25   6
ENDBRANCH  20  25
BRANCH  20  22
ATOM     22  C   UNL     1      20.744  -1.504  29.076  0.00  0.00    +0.069 C 
BRANCH  22  28
ATOM     28  C   UNL     1      19.665  -1.108  30.059  0.00  0.00    -0.045 A 
ATOM     35  C   UNL     1      18.432  -1.760  30.040  0.00  0.00    +0.007 A 
ATOM     36  C   UNL     1      19.903  -0.091  30.984  0.00  0.00    +0.007 A 
ATOM     37  C   UNL     1      17.436  -1.394  30.946  0.00  0.00    +0.046 A 
ATOM     38  C   UNL     1      18.907   0.274  31.889  0.00  0.00    +0.046 A 
ATOM     39  C   UNL     1      17.674  -0.378  31.872  0.00  0.00    +0.120 A 
BRANCH  39   8
ATOM      8  O   UNL     1      16.702  -0.021  32.754  0.00  0.00    -0.495 OA
ATOM     43  C   UNL     1      16.711   1.329  33.218  0.00  0.00    +0.277 C 
ENDBRANCH  39   8
ENDBRANCH  22  28
ENDBRANCH  20  22
ENDBRANCH  11  20
ENDBRANCH  13  17
BRANCH   9   1
ATOM      1  S   UNL     1      18.376  -5.264  23.804  0.00  0.00    +0.062 S 
ATOM      2  O   UNL     1      17.696  -6.354  23.138  0.00  0.00    -0.153 OA
ATOM      3  O   UNL     1      19.804  -5.077  23.661  0.00  0.00    -0.153 OA
BRANCH   1  19
ATOM     19  C   UNL     1      17.582  -3.761  23.325  0.00  0.00    +0.106 A 
ATOM     23  C   UNL     1      18.346  -2.638  23.009  0.00  0.00    +0.028 A 
ATOM     24  C   UNL     1      16.190  -3.697  23.261  0.00  0.00    +0.028 A 
ATOM     29  C   UNL     1      17.720  -1.452  22.629  0.00  0.00    +0.002 A 
ATOM     30  C   UNL     1      15.563  -2.511  22.881  0.00  0.00    +0.002 A 
ATOM     31  C   UNL     1      16.328  -1.388  22.565  0.00  0.00    +0.000 A 
ENDBRANCH   1  19
ENDBRANCH   9   1
TORSDOF 11
ENDMDL
MODEL 6
REMARK VINA RESULT:      -6.3      3.932      6.609
REMARK  Name = 7113393
REMARK  15 active torsions:
REMARK  status: ('A' for Active; 'I' for Inactive)
REMARK    1  A    between atoms: S_1  and  N_9
REMARK    2  A    between atoms: S_1  and  C_19
REMARK    3  A    between atoms: O_6  and  C_25
REMARK    4  A    between atoms: O_6  and  C_40
REMARK    5  A    between atoms: O_8  and  C_39
REMARK    6  A    between atoms: O_8  and  C_43
REMARK    7  A    between atoms: N_11  and  C_20
REMARK    8  A    between atoms: N_12  and  C_34
REMARK    9  A    between atoms: N_12  and  C_41
REMARK   10  A    between atoms: N_12  and  C_42
REMARK   11  A    between atoms: C_13  and  C_17
REMARK   12  A    between atoms: C_18  and  C_21
REMARK   13  A    between atoms: C_20  and  C_22
REMARK   14  A    between atoms: C_20  and  C_25
REMARK   15  A    between atoms: C_22  and  C_28
REMARK                            x       y       z     vdW  Elec       q    Type
REMARK                         _______ _______ _______ _____ _____    ______ ____
ROOT
ATOM      5  O   UNL     1      15.864   9.600   0.869  0.00  0.00    -0.270 OA
ATOM      9  N   UNL     1      12.509   6.014   2.120  0.00  0.00    -0.162 NA
ATOM     10  N   UNL     1      14.829   7.694   1.744  0.00  0.00    -0.294 N 
ATOM     13  C   UNL     1      12.432   7.210   1.235  0.00  0.00    +0.183 C 
ATOM     14  C   UNL     1      13.793   7.660   0.711  0.00  0.00    +0.138 C 
ATOM     15  C   UNL     1      13.879   5.477   2.333  0.00  0.00    +0.129 C 
ATOM     16  C   UNL     1      14.804   6.615   2.738  0.00  0.00    +0.125 C 
ATOM     18  C   UNL     1      15.817   8.684   1.688  0.00  0.00    +0.247 C 
ENDROOT
BRANCH  18  21
ATOM     21  C   UNL     1      16.896   8.636   2.687  0.00  0.00    +0.037 A 
ATOM     26  C   UNL     1      18.120   8.052   2.362  0.00  0.00    +0.015 A 
ATOM     27  C   UNL     1      16.695   9.175   3.957  0.00  0.00    +0.015 A 
ATOM     32  C   UNL     1      19.144   8.007   3.308  0.00  0.00    +0.024 A 
ATOM     33  C   UNL     1      17.719   9.130   4.904  0.00  0.00    +0.024 A 
ATOM     34  C   UNL     1      18.943   8.545   4.579  0.00  0.00    +0.029 A 
BRANCH  34  12
ATOM     12  N   UNL     1      19.977   8.498   5.537  0.00  0.00    -0.336 N 
ATOM     41  C   UNL     1      21.366   8.503   5.118  0.00  0.00    +0.129 C 
ATOM     42  C   UNL     1      19.667   8.430   6.951  0.00  0.00    +0.129 C 
ENDBRANCH  34  12
ENDBRANCH  18  21
BRANCH  13  17
ATOM      4  O   UNL     1      11.684   9.423   1.703  0.00  0.00    -0.274 OA
ATOM     11  N   UNL     1      11.410   7.773   3.322  0.00  0.00    -0.301 N 
ATOM     17  C   UNL     1      11.801   8.263   2.088  0.00  0.00    +0.234 C 
ATOM     44  H   UNL     1      11.537   6.786   3.528  0.00  0.00    +0.150 HD
BRANCH  11  20
ATOM     20  C   UNL     1      10.795   8.595   4.340  0.00  0.00    +0.186 C 
BRANCH  20  25
ATOM      7  O   UNL     1      11.554   9.785   6.302  0.00  0.00    -0.249 OA
ATOM     25  C   UNL     1      11.729   8.860   5.513  0.00  0.00    +0.328 C 
BRANCH  25   6
ATOM      6  O   UNL     1      12.763   7.974   5.559  0.00  0.00    -0.467 OA
ATOM     40  C   UNL     1      13.115   7.496   6.861  0.00  0.00    +0.280 C 
ENDBRANCH  25   6
ENDBRANCH  20  25
BRANCH  20  22
ATOM     22  C   UNL     1       9.452   8.006   4.796  0.00  0.00    +0.069 C 
BRANCH  22  28
ATOM     28  C   UNL     1       9.550   7.010   5.930  0.00  0.00    -0.045 A 
ATOM     35  C   UNL     1       9.231   7.402   7.230  0.00  0.00    +0.007 A 
ATOM     36  C   UNL     1       9.959   5.701   5.676  0.00  0.00    +0.007 A 
ATOM     37  C   UNL     1       9.321   6.483   8.277  0.00  0.00    +0.046 A 
ATOM     38  C   UNL     1      10.050   4.784   6.722  0.00  0.00    +0.046 A 
ATOM     39  C   UNL     1       9.731   5.174   8.022  0.00  0.00    +0.120 A 
BRANCH  39   8
ATOM      8  O   UNL     1       9.820   4.279   9.043  0.00  0.00    -0.495 OA
ATOM     43  C   UNL     1       8.958   4.484  10.163  0.00  0.00    +0.277 C 
ENDBRANCH  39   8
ENDBRANCH  22  28
ENDBRANCH  20  22
ENDBRANCH  11  20
ENDBRANCH  13  17
BRANCH   9   1
ATOM      1  S   UNL     1      11.261   4.857   1.964  0.00  0.00    +0.062 S 
ATOM      2  O   UNL     1       9.981   5.523   2.076  0.00  0.00    -0.153 OA
ATOM      3  O   UNL     1      11.578   3.708   2.786  0.00  0.00    -0.153 OA
BRANCH   1  19
ATOM     19  C   UNL     1      11.480   4.392   0.275  0.00  0.00    +0.106 A 
ATOM     23  C   UNL     1      10.572   4.825  -0.691  0.00  0.00    +0.028 A 
ATOM     24  C   UNL     1      12.562   3.592  -0.094  0.00  0.00    +0.028 A 
ATOM     29  C   UNL     1      10.746   4.459  -2.026  0.00  0.00    +0.002 A 
ATOM     30  C   UNL     1      12.736   3.226  -1.428  0.00  0.00    +0.002 A 
ATOM     31  C   UNL     1      11.827   3.660  -2.394  0.00  0.00    +0.000 A 
ENDBRANCH   1  19
ENDBRANCH   9   1
TORSDOF 11
ENDMDL
MODEL 7
REMARK VINA RESULT:      -6.2      2.650      5.935
REMARK  Name = 7113393
REMARK  15 active torsions:
REMARK  status: ('A' for Active; 'I' for Inactive)
REMARK    1  A    between atoms: S_1  and  N_9
REMARK    2  A    between atoms: S_1  and  C_19
REMARK    3  A    between atoms: O_6  and  C_25
REMARK    4  A    between atoms: O_6  and  C_40
REMARK    5  A    between atoms: O_8  and  C_39
REMARK    6  A    between atoms: O_8  and  C_43
REMARK    7  A    between atoms: N_11  and  C_20
REMARK    8  A    between atoms: N_12  and  C_34
REMARK    9  A    between atoms: N_12  and  C_41
REMARK   10  A    between atoms: N_12  and  C_42
REMARK   11  A    between atoms: C_13  and  C_17
REMARK   12  A    between atoms: C_18  and  C_21
REMARK   13  A    between atoms: C_20  and  C_22
REMARK   14  A    between atoms: C_20  and  C_25
REMARK   15  A    between atoms: C_22  and  C_28
REMARK                            x       y       z     vdW  Elec       q    Type
REMARK                         _______ _______ _______ _____ _____    ______ ____
ROOT
ATOM      5  O   UNL     1      15.187  10.838   4.669  0.00  0.00    -0.270 OA
ATOM      9  N   UNL     1      12.330   6.753   3.759  0.00  0.00    -0.162 NA
ATOM     10  N   UNL     1      14.436   8.705   4.073  0.00  0.00    -0.294 N 
ATOM     13  C   UNL     1      12.003   8.148   4.167  0.00  0.00    +0.183 C 
ATOM     14  C   UNL     1      13.077   9.158   3.772  0.00  0.00    +0.138 C 
ATOM     15  C   UNL     1      13.626   6.593   3.050  0.00  0.00    +0.129 C 
ATOM     16  C   UNL     1      14.722   7.284   3.848  0.00  0.00    +0.125 C 
ATOM     18  C   UNL     1      15.395   9.642   4.473  0.00  0.00    +0.247 C 
ENDROOT
BRANCH  18  21
ATOM     21  C   UNL     1      16.774   9.171   4.678  0.00  0.00    +0.037 A 
ATOM     26  C   UNL     1      17.275   9.028   5.972  0.00  0.00    +0.015 A 
ATOM     27  C   UNL     1      17.579   8.869   3.580  0.00  0.00    +0.015 A 
ATOM     32  C   UNL     1      18.583   8.582   6.167  0.00  0.00    +0.024 A 
ATOM     33  C   UNL     1      18.886   8.423   3.776  0.00  0.00    +0.024 A 
ATOM     34  C   UNL     1      19.387   8.280   5.069  0.00  0.00    +0.029 A 
BRANCH  34  12
ATOM     12  N   UNL     1      20.710   7.831   5.266  0.00  0.00    -0.336 N 
ATOM     41  C   UNL     1      21.161   6.591   4.664  0.00  0.00    +0.129 C 
ATOM     42  C   UNL     1      21.631   8.594   6.084  0.00  0.00    +0.129 C 
ENDBRANCH  34  12
ENDBRANCH  18  21
BRANCH  13  17
ATOM      4  O   UNL     1      12.677   7.521   6.365  0.00  0.00    -0.274 OA
ATOM     11  N   UNL     1      10.670   8.666   6.083  0.00  0.00    -0.301 N 
ATOM     17  C   UNL     1      11.844   8.074   5.651  0.00  0.00    +0.234 C 
ATOM     44  H   UNL     1      10.060   9.115   5.404  0.00  0.00    +0.150 HD
BRANCH  11  20
ATOM     20  C   UNL     1      10.269   8.709   7.471  0.00  0.00    +0.186 C 
BRANCH  20  25
ATOM      7  O   UNL     1       8.251   7.435   7.855  0.00  0.00    -0.249 OA
ATOM     25  C   UNL     1       9.478   7.475   7.884  0.00  0.00    +0.328 C 
BRANCH  25   6
ATOM      6  O   UNL     1      10.287   6.459   8.294  0.00  0.00    -0.467 OA
ATOM     40  C   UNL     1       9.624   5.333   8.878  0.00  0.00    +0.280 C 
ENDBRANCH  25   6
ENDBRANCH  20  25
BRANCH  20  22
ATOM     22  C   UNL     1       9.518  10.008   7.795  0.00  0.00    +0.069 C 
BRANCH  22  28
ATOM     28  C   UNL     1      10.047  10.761   8.996  0.00  0.00    -0.045 A 
ATOM     35  C   UNL     1      11.405  11.068   9.082  0.00  0.00    +0.007 A 
ATOM     36  C   UNL     1       9.178  11.147  10.016  0.00  0.00    +0.007 A 
ATOM     37  C   UNL     1      11.894  11.762  10.190  0.00  0.00    +0.046 A 
ATOM     38  C   UNL     1       9.667  11.840  11.123  0.00  0.00    +0.046 A 
ATOM     39  C   UNL     1      11.024  12.149  11.210  0.00  0.00    +0.120 A 
BRANCH  39   8
ATOM      8  O   UNL     1      11.501  12.824  12.291  0.00  0.00    -0.495 OA
ATOM     43  C   UNL     1      11.232  14.224  12.352  0.00  0.00    +0.277 C 
ENDBRANCH  39   8
ENDBRANCH  22  28
ENDBRANCH  20  22
ENDBRANCH  11  20
ENDBRANCH  13  17
BRANCH   9   1
ATOM      1  S   UNL     1      11.035   5.791   3.192  0.00  0.00    +0.062 S 
ATOM      2  O   UNL     1      10.343   5.214   4.325  0.00  0.00    -0.153 OA
ATOM      3  O   UNL     1      11.507   4.960   2.105  0.00  0.00    -0.153 OA
BRANCH   1  19
ATOM     19  C   UNL     1       9.997   7.044   2.506  0.00  0.00    +0.106 A 
ATOM     23  C   UNL     1      10.257   7.545   1.231  0.00  0.00    +0.028 A 
ATOM     24  C   UNL     1       8.916   7.532   3.240  0.00  0.00    +0.028 A 
ATOM     29  C   UNL     1       9.437   8.533   0.689  0.00  0.00    +0.002 A 
ATOM     30  C   UNL     1       8.095   8.521   2.698  0.00  0.00    +0.002 A 
ATOM     31  C   UNL     1       8.356   9.021   1.422  0.00  0.00    +0.000 A 
ENDBRANCH   1  19
ENDBRANCH   9   1
TORSDOF 11
ENDMDL
MODEL 8
REMARK VINA RESULT:      -6.2      3.346      6.677
REMARK  Name = 7113393
REMARK  15 active torsions:
REMARK  status: ('A' for Active; 'I' for Inactive)
REMARK    1  A    between atoms: S_1  and  N_9
REMARK    2  A    between atoms: S_1  and  C_19
REMARK    3  A    between atoms: O_6  and  C_25
REMARK    4  A    between atoms: O_6  and  C_40
REMARK    5  A    between atoms: O_8  and  C_39
REMARK    6  A    between atoms: O_8  and  C_43
REMARK    7  A    between atoms: N_11  and  C_20
REMARK    8  A    between atoms: N_12  and  C_34
REMARK    9  A    between atoms: N_12  and  C_41
REMARK   10  A    between atoms: N_12  and  C_42
REMARK   11  A    between atoms: C_13  and  C_17
REMARK   12  A    between atoms: C_18  and  C_21
REMARK   13  A    between atoms: C_20  and  C_22
REMARK   14  A    between atoms: C_20  and  C_25
REMARK   15  A    between atoms: C_22  and  C_28
REMARK                            x       y       z     vdW  Elec       q    Type
REMARK                         _______ _______ _______ _____ _____    ______ ____
ROOT
ATOM      5  O   UNL     1      15.394  10.700   3.613  0.00  0.00    -0.270 OA
ATOM      9  N   UNL     1      12.392   6.624   3.380  0.00  0.00    -0.162 NA
ATOM     10  N   UNL     1      14.574   8.516   3.446  0.00  0.00    -0.294 N 
ATOM     13  C   UNL     1      12.114   8.086   3.427  0.00  0.00    +0.183 C 
ATOM     14  C   UNL     1      13.275   8.937   2.919  0.00  0.00    +0.138 C 
ATOM     15  C   UNL     1      13.734   6.256   2.855  0.00  0.00    +0.129 C 
ATOM     16  C   UNL     1      14.794   7.072   3.578  0.00  0.00    +0.125 C 
ATOM     18  C   UNL     1      15.548   9.484   3.714  0.00  0.00    +0.247 C 
ENDROOT
BRANCH  18  21
ATOM     21  C   UNL     1      16.874   9.023   4.154  0.00  0.00    +0.037 A 
ATOM     26  C   UNL     1      17.805   8.580   3.214  0.00  0.00    +0.015 A 
ATOM     27  C   UNL     1      17.200   9.029   5.510  0.00  0.00    +0.015 A 
ATOM     32  C   UNL     1      19.062   8.142   3.631  0.00  0.00    +0.024 A 
ATOM     33  C   UNL     1      18.458   8.592   5.927  0.00  0.00    +0.024 A 
ATOM     34  C   UNL     1      19.388   8.148   4.987  0.00  0.00    +0.029 A 
BRANCH  34  12
ATOM     12  N   UNL     1      20.659   7.704   5.409  0.00  0.00    -0.336 N 
ATOM     41  C   UNL     1      21.318   6.609   4.724  0.00  0.00    +0.129 C 
ATOM     42  C   UNL     1      21.317   8.326   6.540  0.00  0.00    +0.129 C 
ENDBRANCH  34  12
ENDBRANCH  18  21
BRANCH  13  17
ATOM      4  O   UNL     1      12.338   9.307   5.461  0.00  0.00    -0.274 OA
ATOM     11  N   UNL     1      10.953   7.437   5.414  0.00  0.00    -0.301 N 
ATOM     17  C   UNL     1      11.823   8.364   4.867  0.00  0.00    +0.234 C 
ATOM     44  H   UNL     1      10.569   6.705   4.822  0.00  0.00    +0.150 HD
BRANCH  11  20
ATOM     20  C   UNL     1      10.531   7.468   6.796  0.00  0.00    +0.186 C 
BRANCH  20  25
ATOM      7  O   UNL     1      11.893   5.905   8.038  0.00  0.00    -0.249 OA
ATOM     25  C   UNL     1      10.810   6.156   7.517  0.00  0.00    +0.328 C 
BRANCH  25   6
ATOM      6  O   UNL     1       9.737   5.317   7.492  0.00  0.00    -0.467 OA
ATOM     40  C   UNL     1       9.667   4.365   8.559  0.00  0.00    +0.280 C 
ENDBRANCH  25   6
ENDBRANCH  20  25
BRANCH  20  22
ATOM     22  C   UNL     1       9.060   7.892   6.921  0.00  0.00    +0.069 C 
BRANCH  22  28
ATOM     28  C   UNL     1       8.559   8.773   5.798  0.00  0.00    -0.045 A 
ATOM     35  C   UNL     1       7.941   8.201   4.687  0.00  0.00    +0.007 A 
ATOM     36  C   UNL     1       8.715  10.157   5.874  0.00  0.00    +0.007 A 
ATOM     37  C   UNL     1       7.478   9.013   3.650  0.00  0.00    +0.046 A 
ATOM     38  C   UNL     1       8.254  10.969   4.839  0.00  0.00    +0.046 A 
ATOM     39  C   UNL     1       7.635  10.398   3.727  0.00  0.00    +0.120 A 
BRANCH  39   8
ATOM      8  O   UNL     1       7.185  11.189   2.716  0.00  0.00    -0.495 OA
ATOM     43  C   UNL     1       7.380  10.715   1.384  0.00  0.00    +0.277 C 
ENDBRANCH  39   8
ENDBRANCH  22  28
ENDBRANCH  20  22
ENDBRANCH  11  20
ENDBRANCH  13  17
BRANCH   9   1
ATOM      1  S   UNL     1      11.098   5.606   2.923  0.00  0.00    +0.062 S 
ATOM      2  O   UNL     1      10.010   6.419   2.422  0.00  0.00    -0.153 OA
ATOM      3  O   UNL     1      10.876   4.627   3.966  0.00  0.00    -0.153 OA
BRANCH   1  19
ATOM     19  C   UNL     1      11.829   4.775   1.547  0.00  0.00    +0.106 A 
ATOM     23  C   UNL     1      11.657   5.279   0.258  0.00  0.00    +0.028 A 
ATOM     24  C   UNL     1      12.579   3.617   1.749  0.00  0.00    +0.028 A 
ATOM     29  C   UNL     1      12.235   4.624  -0.830  0.00  0.00    +0.002 A 
ATOM     30  C   UNL     1      13.158   2.962   0.663  0.00  0.00    +0.002 A 
ATOM     31  C   UNL     1      12.985   3.466  -0.627  0.00  0.00    +0.000 A 
ENDBRANCH   1  19
ENDBRANCH   9   1
TORSDOF 11
ENDMDL
MODEL 9
REMARK VINA RESULT:      -6.2     27.011     31.533
REMARK  Name = 7113393
REMARK  15 active torsions:
REMARK  status: ('A' for Active; 'I' for Inactive)
REMARK    1  A    between atoms: S_1  and  N_9
REMARK    2  A    between atoms: S_1  and  C_19
REMARK    3  A    between atoms: O_6  and  C_25
REMARK    4  A    between atoms: O_6  and  C_40
REMARK    5  A    between atoms: O_8  and  C_39
REMARK    6  A    between atoms: O_8  and  C_43
REMARK    7  A    between atoms: N_11  and  C_20
REMARK    8  A    between atoms: N_12  and  C_34
REMARK    9  A    between atoms: N_12  and  C_41
REMARK   10  A    between atoms: N_12  and  C_42
REMARK   11  A    between atoms: C_13  and  C_17
REMARK   12  A    between atoms: C_18  and  C_21
REMARK   13  A    between atoms: C_20  and  C_22
REMARK   14  A    between atoms: C_20  and  C_25
REMARK   15  A    between atoms: C_22  and  C_28
REMARK                            x       y       z     vdW  Elec       q    Type
REMARK                         _______ _______ _______ _____ _____    ______ ____
ROOT
ATOM      5  O   UNL     1     -16.840   4.481  20.902  0.00  0.00    -0.270 OA
ATOM      9  N   UNL     1     -15.498   9.088  22.533  0.00  0.00    -0.162 NA
ATOM     10  N   UNL     1     -16.505   6.402  22.195  0.00  0.00    -0.294 N 
ATOM     13  C   UNL     1     -15.418   8.420  21.204  0.00  0.00    +0.183 C 
ATOM     14  C   UNL     1     -16.431   7.291  21.035  0.00  0.00    +0.138 C 
ATOM     15  C   UNL     1     -16.537   8.544  23.447  0.00  0.00    +0.129 C 
ATOM     16  C   UNL     1     -16.400   7.031  23.516  0.00  0.00    +0.125 C 
ATOM     18  C   UNL     1     -16.747   5.037  21.995  0.00  0.00    +0.247 C 
ENDROOT
BRANCH  18  21
ATOM     21  C   UNL     1     -16.908   4.185  23.183  0.00  0.00    +0.037 A 
ATOM     26  C   UNL     1     -18.180   3.948  23.703  0.00  0.00    +0.015 A 
ATOM     27  C   UNL     1     -15.788   3.616  23.790  0.00  0.00    +0.015 A 
ATOM     32  C   UNL     1     -18.333   3.140  24.830  0.00  0.00    +0.024 A 
ATOM     33  C   UNL     1     -15.941   2.808  24.917  0.00  0.00    +0.024 A 
ATOM     34  C   UNL     1     -17.213   2.570  25.437  0.00  0.00    +0.029 A 
BRANCH  34  12
ATOM     12  N   UNL     1     -17.367   1.755  26.577  0.00  0.00    -0.336 N 
ATOM     41  C   UNL     1     -16.773   2.143  27.842  0.00  0.00    +0.129 C 
ATOM     42  C   UNL     1     -18.110   0.513  26.498  0.00  0.00    +0.129 C 
ENDBRANCH  34  12
ENDBRANCH  18  21
BRANCH  13  17
ATOM      4  O   UNL     1     -13.642   6.942  21.788  0.00  0.00    -0.274 OA
ATOM     11  N   UNL     1     -13.229   8.659  20.272  0.00  0.00    -0.301 N 
ATOM     17  C   UNL     1     -14.015   7.909  21.129  0.00  0.00    +0.234 C 
ATOM     44  H   UNL     1     -13.649   9.430  19.758  0.00  0.00    +0.150 HD
BRANCH  11  20
ATOM     20  C   UNL     1     -11.829   8.387  20.040  0.00  0.00    +0.186 C 
BRANCH  20  25
ATOM      7  O   UNL     1      -9.790   9.659  19.783  0.00  0.00    -0.249 OA
ATOM     25  C   UNL     1     -11.017   9.659  19.837  0.00  0.00    +0.328 C 
BRANCH  25   6
ATOM      6  O   UNL     1     -11.806  10.764  19.745  0.00  0.00    -0.467 OA
ATOM     40  C   UNL     1     -11.520  11.645  18.654  0.00  0.00    +0.280 C 
ENDBRANCH  25   6
ENDBRANCH  20  25
BRANCH  20  22
ATOM     22  C   UNL     1     -11.638   7.392  18.887  0.00  0.00    +0.069 C 
BRANCH  22  28
ATOM     28  C   UNL     1     -11.702   8.005  17.505  0.00  0.00    -0.045 A 
ATOM     35  C   UNL     1     -12.926   8.430  16.988  0.00  0.00    +0.007 A 
ATOM     36  C   UNL     1     -10.539   8.144  16.748  0.00  0.00    +0.007 A 
ATOM     37  C   UNL     1     -12.986   8.995  15.714  0.00  0.00    +0.046 A 
ATOM     38  C   UNL     1     -10.599   8.708  15.475  0.00  0.00    +0.046 A 
ATOM     39  C   UNL     1     -11.822   9.135  14.957  0.00  0.00    +0.120 A 
BRANCH  39   8
ATOM      8  O   UNL     1     -11.882   9.684  13.714  0.00  0.00    -0.495 OA
ATOM     43  C   UNL     1     -12.571   8.942  12.709  0.00  0.00    +0.277 C 
ENDBRANCH  39   8
ENDBRANCH  22  28
ENDBRANCH  20  22
ENDBRANCH  11  20
ENDBRANCH  13  17
BRANCH   9   1
ATOM      1  S   UNL     1     -15.282  10.783  22.559  0.00  0.00    +0.062 S 
ATOM      2  O   UNL     1     -16.419  11.395  23.214  0.00  0.00    -0.153 OA
ATOM      3  O   UNL     1     -14.851  11.224  21.250  0.00  0.00    -0.153 OA
BRANCH   1  19
ATOM     19  C   UNL     1     -13.901  10.901  23.654  0.00  0.00    +0.106 A 
ATOM     23  C   UNL     1     -14.061  10.621  25.010  0.00  0.00    +0.028 A 
ATOM     24  C   UNL     1     -12.651  11.274  23.161  0.00  0.00    +0.028 A 
ATOM     29  C   UNL     1     -12.970  10.713  25.875  0.00  0.00    +0.002 A 
ATOM     30  C   UNL     1     -11.560  11.366  24.025  0.00  0.00    +0.002 A 
ATOM     31  C   UNL     1     -11.720  11.085  25.382  0.00  0.00    +0.000 A 
ENDBRANCH   1  19
ENDBRANCH   9   1
TORSDOF 11
ENDMDL
MODEL 10
REMARK VINA RESULT:      -6.2     26.395     30.226
REMARK  Name = 7113393
REMARK  15 active torsions:
REMARK  status: ('A' for Active; 'I' for Inactive)
REMARK    1  A    between atoms: S_1  and  N_9
REMARK    2  A    between atoms: S_1  and  C_19
REMARK    3  A    between atoms: O_6  and  C_25
REMARK    4  A    between atoms: O_6  and  C_40
REMARK    5  A    between atoms: O_8  and  C_39
REMARK    6  A    between atoms: O_8  and  C_43
REMARK    7  A    between atoms: N_11  and  C_20
REMARK    8  A    between atoms: N_12  and  C_34
REMARK    9  A    between atoms: N_12  and  C_41
REMARK   10  A    between atoms: N_12  and  C_42
REMARK   11  A    between atoms: C_13  and  C_17
REMARK   12  A    between atoms: C_18  and  C_21
REMARK   13  A    between atoms: C_20  and  C_22
REMARK   14  A    between atoms: C_20  and  C_25
REMARK   15  A    between atoms: C_22  and  C_28
REMARK                            x       y       z     vdW  Elec       q    Type
REMARK                         _______ _______ _______ _____ _____    ______ ____
ROOT
ATOM      5  O   UNL     1     -11.620   6.782  19.859  0.00  0.00    -0.270 OA
ATOM      9  N   UNL     1     -13.748  10.833  22.035  0.00  0.00    -0.162 NA
ATOM     10  N   UNL     1     -12.367   8.945  20.341  0.00  0.00    -0.294 N 
ATOM     13  C   UNL     1     -13.568   9.422  22.478  0.00  0.00    +0.183 C 
ATOM     14  C   UNL     1     -12.404   8.718  21.786  0.00  0.00    +0.138 C 
ATOM     15  C   UNL     1     -12.776  11.300  21.012  0.00  0.00    +0.129 C 
ATOM     16  C   UNL     1     -12.723  10.290  19.876  0.00  0.00    +0.125 C 
ATOM     18  C   UNL     1     -11.926   7.917  19.499  0.00  0.00    +0.247 C 
ENDROOT
BRANCH  18  21
ATOM     21  C   UNL     1     -11.811   8.206  18.061  0.00  0.00    +0.037 A 
ATOM     26  C   UNL     1     -10.567   8.505  17.507  0.00  0.00    +0.015 A 
ATOM     27  C   UNL     1     -12.948   8.182  17.253  0.00  0.00    +0.015 A 
ATOM     32  C   UNL     1     -10.458   8.779  16.144  0.00  0.00    +0.024 A 
ATOM     33  C   UNL     1     -12.839   8.456  15.889  0.00  0.00    +0.024 A 
ATOM     34  C   UNL     1     -11.594   8.755  15.335  0.00  0.00    +0.029 A 
BRANCH  34  12
ATOM     12  N   UNL     1     -11.485   9.034  13.957  0.00  0.00    -0.336 N 
ATOM     41  C   UNL     1     -12.008  10.273  13.415  0.00  0.00    +0.129 C 
ATOM     42  C   UNL     1     -10.861   8.080  13.061  0.00  0.00    +0.129 C 
ENDBRANCH  34  12
ENDBRANCH  18  21
BRANCH  13  17
ATOM      4  O   UNL     1     -15.813   9.388  21.679  0.00  0.00    -0.274 OA
ATOM     11  N   UNL     1     -14.872   7.418  22.485  0.00  0.00    -0.301 N 
ATOM     17  C   UNL     1     -14.871   8.763  22.158  0.00  0.00    +0.234 C 
ATOM     44  H   UNL     1     -14.026   6.997  22.859  0.00  0.00    +0.150 HD
BRANCH  11  20
ATOM     20  C   UNL     1     -16.019   6.559  22.296  0.00  0.00    +0.186 C 
BRANCH  20  25
ATOM      7  O   UNL     1     -15.919   5.074  24.200  0.00  0.00    -0.249 OA
ATOM     25  C   UNL     1     -16.520   5.964  23.605  0.00  0.00    +0.328 C 
BRANCH  25   6
ATOM      6  O   UNL     1     -17.697   6.520  24.007  0.00  0.00    -0.467 OA
ATOM     40  C   UNL     1     -17.587   7.717  24.783  0.00  0.00    +0.280 C 
ENDBRANCH  25   6
ENDBRANCH  20  25
BRANCH  20  22
ATOM     22  C   UNL     1     -15.739   5.478  21.243  0.00  0.00    +0.069 C 
BRANCH  22  28
ATOM     28  C   UNL     1     -16.350   5.745  19.885  0.00  0.00    -0.045 A 
ATOM     35  C   UNL     1     -16.028   6.913  19.194  0.00  0.00    +0.007 A 
ATOM     36  C   UNL     1     -17.234   4.824  19.324  0.00  0.00    +0.007 A 
ATOM     37  C   UNL     1     -16.592   7.160  17.941  0.00  0.00    +0.046 A 
ATOM     38  C   UNL     1     -17.798   5.071  18.073  0.00  0.00    +0.046 A 
ATOM     39  C   UNL     1     -17.476   6.238  17.381  0.00  0.00    +0.120 A 
BRANCH  39   8
ATOM      8  O   UNL     1     -18.026   6.480  16.160  0.00  0.00    -0.495 OA
ATOM     43  C   UNL     1     -17.389   5.883  15.031  0.00  0.00    +0.277 C 
ENDBRANCH  39   8
ENDBRANCH  22  28
ENDBRANCH  20  22
ENDBRANCH  11  20
ENDBRANCH  13  17
BRANCH   9   1
ATOM      1  S   UNL     1     -14.185  11.969  23.236  0.00  0.00    +0.062 S 
ATOM      2  O   UNL     1     -15.599  11.841  23.517  0.00  0.00    -0.153 OA
ATOM      3  O   UNL     1     -13.604  13.252  22.904  0.00  0.00    -0.153 OA
BRANCH   1  19
ATOM     19  C   UNL     1     -13.300  11.314  24.617  0.00  0.00    +0.106 A 
ATOM     23  C   UNL     1     -13.994  10.852  25.734  0.00  0.00    +0.028 A 
ATOM     24  C   UNL     1     -11.906  11.257  24.589  0.00  0.00    +0.028 A 
ATOM     29  C   UNL     1     -13.296  10.333  26.824  0.00  0.00    +0.002 A 
ATOM     30  C   UNL     1     -11.208  10.739  25.678  0.00  0.00    +0.002 A 
ATOM     31  C   UNL     1     -11.903  10.277  26.796  0.00  0.00    +0.000 A 
ENDBRANCH   1  19
ENDBRANCH   9   1
TORSDOF 11
ENDMDL
