MODEL 1
REMARK VINA RESULT:      -6.3      0.000      0.000
REMARK  Name = 75537069
REMARK  4 active torsions:
REMARK  status: ('A' for Active; 'I' for Inactive)
REMARK    1  A    between atoms: N_3  and  C_12
REMARK    2  A    between atoms: N_4  and  C_13
REMARK    3  A    between atoms: C_12  and  C_14
REMARK    4  A    between atoms: C_13  and  C_15
REMARK                            x       y       z     vdW  Elec       q    Type
REMARK                         _______ _______ _______ _____ _____    ______ ____
ROOT
ATOM      1  O   UNL     1     -17.012   2.066  22.542  0.00  0.00    -0.252 OA
ATOM      2  N   UNL     1     -16.463   2.380  24.806  0.00  0.00    -0.278 N 
ATOM      3  N   UNL     1     -16.622   2.137  27.603  0.00  0.00    -0.295 NA
ATOM      4  N   UNL     1     -16.455   4.171  23.451  0.00  0.00    -0.278 N 
ATOM      6  C   UNL     1     -15.968   3.460  25.634  0.00  0.00    +0.109 C 
ATOM      7  C   UNL     1     -16.692   3.474  26.980  0.00  0.00    +0.109 C 
ATOM      8  C   UNL     1     -16.185   4.704  24.774  0.00  0.00    +0.133 C 
ATOM      9  C   UNL     1     -16.577   1.050  25.368  0.00  0.00    +0.125 C 
ATOM     10  C   UNL     1     -17.253   1.119  26.739  0.00  0.00    +0.104 C 
ATOM     11  C   UNL     1     -16.681   2.780  23.480  0.00  0.00    +0.306 C 
ENDROOT
BRANCH   3  12
ATOM     12  C   UNL     1     -17.260   2.155  28.919  0.00  0.00    +0.119 C 
BRANCH  12  14
ATOM     14  C   UNL     1     -16.269   1.909  30.025  0.00  0.00    -0.033 A 
ATOM     16  C   UNL     1     -15.741   0.633  30.219  0.00  0.00    +0.005 A 
ATOM     17  C   UNL     1     -15.880   2.959  30.858  0.00  0.00    +0.005 A 
ATOM     19  C   UNL     1     -14.824   0.406  31.246  0.00  0.00    +0.000 A 
ATOM     20  C   UNL     1     -14.962   2.732  31.884  0.00  0.00    +0.000 A 
ATOM     22  C   UNL     1     -14.434   1.456  32.078  0.00  0.00    +0.000 A 
ENDBRANCH  12  14
ENDBRANCH   3  12
BRANCH   4  13
ATOM     13  C   UNL     1     -16.614   5.029  22.297  0.00  0.00    +0.164 C 
BRANCH  13  15
ATOM      5  N   UNL     1     -15.441   7.047  21.611  0.00  0.00    -0.258 NA
ATOM     15  C   UNL     1     -15.334   5.743  21.950  0.00  0.00    +0.059 A 
ATOM     18  C   UNL     1     -14.137   5.048  21.993  0.00  0.00    +0.025 A 
ATOM     21  C   UNL     1     -12.973   5.737  21.668  0.00  0.00    +0.003 A 
ATOM     23  C   UNL     1     -14.289   7.684  21.300  0.00  0.00    +0.111 A 
ATOM     24  C   UNL     1     -13.042   7.080  21.314  0.00  0.00    +0.020 A 
ENDBRANCH  13  15
ENDBRANCH   4  13
TORSDOF 4
ENDMDL
MODEL 2
REMARK VINA RESULT:      -6.2     15.486     17.005
REMARK  Name = 75537069
REMARK  4 active torsions:
REMARK  status: ('A' for Active; 'I' for Inactive)
REMARK    1  A    between atoms: N_3  and  C_12
REMARK    2  A    between atoms: N_4  and  C_13
REMARK    3  A    between atoms: C_12  and  C_14
REMARK    4  A    between atoms: C_13  and  C_15
REMARK                            x       y       z     vdW  Elec       q    Type
REMARK                         _______ _______ _______ _____ _____    ______ ____
ROOT
ATOM      1  O   UNL     1     -12.574  -8.390  13.312  0.00  0.00    -0.252 OA
ATOM      2  N   UNL     1     -10.708  -8.247  14.732  0.00  0.00    -0.278 N 
ATOM      3  N   UNL     1      -8.764  -9.048  16.600  0.00  0.00    -0.295 NA
ATOM      4  N   UNL     1     -12.169  -6.542  14.721  0.00  0.00    -0.278 N 
ATOM      6  C   UNL     1     -10.108  -7.249  15.593  0.00  0.00    +0.109 C 
ATOM      7  C   UNL     1      -9.629  -7.888  16.896  0.00  0.00    +0.109 C 
ATOM      8  C   UNL     1     -11.210  -6.204  15.756  0.00  0.00    +0.133 C 
ATOM      9  C   UNL     1     -10.006  -9.492  14.493  0.00  0.00    +0.125 C 
ATOM     10  C   UNL     1      -9.494 -10.065  15.816  0.00  0.00    +0.104 C 
ATOM     11  C   UNL     1     -11.900  -7.801  14.146  0.00  0.00    +0.306 C 
ENDROOT
BRANCH   3  12
ATOM     12  C   UNL     1      -8.251  -9.630  17.839  0.00  0.00    +0.119 C 
BRANCH  12  14
ATOM     14  C   UNL     1      -6.823 -10.084  17.697  0.00  0.00    -0.033 A 
ATOM     16  C   UNL     1      -6.098  -9.761  16.551  0.00  0.00    +0.005 A 
ATOM     17  C   UNL     1      -6.225 -10.829  18.714  0.00  0.00    +0.005 A 
ATOM     19  C   UNL     1      -4.775 -10.183  16.419  0.00  0.00    +0.000 A 
ATOM     20  C   UNL     1      -4.901 -11.250  18.584  0.00  0.00    +0.000 A 
ATOM     22  C   UNL     1      -4.176 -10.927  17.436  0.00  0.00    +0.000 A 
ENDBRANCH  12  14
ENDBRANCH   3  12
BRANCH   4  13
ATOM     13  C   UNL     1     -13.331  -5.723  14.455  0.00  0.00    +0.164 C 
BRANCH  13  15
ATOM      5  N   UNL     1     -14.110  -5.436  12.168  0.00  0.00    -0.258 NA
ATOM     15  C   UNL     1     -13.238  -5.034  13.119  0.00  0.00    +0.059 A 
ATOM     18  C   UNL     1     -12.287  -4.045  12.932  0.00  0.00    +0.025 A 
ATOM     21  C   UNL     1     -12.227  -3.427  11.687  0.00  0.00    +0.003 A 
ATOM     23  C   UNL     1     -14.021  -4.814  10.970  0.00  0.00    +0.111 A 
ATOM     24  C   UNL     1     -13.108  -3.813  10.683  0.00  0.00    +0.020 A 
ENDBRANCH  13  15
ENDBRANCH   4  13
TORSDOF 4
ENDMDL
MODEL 3
REMARK VINA RESULT:      -6.1      1.823      8.587
REMARK  Name = 75537069
REMARK  4 active torsions:
REMARK  status: ('A' for Active; 'I' for Inactive)
REMARK    1  A    between atoms: N_3  and  C_12
REMARK    2  A    between atoms: N_4  and  C_13
REMARK    3  A    between atoms: C_12  and  C_14
REMARK    4  A    between atoms: C_13  and  C_15
REMARK                            x       y       z     vdW  Elec       q    Type
REMARK                         _______ _______ _______ _____ _____    ______ ____
ROOT
ATOM      1  O   UNL     1     -18.368   4.999  26.279  0.00  0.00    -0.252 OA
ATOM      2  N   UNL     1     -16.679   5.323  24.678  0.00  0.00    -0.278 N 
ATOM      3  N   UNL     1     -15.461   6.126  22.274  0.00  0.00    -0.295 NA
ATOM      4  N   UNL     1     -16.799   3.332  25.710  0.00  0.00    -0.278 N 
ATOM      6  C   UNL     1     -15.522   4.595  24.200  0.00  0.00    +0.109 C 
ATOM      7  C   UNL     1     -15.414   4.707  22.679  0.00  0.00    +0.109 C 
ATOM      8  C   UNL     1     -15.742   3.178  24.726  0.00  0.00    +0.133 C 
ATOM      9  C   UNL     1     -16.902   6.679  24.222  0.00  0.00    +0.125 C 
ATOM     10  C   UNL     1     -16.726   6.756  22.704  0.00  0.00    +0.104 C 
ATOM     11  C   UNL     1     -17.402   4.604  25.640  0.00  0.00    +0.306 C 
ENDROOT
BRANCH   3  12
ATOM     12  C   UNL     1     -15.297   6.247  20.826  0.00  0.00    +0.119 C 
BRANCH  12  14
ATOM     14  C   UNL     1     -13.988   6.895  20.462  0.00  0.00    -0.033 A 
ATOM     16  C   UNL     1     -13.936   7.833  19.432  0.00  0.00    +0.005 A 
ATOM     17  C   UNL     1     -12.826   6.555  21.155  0.00  0.00    +0.005 A 
ATOM     19  C   UNL     1     -12.722   8.433  19.094  0.00  0.00    +0.000 A 
ATOM     20  C   UNL     1     -11.612   7.155  20.819  0.00  0.00    +0.000 A 
ATOM     22  C   UNL     1     -11.560   8.094  19.788  0.00  0.00    +0.000 A 
ENDBRANCH  12  14
ENDBRANCH   3  12
BRANCH   4  13
ATOM     13  C   UNL     1     -17.244   2.230  26.536  0.00  0.00    +0.164 C 
BRANCH  13  15
ATOM      5  N   UNL     1     -16.246   0.802  28.235  0.00  0.00    -0.258 NA
ATOM     15  C   UNL     1     -16.378   2.060  27.756  0.00  0.00    +0.059 A 
ATOM     18  C   UNL     1     -15.772   3.171  28.317  0.00  0.00    +0.025 A 
ATOM     21  C   UNL     1     -14.978   2.980  29.443  0.00  0.00    +0.003 A 
ATOM     23  C   UNL     1     -15.467   0.655  29.330  0.00  0.00    +0.111 A 
ATOM     24  C   UNL     1     -14.817   1.701  29.965  0.00  0.00    +0.020 A 
ENDBRANCH  13  15
ENDBRANCH   4  13
TORSDOF 4
ENDMDL
MODEL 4
REMARK VINA RESULT:      -6.0     32.708     36.930
REMARK  Name = 75537069
REMARK  4 active torsions:
REMARK  status: ('A' for Active; 'I' for Inactive)
REMARK    1  A    between atoms: N_3  and  C_12
REMARK    2  A    between atoms: N_4  and  C_13
REMARK    3  A    between atoms: C_12  and  C_14
REMARK    4  A    between atoms: C_13  and  C_15
REMARK                            x       y       z     vdW  Elec       q    Type
REMARK                         _______ _______ _______ _____ _____    ______ ____
ROOT
ATOM      1  O   UNL     1      16.141   8.433   2.645  0.00  0.00    -0.252 OA
ATOM      2  N   UNL     1      14.611   7.562   4.202  0.00  0.00    -0.278 N 
ATOM      3  N   UNL     1      12.135   6.905   5.362  0.00  0.00    -0.295 NA
ATOM      4  N   UNL     1      16.372   8.721   4.975  0.00  0.00    -0.278 N 
ATOM      6  C   UNL     1      14.520   7.444   5.642  0.00  0.00    +0.109 C 
ATOM      7  C   UNL     1      13.095   7.739   6.111  0.00  0.00    +0.109 C 
ATOM      8  C   UNL     1      15.579   8.418   6.153  0.00  0.00    +0.133 C 
ATOM      9  C   UNL     1      13.625   6.902   3.372  0.00  0.00    +0.125 C 
ATOM     10  C   UNL     1      12.219   7.176   3.912  0.00  0.00    +0.104 C 
ATOM     11  C   UNL     1      15.758   8.257   3.794  0.00  0.00    +0.306 C 
ENDROOT
BRANCH   3  12
ATOM     12  C   UNL     1      10.774   7.135   5.845  0.00  0.00    +0.119 C 
BRANCH  12  14
ATOM     14  C   UNL     1      10.344   6.084   6.833  0.00  0.00    -0.033 A 
ATOM     16  C   UNL     1      10.253   6.396   8.189  0.00  0.00    +0.005 A 
ATOM     17  C   UNL     1      10.036   4.797   6.391  0.00  0.00    +0.005 A 
ATOM     19  C   UNL     1       9.856   5.421   9.105  0.00  0.00    +0.000 A 
ATOM     20  C   UNL     1       9.637   3.822   7.306  0.00  0.00    +0.000 A 
ATOM     22  C   UNL     1       9.547   4.134   8.663  0.00  0.00    +0.000 A 
ENDBRANCH  12  14
ENDBRANCH   3  12
BRANCH   4  13
ATOM     13  C   UNL     1      17.565   9.536   5.043  0.00  0.00    +0.164 C 
BRANCH  13  15
ATOM      5  N   UNL     1      19.213   7.949   4.215  0.00  0.00    -0.258 NA
ATOM     15  C   UNL     1      18.802   8.704   5.258  0.00  0.00    +0.059 A 
ATOM     18  C   UNL     1      19.444   8.750   6.484  0.00  0.00    +0.025 A 
ATOM     21  C   UNL     1      20.584   7.970   6.650  0.00  0.00    +0.003 A 
ATOM     23  C   UNL     1      20.324   7.204   4.414  0.00  0.00    +0.111 A 
ATOM     24  C   UNL     1      21.039   7.180   5.600  0.00  0.00    +0.020 A 
ENDBRANCH  13  15
ENDBRANCH   4  13
TORSDOF 4
ENDMDL
MODEL 5
REMARK VINA RESULT:      -5.9     32.099     36.762
REMARK  Name = 75537069
REMARK  4 active torsions:
REMARK  status: ('A' for Active; 'I' for Inactive)
REMARK    1  A    between atoms: N_3  and  C_12
REMARK    2  A    between atoms: N_4  and  C_13
REMARK    3  A    between atoms: C_12  and  C_14
REMARK    4  A    between atoms: C_13  and  C_15
REMARK                            x       y       z     vdW  Elec       q    Type
REMARK                         _______ _______ _______ _____ _____    ______ ____
ROOT
ATOM      1  O   UNL     1      11.672  10.457   6.725  0.00  0.00    -0.252 OA
ATOM      2  N   UNL     1      13.692   9.291   6.438  0.00  0.00    -0.278 N 
ATOM      3  N   UNL     1      16.269   8.704   5.478  0.00  0.00    -0.295 NA
ATOM      4  N   UNL     1      11.776   8.121   6.412  0.00  0.00    -0.278 N 
ATOM      6  C   UNL     1      14.112   7.908   6.356  0.00  0.00    +0.109 C 
ATOM      7  C   UNL     1      15.172   7.737   5.268  0.00  0.00    +0.109 C 
ATOM      8  C   UNL     1      12.810   7.149   6.109  0.00  0.00    +0.133 C 
ATOM      9  C   UNL     1      14.695  10.335   6.497  0.00  0.00    +0.125 C 
ATOM     10  C   UNL     1      15.766  10.092   5.432  0.00  0.00    +0.104 C 
ATOM     11  C   UNL     1      12.301   9.421   6.551  0.00  0.00    +0.306 C 
ENDROOT
BRANCH   3  12
ATOM     12  C   UNL     1      17.318   8.508   4.478  0.00  0.00    +0.119 C 
BRANCH  12  14
ATOM     14  C   UNL     1      18.662   8.273   5.113  0.00  0.00    -0.033 A 
ATOM     16  C   UNL     1      19.669   7.626   4.398  0.00  0.00    +0.005 A 
ATOM     17  C   UNL     1      18.900   8.703   6.419  0.00  0.00    +0.005 A 
ATOM     19  C   UNL     1      20.914   7.407   4.988  0.00  0.00    +0.000 A 
ATOM     20  C   UNL     1      20.146   8.486   7.009  0.00  0.00    +0.000 A 
ATOM     22  C   UNL     1      21.153   7.838   6.293  0.00  0.00    +0.000 A 
ENDBRANCH  12  14
ENDBRANCH   3  12
BRANCH   4  13
ATOM     13  C   UNL     1      10.372   7.773   6.410  0.00  0.00    +0.164 C 
BRANCH  13  15
ATOM      5  N   UNL     1      10.031   5.364   6.344  0.00  0.00    -0.258 NA
ATOM     15  C   UNL     1      10.117   6.468   7.119  0.00  0.00    +0.059 A 
ATOM     18  C   UNL     1       9.986   6.461   8.498  0.00  0.00    +0.025 A 
ATOM     21  C   UNL     1       9.752   5.240   9.122  0.00  0.00    +0.003 A 
ATOM     23  C   UNL     1       9.802   4.196   6.986  0.00  0.00    +0.111 A 
ATOM     24  C   UNL     1       9.658   4.082   8.359  0.00  0.00    +0.020 A 
ENDBRANCH  13  15
ENDBRANCH   4  13
TORSDOF 4
ENDMDL
MODEL 6
REMARK VINA RESULT:      -5.9     31.680     34.468
REMARK  Name = 75537069
REMARK  4 active torsions:
REMARK  status: ('A' for Active; 'I' for Inactive)
REMARK    1  A    between atoms: N_3  and  C_12
REMARK    2  A    between atoms: N_4  and  C_13
REMARK    3  A    between atoms: C_12  and  C_14
REMARK    4  A    between atoms: C_13  and  C_15
REMARK                            x       y       z     vdW  Elec       q    Type
REMARK                         _______ _______ _______ _____ _____    ______ ____
ROOT
ATOM      1  O   UNL     1      16.488   9.730  21.207  0.00  0.00    -0.252 OA
ATOM      2  N   UNL     1      17.770   7.760  21.205  0.00  0.00    -0.278 N 
ATOM      3  N   UNL     1      20.040   6.107  21.059  0.00  0.00    -0.295 NA
ATOM      4  N   UNL     1      15.846   7.778  20.047  0.00  0.00    -0.278 N 
ATOM      6  C   UNL     1      17.618   6.400  20.731  0.00  0.00    +0.109 C 
ATOM      7  C   UNL     1      18.925   5.904  20.113  0.00  0.00    +0.109 C 
ATOM      8  C   UNL     1      16.439   6.484  19.764  0.00  0.00    +0.133 C 
ATOM      9  C   UNL     1      18.916   8.104  22.023  0.00  0.00    +0.125 C 
ATOM     10  C   UNL     1      20.192   7.537  21.397  0.00  0.00    +0.104 C 
ATOM     11  C   UNL     1      16.676   8.569  20.867  0.00  0.00    +0.306 C 
ENDROOT
BRANCH   3  12
ATOM     12  C   UNL     1      21.284   5.580  20.500  0.00  0.00    +0.119 C 
BRANCH  12  14
ATOM     14  C   UNL     1      22.134   4.916  21.551  0.00  0.00    -0.033 A 
ATOM     16  C   UNL     1      23.242   5.579  22.075  0.00  0.00    +0.005 A 
ATOM     17  C   UNL     1      21.811   3.634  21.999  0.00  0.00    +0.005 A 
ATOM     19  C   UNL     1      24.030   4.963  23.048  0.00  0.00    +0.000 A 
ATOM     20  C   UNL     1      22.598   3.018  22.973  0.00  0.00    +0.000 A 
ATOM     22  C   UNL     1      23.707   3.682  23.497  0.00  0.00    +0.000 A 
ENDBRANCH  12  14
ENDBRANCH   3  12
BRANCH   4  13
ATOM     13  C   UNL     1      14.620   8.214  19.415  0.00  0.00    +0.164 C 
BRANCH  13  15
ATOM      5  N   UNL     1      13.080   9.097  21.079  0.00  0.00    -0.258 NA
ATOM     15  C   UNL     1      13.429   8.035  20.319  0.00  0.00    +0.059 A 
ATOM     18  C   UNL     1      12.762   6.821  20.329  0.00  0.00    +0.025 A 
ATOM     21  C   UNL     1      11.666   6.688  21.174  0.00  0.00    +0.003 A 
ATOM     23  C   UNL     1      12.010   8.930  21.889  0.00  0.00    +0.111 A 
ATOM     24  C   UNL     1      11.276   7.758  21.972  0.00  0.00    +0.020 A 
ENDBRANCH  13  15
ENDBRANCH   4  13
TORSDOF 4
ENDMDL
MODEL 7
REMARK VINA RESULT:      -5.9     29.824     32.900
REMARK  Name = 75537069
REMARK  4 active torsions:
REMARK  status: ('A' for Active; 'I' for Inactive)
REMARK    1  A    between atoms: N_3  and  C_12
REMARK    2  A    between atoms: N_4  and  C_13
REMARK    3  A    between atoms: C_12  and  C_14
REMARK    4  A    between atoms: C_13  and  C_15
REMARK                            x       y       z     vdW  Elec       q    Type
REMARK                         _______ _______ _______ _____ _____    ______ ____
ROOT
ATOM      1  O   UNL     1      12.973   7.509  18.623  0.00  0.00    -0.252 OA
ATOM      2  N   UNL     1      15.183   7.847  19.347  0.00  0.00    -0.278 N 
ATOM      3  N   UNL     1      17.650   7.309  20.585  0.00  0.00    -0.295 NA
ATOM      4  N   UNL     1      13.717   9.530  19.587  0.00  0.00    -0.278 N 
ATOM      6  C   UNL     1      15.977   8.953  19.840  0.00  0.00    +0.109 C 
ATOM      7  C   UNL     1      16.870   8.494  20.993  0.00  0.00    +0.109 C 
ATOM      8  C   UNL     1      14.937  10.007  20.213  0.00  0.00    +0.133 C 
ATOM      9  C   UNL     1      15.830   6.583  19.055  0.00  0.00    +0.125 C 
ATOM     10  C   UNL     1      16.758   6.194  20.208  0.00  0.00    +0.104 C 
ATOM     11  C   UNL     1      13.848   8.207  19.118  0.00  0.00    +0.306 C 
ENDROOT
BRANCH   3  12
ATOM     12  C   UNL     1      18.552   6.899  21.660  0.00  0.00    +0.119 C 
BRANCH  12  14
ATOM     14  C   UNL     1      19.955   6.676  21.161  0.00  0.00    -0.033 A 
ATOM     16  C   UNL     1      20.797   7.763  20.934  0.00  0.00    +0.005 A 
ATOM     17  C   UNL     1      20.412   5.379  20.925  0.00  0.00    +0.005 A 
ATOM     19  C   UNL     1      22.097   7.556  20.471  0.00  0.00    +0.000 A 
ATOM     20  C   UNL     1      21.712   5.171  20.462  0.00  0.00    +0.000 A 
ATOM     22  C   UNL     1      22.554   6.259  20.235  0.00  0.00    +0.000 A 
ENDBRANCH  12  14
ENDBRANCH   3  12
BRANCH   4  13
ATOM     13  C   UNL     1      12.494  10.303  19.603  0.00  0.00    +0.164 C 
BRANCH  13  15
ATOM      5  N   UNL     1      11.930  11.647  21.551  0.00  0.00    -0.258 NA
ATOM     15  C   UNL     1      11.922  10.417  20.991  0.00  0.00    +0.059 A 
ATOM     18  C   UNL     1      11.425   9.284  21.614  0.00  0.00    +0.025 A 
ATOM     21  C   UNL     1      10.902   9.423  22.895  0.00  0.00    +0.003 A 
ATOM     23  C   UNL     1      11.415  11.743  22.798  0.00  0.00    +0.111 A 
ATOM     24  C   UNL     1      10.893  10.673  23.506  0.00  0.00    +0.020 A 
ENDBRANCH  13  15
ENDBRANCH   4  13
TORSDOF 4
ENDMDL
MODEL 8
REMARK VINA RESULT:      -5.8     31.521     34.456
REMARK  Name = 75537069
REMARK  4 active torsions:
REMARK  status: ('A' for Active; 'I' for Inactive)
REMARK    1  A    between atoms: N_3  and  C_12
REMARK    2  A    between atoms: N_4  and  C_13
REMARK    3  A    between atoms: C_12  and  C_14
REMARK    4  A    between atoms: C_13  and  C_15
REMARK                            x       y       z     vdW  Elec       q    Type
REMARK                         _______ _______ _______ _____ _____    ______ ____
ROOT
ATOM      1  O   UNL     1      19.205   4.965  19.833  0.00  0.00    -0.252 OA
ATOM      2  N   UNL     1      17.840   6.643  20.751  0.00  0.00    -0.278 N 
ATOM      3  N   UNL     1      15.692   8.443  20.985  0.00  0.00    -0.295 NA
ATOM      4  N   UNL     1      20.065   6.946  20.783  0.00  0.00    -0.278 N 
ATOM      6  C   UNL     1      18.029   7.868  21.499  0.00  0.00    +0.109 C 
ATOM      7  C   UNL     1      17.078   8.953  20.993  0.00  0.00    +0.109 C 
ATOM      8  C   UNL     1      19.513   8.179  21.315  0.00  0.00    +0.133 C 
ATOM      9  C   UNL     1      16.499   6.131  20.555  0.00  0.00    +0.125 C 
ATOM     10  C   UNL     1      15.569   7.261  20.107  0.00  0.00    +0.104 C 
ATOM     11  C   UNL     1      19.055   6.045  20.389  0.00  0.00    +0.306 C 
ENDROOT
BRANCH   3  12
ATOM     12  C   UNL     1      14.766   9.492  20.560  0.00  0.00    +0.119 C 
BRANCH  12  14
ATOM     14  C   UNL     1      13.329   9.065  20.707  0.00  0.00    -0.033 A 
ATOM     16  C   UNL     1      12.834   8.695  21.956  0.00  0.00    +0.005 A 
ATOM     17  C   UNL     1      12.493   9.040  19.590  0.00  0.00    +0.005 A 
ATOM     19  C   UNL     1      11.503   8.300  22.091  0.00  0.00    +0.000 A 
ATOM     20  C   UNL     1      11.162   8.646  19.724  0.00  0.00    +0.000 A 
ATOM     22  C   UNL     1      10.667   8.275  20.975  0.00  0.00    +0.000 A 
ENDBRANCH  12  14
ENDBRANCH   3  12
BRANCH   4  13
ATOM     13  C   UNL     1      21.484   6.773  20.564  0.00  0.00    +0.164 C 
BRANCH  13  15
ATOM      5  N   UNL     1      22.605   4.613  20.572  0.00  0.00    -0.258 NA
ATOM     15  C   UNL     1      22.026   5.584  21.313  0.00  0.00    +0.059 A 
ATOM     18  C   UNL     1      21.910   5.543  22.693  0.00  0.00    +0.025 A 
ATOM     21  C   UNL     1      22.422   4.432  23.354  0.00  0.00    +0.003 A 
ATOM     23  C   UNL     1      23.090   3.549  21.250  0.00  0.00    +0.111 A 
ATOM     24  C   UNL     1      23.026   3.412  22.627  0.00  0.00    +0.020 A 
ENDBRANCH  13  15
ENDBRANCH   4  13
TORSDOF 4
ENDMDL
MODEL 9
REMARK VINA RESULT:      -5.8     17.932     19.784
REMARK  Name = 75537069
REMARK  4 active torsions:
REMARK  status: ('A' for Active; 'I' for Inactive)
REMARK    1  A    between atoms: N_3  and  C_12
REMARK    2  A    between atoms: N_4  and  C_13
REMARK    3  A    between atoms: C_12  and  C_14
REMARK    4  A    between atoms: C_13  and  C_15
REMARK                            x       y       z     vdW  Elec       q    Type
REMARK                         _______ _______ _______ _____ _____    ______ ____
ROOT
ATOM      1  O   UNL     1      -4.382 -11.497  18.739  0.00  0.00    -0.252 OA
ATOM      2  N   UNL     1      -6.157 -10.317  17.748  0.00  0.00    -0.278 N 
ATOM      3  N   UNL     1      -8.789  -9.699  16.974  0.00  0.00    -0.295 NA
ATOM      4  N   UNL     1      -4.266 -10.584  16.567  0.00  0.00    -0.278 N 
ATOM      6  C   UNL     1      -6.371  -9.547  16.541  0.00  0.00    +0.109 C 
ATOM      7  C   UNL     1      -7.742  -9.862  15.945  0.00  0.00    +0.109 C 
ATOM      8  C   UNL     1      -5.183  -9.922  15.657  0.00  0.00    +0.133 C 
ATOM      9  C   UNL     1      -7.190 -10.347  18.764  0.00  0.00    +0.125 C 
ATOM     10  C   UNL     1      -8.552 -10.606  18.115  0.00  0.00    +0.104 C 
ATOM     11  C   UNL     1      -4.872 -10.875  17.806  0.00  0.00    +0.306 C 
ENDROOT
BRANCH   3  12
ATOM     12  C   UNL     1     -10.111  -9.939  16.398  0.00  0.00    +0.119 C 
BRANCH  12  14
ATOM     14  C   UNL     1     -10.894  -8.663  16.239  0.00  0.00    -0.033 A 
ATOM     16  C   UNL     1     -10.284  -7.434  16.485  0.00  0.00    +0.005 A 
ATOM     17  C   UNL     1     -12.232  -8.711  15.845  0.00  0.00    +0.005 A 
ATOM     19  C   UNL     1     -11.010  -6.252  16.338  0.00  0.00    +0.000 A 
ATOM     20  C   UNL     1     -12.959  -7.530  15.697  0.00  0.00    +0.000 A 
ATOM     22  C   UNL     1     -12.348  -6.300  15.944  0.00  0.00    +0.000 A 
ENDBRANCH  12  14
ENDBRANCH   3  12
BRANCH   4  13
ATOM     13  C   UNL     1      -2.947 -11.009  16.151  0.00  0.00    +0.164 C 
BRANCH  13  15
ATOM      5  N   UNL     1      -3.512 -12.394  14.232  0.00  0.00    -0.258 NA
ATOM     15  C   UNL     1      -2.886 -11.279  14.671  0.00  0.00    +0.059 A 
ATOM     18  C   UNL     1      -2.208 -10.394  13.849  0.00  0.00    +0.025 A 
ATOM     21  C   UNL     1      -2.171 -10.672  12.486  0.00  0.00    +0.003 A 
ATOM     23  C   UNL     1      -3.453 -12.631  12.902  0.00  0.00    +0.111 A 
ATOM     24  C   UNL     1      -2.804 -11.809  11.996  0.00  0.00    +0.020 A 
ENDBRANCH  13  15
ENDBRANCH   4  13
TORSDOF 4
ENDMDL
MODEL 10
REMARK VINA RESULT:      -5.7     32.611     36.818
REMARK  Name = 75537069
REMARK  4 active torsions:
REMARK  status: ('A' for Active; 'I' for Inactive)
REMARK    1  A    between atoms: N_3  and  C_12
REMARK    2  A    between atoms: N_4  and  C_13
REMARK    3  A    between atoms: C_12  and  C_14
REMARK    4  A    between atoms: C_13  and  C_15
REMARK                            x       y       z     vdW  Elec       q    Type
REMARK                         _______ _______ _______ _____ _____    ______ ____
ROOT
ATOM      1  O   UNL     1      15.030   6.291   2.016  0.00  0.00    -0.252 OA
ATOM      2  N   UNL     1      12.827   5.586   2.434  0.00  0.00    -0.278 N 
ATOM      3  N   UNL     1      10.457   5.092   3.864  0.00  0.00    -0.295 NA
ATOM      4  N   UNL     1      14.164   4.242   1.230  0.00  0.00    -0.278 N 
ATOM      6  C   UNL     1      11.967   4.500   2.013  0.00  0.00    +0.109 C 
ATOM      7  C   UNL     1      11.155   3.975   3.197  0.00  0.00    +0.109 C 
ATOM      8  C   UNL     1      12.933   3.490   1.398  0.00  0.00    +0.133 C 
ATOM      9  C   UNL     1      12.273   6.665   3.226  0.00  0.00    +0.125 C 
ATOM     10  C   UNL     1      11.421   6.095   4.362  0.00  0.00    +0.104 C 
ATOM     11  C   UNL     1      14.121   5.479   1.904  0.00  0.00    +0.306 C 
ENDROOT
BRANCH   3  12
ATOM     12  C   UNL     1       9.629   4.593   4.961  0.00  0.00    +0.119 C 
BRANCH  12  14
ATOM     14  C   UNL     1       9.303   5.675   5.956  0.00  0.00    -0.033 A 
ATOM     16  C   UNL     1       9.791   5.596   7.260  0.00  0.00    +0.005 A 
ATOM     17  C   UNL     1       8.512   6.758   5.572  0.00  0.00    +0.005 A 
ATOM     19  C   UNL     1       9.488   6.598   8.181  0.00  0.00    +0.000 A 
ATOM     20  C   UNL     1       8.210   7.762   6.493  0.00  0.00    +0.000 A 
ATOM     22  C   UNL     1       8.698   7.682   7.797  0.00  0.00    +0.000 A 
ENDBRANCH  12  14
ENDBRANCH   3  12
BRANCH   4  13
ATOM     13  C   UNL     1      15.322   3.680   0.569  0.00  0.00    +0.164 C 
BRANCH  13  15
ATOM      5  N   UNL     1      14.352   4.200  -1.601  0.00  0.00    -0.258 NA
ATOM     15  C   UNL     1      15.468   4.194  -0.839  0.00  0.00    +0.059 A 
ATOM     18  C   UNL     1      16.709   4.628  -1.275  0.00  0.00    +0.025 A 
ATOM     21  C   UNL     1      16.810   5.098  -2.580  0.00  0.00    +0.003 A 
ATOM     23  C   UNL     1      14.490   4.663  -2.864  0.00  0.00    +0.111 A 
ATOM     24  C   UNL     1      15.685   5.120  -3.396  0.00  0.00    +0.020 A 
ENDBRANCH  13  15
ENDBRANCH   4  13
TORSDOF 4
ENDMDL
