REMARK  Name = 38027218
REMARK  14 active torsions:
REMARK  status: ('A' for Active; 'I' for Inactive)
REMARK    1  A    between atoms: O_3  and  C_22
REMARK    2  A    between atoms: O_3  and  C_28
REMARK    3  A    between atoms: N_4  and  C_13
REMARK    4  A    between atoms: N_5  and  C_20
REMARK    5  A    between atoms: N_5  and  C_21
REMARK    6  A    between atoms: C_6  and  C_10
REMARK    7  A    between atoms: C_7  and  C_13
REMARK    8  A    between atoms: C_9  and  C_14
REMARK    9  A    between atoms: C_10  and  C_15
REMARK   10  A    between atoms: C_10  and  C_16
REMARK   11  A    between atoms: C_11  and  C_17
REMARK   12  A    between atoms: C_14  and  C_18
REMARK   13  A    between atoms: C_19  and  C_22
REMARK   14  A    between atoms: C_20  and  C_23
REMARK                            x       y       z     vdW  Elec       q    Type
REMARK                         _______ _______ _______ _____ _____    ______ ____
ROOT
ATOM      6  C   UNL     1       1.886   1.035  -1.140  0.00  0.00    +0.000 C 
ATOM      7  C   UNL     1       3.321   1.273  -0.607  0.00  0.00    +0.032 C 
ATOM      8  C   UNL     1       0.951   2.166  -0.687  0.00  0.00    +0.012 C 
ATOM      9  C   UNL     1       0.888   2.291   0.847  0.00  0.00    +0.023 C 
ATOM     11  C   UNL     1       2.268   2.263   1.472  0.00  0.00    -0.073 C 
ATOM     12  C   UNL     1       3.346   1.817   0.802  0.00  0.00    -0.022 C 
ATOM     17  C   UNL     1       2.390   2.802   2.870  0.00  0.00    +0.039 C 
ENDROOT
BRANCH   6  10
ATOM     10  C   UNL     1       1.859   0.918  -2.667  0.00  0.00    -0.013 C 
ATOM     15  C   UNL     1       0.640   0.120  -3.118  0.00  0.00    +0.007 C 
ATOM     16  C   UNL     1       1.864   2.304  -3.306  0.00  0.00    +0.007 C 
ENDBRANCH   6  10
BRANCH   7  13
ATOM     13  C   UNL     1       4.157  -0.010  -0.673  0.00  0.00    +0.112 C 
BRANCH  13   4
ATOM      2  O   UNL     1       3.175  -2.640  -1.370  0.00  0.00    -0.273 OA
ATOM      4  N   UNL     1       3.636  -1.001   0.216  0.00  0.00    -0.313 N 
ATOM     19  C   UNL     1       3.182  -2.250  -0.206  0.00  0.00    +0.239 C 
ATOM     30  H   UNL     1       3.649  -0.804   1.213  0.00  0.00    +0.149 HD
BRANCH  19  22
ATOM     22  C   UNL     1       2.687  -3.099   0.945  0.00  0.00    +0.255 C 
BRANCH  22   3
ATOM      3  O   UNL     1       2.248  -4.359   0.483  0.00  0.00    -0.374 OA
ATOM     28  C   UNL     1       1.776  -5.179   1.548  0.00  0.00    +0.194 C 
ENDBRANCH  22   3
ENDBRANCH  19  22
ENDBRANCH  13   4
ENDBRANCH   7  13
BRANCH   9  14
ATOM     14  C   UNL     1      -0.011   1.207   1.453  0.00  0.00    +0.103 C 
BRANCH  14  18
ATOM      1  O   UNL     1      -1.849   2.490   0.605  0.00  0.00    -0.276 OA
ATOM      5  N   UNL     1      -2.371   0.540   1.746  0.00  0.00    -0.300 N 
ATOM     18  C   UNL     1      -1.484   1.486   1.221  0.00  0.00    +0.216 C 
ATOM     21  C   UNL     1      -1.917  -0.640   2.470  0.00  0.00    +0.132 C 
BRANCH   5  20
ATOM     20  C   UNL     1      -3.821   0.664   1.607  0.00  0.00    +0.142 C 
BRANCH  20  23
ATOM     23  C   UNL     1      -4.330  -0.043   0.384  0.00  0.00    -0.030 A 
ATOM     24  C   UNL     1      -4.419   0.639  -0.829  0.00  0.00    +0.005 A 
ATOM     25  C   UNL     1      -4.715  -1.381   0.462  0.00  0.00    +0.005 A 
ATOM     26  C   UNL     1      -4.892  -0.018  -1.966  0.00  0.00    +0.000 A 
ATOM     27  C   UNL     1      -5.189  -2.038  -0.674  0.00  0.00    +0.000 A 
ATOM     29  C   UNL     1      -5.277  -1.356  -1.888  0.00  0.00    +0.000 A 
ENDBRANCH  20  23
ENDBRANCH   5  20
ENDBRANCH  14  18
ENDBRANCH   9  14
TORSDOF 9
