REMARK  Name = 7144092
REMARK  4 active torsions:
REMARK  status: ('A' for Active; 'I' for Inactive)
REMARK    1  A    between atoms: O_3  and  C_26
REMARK    2  A    between atoms: O_3  and  C_30
REMARK    3  A    between atoms: C_13  and  C_18
REMARK    4  A    between atoms: C_15  and  C_19
REMARK                            x       y       z     vdW  Elec       q    Type
REMARK                         _______ _______ _______ _____ _____    ______ ____
ROOT
ATOM      1  O   UNL     1      -2.958   2.582   2.300  0.00  0.00    -0.268 OA
ATOM      2  O   UNL     1      -3.923  -1.474  -0.593  0.00  0.00    -0.270 OA
ATOM      4  N   UNL     1      -2.120  -0.369  -1.591  0.00  0.00    -0.297 N 
ATOM      5  N   UNL     1      -1.615   1.955   0.486  0.00  0.00    -0.311 N 
ATOM      6  C   UNL     1      -2.482   2.063  -1.926  0.00  0.00    +0.027 C 
ATOM      7  C   UNL     1      -0.215   1.224  -1.469  0.00  0.00    +0.054 C 
ATOM      8  C   UNL     1      -1.015   2.233  -2.291  0.00  0.00    +0.018 C 
ATOM      9  C   UNL     1      -2.957   0.635  -2.244  0.00  0.00    +0.113 C 
ATOM     10  C   UNL     1      -2.657   2.409  -0.446  0.00  0.00    +0.130 C 
ATOM     11  C   UNL     1      -0.676  -0.208  -1.819  0.00  0.00    +0.117 C 
ATOM     12  C   UNL     1      -0.371   1.471   0.034  0.00  0.00    +0.034 A 
ATOM     13  C   UNL     1       0.620   1.210   0.926  0.00  0.00    +0.002 A 
ATOM     14  C   UNL     1      -1.896   2.150   1.850  0.00  0.00    +0.252 A 
ATOM     15  C   UNL     1      -2.715  -1.341  -0.782  0.00  0.00    +0.247 C 
ATOM     16  C   UNL     1       0.364   1.395   2.342  0.00  0.00    +0.015 A 
ATOM     17  C   UNL     1      -0.812   1.820   2.803  0.00  0.00    +0.071 A 
ENDROOT
BRANCH  13  18
ATOM     18  C   UNL     1       1.949   0.724   0.494  0.00  0.00    -0.016 A 
ATOM     20  C   UNL     1       2.178  -0.643   0.370  0.00  0.00    +0.012 A 
ATOM     21  C   UNL     1       2.961   1.638   0.215  0.00  0.00    +0.012 A 
ATOM     24  C   UNL     1       3.431  -1.101  -0.036  0.00  0.00    +0.046 A 
ATOM     25  C   UNL     1       4.214   1.180  -0.192  0.00  0.00    +0.046 A 
ATOM     26  C   UNL     1       4.449  -0.189  -0.317  0.00  0.00    +0.120 A 
BRANCH  26   3
ATOM      3  O   UNL     1       5.672  -0.636  -0.714  0.00  0.00    -0.495 OA
ATOM     30  C   UNL     1       6.667   0.350  -0.985  0.00  0.00    +0.277 C 
ENDBRANCH  26   3
ENDBRANCH  13  18
BRANCH  15  19
ATOM     19  C   UNL     1      -1.842  -2.285  -0.074  0.00  0.00    +0.037 A 
ATOM     22  C   UNL     1      -1.381  -1.977   1.204  0.00  0.00    +0.013 A 
ATOM     23  C   UNL     1      -1.480  -3.484  -0.682  0.00  0.00    +0.013 A 
ATOM     27  C   UNL     1      -0.551  -2.874   1.877  0.00  0.00    +0.001 A 
ATOM     28  C   UNL     1      -0.650  -4.381  -0.009  0.00  0.00    +0.001 A 
ATOM     29  C   UNL     1      -0.186  -4.076   1.270  0.00  0.00    +0.000 A 
ENDBRANCH  15  19
TORSDOF 3
