MODEL 1
REMARK VINA RESULT:      -7.2      0.000      0.000
REMARK  Name = 11912970
REMARK  5 active torsions:
REMARK  status: ('A' for Active; 'I' for Inactive)
REMARK    1  A    between atoms: N_5  and  C_11
REMARK    2  A    between atoms: N_6  and  C_12
REMARK    3  A    between atoms: C_15  and  C_17
REMARK    4  A    between atoms: C_20  and  C_26
REMARK    5  A    between atoms: C_25  and  C_27
REMARK                            x       y       z     vdW  Elec       q    Type
REMARK                         _______ _______ _______ _____ _____    ______ ____
ROOT
ATOM      1  O   UNL     1     -14.022   6.766  32.107  0.00  0.00    -0.370 OA
ATOM      2  O   UNL     1     -15.990   5.756  34.307  0.00  0.00    -0.370 OA
ATOM      9  C   UNL     1     -14.566   5.944  34.272  0.00  0.00    +0.171 C 
ATOM     10  C   UNL     1     -14.095   5.558  32.883  0.00  0.00    +0.171 C 
ATOM     11  C   UNL     1     -14.228   7.413  34.380  0.00  0.00    +0.130 C 
ATOM     12  C   UNL     1     -15.189   4.661  32.357  0.00  0.00    +0.130 C 
ATOM     13  C   UNL     1     -14.356   7.884  32.943  0.00  0.00    +0.185 C 
ATOM     14  C   UNL     1     -16.424   5.196  33.058  0.00  0.00    +0.185 C 
ENDROOT
BRANCH  12   6
ATOM      6  N   UNL     1     -14.941   3.292  32.754  0.00  0.00    -0.306 N 
ATOM      7  N   UNL     1     -15.473   2.461  30.625  0.00  0.00    -0.211 NA
ATOM      8  N   UNL     1     -14.815   0.976  32.404  0.00  0.00    -0.223 NA
ATOM     16  C   UNL     1     -15.081   2.212  31.903  0.00  0.00    +0.216 A 
ATOM     20  C   UNL     1     -15.598   1.385  29.822  0.00  0.00    +0.111 A 
ATOM     21  C   UNL     1     -14.959  -0.055  31.547  0.00  0.00    +0.116 A 
ATOM     22  C   UNL     1     -15.352   0.090  30.232  0.00  0.00    +0.051 A 
ATOM     32  H   UNL     1     -14.599   3.099  33.688  0.00  0.00    +0.149 HD
BRANCH  20  26
ATOM      4  O   UNL     1     -16.452   0.615  27.758  0.00  0.00    -0.461 OA
ATOM     26  C   UNL     1     -16.015   1.681  28.477  0.00  0.00    +0.153 A 
ATOM     28  C   UNL     1     -16.075   2.831  27.729  0.00  0.00    +0.051 A 
ATOM     29  C   UNL     1     -16.582   2.449  26.464  0.00  0.00    +0.042 A 
ATOM     30  C   UNL     1     -16.794   1.092  26.533  0.00  0.00    +0.196 A 
ENDBRANCH  20  26
ENDBRANCH  12   6
BRANCH  11   5
ATOM      3  O   UNL     1     -13.248   9.678  35.851  0.00  0.00    -0.270 OA
ATOM      5  N   UNL     1     -12.885   7.604  34.875  0.00  0.00    -0.304 N 
ATOM     15  C   UNL     1     -12.504   8.737  35.579  0.00  0.00    +0.244 C 
ATOM     31  H   UNL     1     -12.191   6.923  34.589  0.00  0.00    +0.149 HD
BRANCH  15  17
ATOM     17  C   UNL     1     -11.080   8.795  35.998  0.00  0.00    +0.037 A 
ATOM     18  C   UNL     1     -10.658   7.990  37.035  0.00  0.00    +0.013 A 
ATOM     19  C   UNL     1     -10.225   9.651  35.335  0.00  0.00    +0.013 A 
ATOM     23  C   UNL     1      -9.321   8.044  37.428  0.00  0.00    +0.004 A 
ATOM     24  C   UNL     1      -8.887   9.704  35.729  0.00  0.00    +0.004 A 
ATOM     25  C   UNL     1      -8.436   8.901  36.774  0.00  0.00    -0.050 A 
ATOM     27  C   UNL     1      -7.006   8.959  37.195  0.00  0.00    +0.044 C 
ENDBRANCH  15  17
ENDBRANCH  11   5
TORSDOF 4
ENDMDL
MODEL 2
REMARK VINA RESULT:      -7.1      6.359     10.559
REMARK  Name = 11912970
REMARK  5 active torsions:
REMARK  status: ('A' for Active; 'I' for Inactive)
REMARK    1  A    between atoms: N_5  and  C_11
REMARK    2  A    between atoms: N_6  and  C_12
REMARK    3  A    between atoms: C_15  and  C_17
REMARK    4  A    between atoms: C_20  and  C_26
REMARK    5  A    between atoms: C_25  and  C_27
REMARK                            x       y       z     vdW  Elec       q    Type
REMARK                         _______ _______ _______ _____ _____    ______ ____
ROOT
ATOM      1  O   UNL     1     -17.246   4.691  25.480  0.00  0.00    -0.370 OA
ATOM      2  O   UNL     1     -16.517   2.183  23.773  0.00  0.00    -0.370 OA
ATOM      9  C   UNL     1     -16.074   2.666  25.051  0.00  0.00    +0.171 C 
ATOM     10  C   UNL     1     -16.006   4.178  24.964  0.00  0.00    +0.171 C 
ATOM     11  C   UNL     1     -17.127   2.405  26.104  0.00  0.00    +0.130 C 
ATOM     12  C   UNL     1     -15.898   4.459  23.484  0.00  0.00    +0.130 C 
ATOM     13  C   UNL     1     -18.052   3.596  25.942  0.00  0.00    +0.185 C 
ATOM     14  C   UNL     1     -16.647   3.291  22.869  0.00  0.00    +0.185 C 
ENDROOT
BRANCH  12   6
ATOM      6  N   UNL     1     -14.510   4.434  23.076  0.00  0.00    -0.306 N 
ATOM      7  N   UNL     1     -14.696   6.475  21.932  0.00  0.00    -0.211 NA
ATOM      8  N   UNL     1     -12.605   5.280  22.001  0.00  0.00    -0.223 NA
ATOM     16  C   UNL     1     -13.920   5.426  22.314  0.00  0.00    +0.216 A 
ATOM     20  C   UNL     1     -14.088   7.423  21.191  0.00  0.00    +0.111 A 
ATOM     21  C   UNL     1     -12.060   6.266  21.257  0.00  0.00    +0.116 A 
ATOM     22  C   UNL     1     -12.760   7.371  20.819  0.00  0.00    +0.051 A 
ATOM     32  H   UNL     1     -13.910   3.684  23.398  0.00  0.00    +0.149 HD
BRANCH  20  26
ATOM      4  O   UNL     1     -14.307   9.539  20.163  0.00  0.00    -0.461 OA
ATOM     26  C   UNL     1     -14.935   8.520  20.802  0.00  0.00    +0.153 A 
ATOM     28  C   UNL     1     -16.277   8.780  20.934  0.00  0.00    +0.051 A 
ATOM     29  C   UNL     1     -16.490  10.045  20.336  0.00  0.00    +0.042 A 
ATOM     30  C   UNL     1     -15.260  10.465  19.883  0.00  0.00    +0.196 A 
ENDBRANCH  20  26
ENDBRANCH  12   6
BRANCH  11   5
ATOM      3  O   UNL     1     -17.455   0.336  28.069  0.00  0.00    -0.270 OA
ATOM      5  N   UNL     1     -16.546   2.371  27.425  0.00  0.00    -0.304 N 
ATOM     15  C   UNL     1     -16.763   1.323  28.309  0.00  0.00    +0.244 C 
ATOM     31  H   UNL     1     -16.058   3.205  27.733  0.00  0.00    +0.149 HD
BRANCH  15  17
ATOM     17  C   UNL     1     -16.116   1.450  29.640  0.00  0.00    +0.037 A 
ATOM     18  C   UNL     1     -16.080   2.687  30.249  0.00  0.00    +0.013 A 
ATOM     19  C   UNL     1     -15.571   0.325  30.226  0.00  0.00    +0.013 A 
ATOM     23  C   UNL     1     -15.473   2.805  31.499  0.00  0.00    +0.004 A 
ATOM     24  C   UNL     1     -14.964   0.444  31.476  0.00  0.00    +0.004 A 
ATOM     25  C   UNL     1     -14.916   1.684  32.112  0.00  0.00    -0.050 A 
ATOM     27  C   UNL     1     -14.266   1.811  33.449  0.00  0.00    +0.044 C 
ENDBRANCH  15  17
ENDBRANCH  11   5
TORSDOF 4
ENDMDL
MODEL 3
REMARK VINA RESULT:      -7.1     24.017     28.323
REMARK  Name = 11912970
REMARK  5 active torsions:
REMARK  status: ('A' for Active; 'I' for Inactive)
REMARK    1  A    between atoms: N_5  and  C_11
REMARK    2  A    between atoms: N_6  and  C_12
REMARK    3  A    between atoms: C_15  and  C_17
REMARK    4  A    between atoms: C_20  and  C_26
REMARK    5  A    between atoms: C_25  and  C_27
REMARK                            x       y       z     vdW  Elec       q    Type
REMARK                         _______ _______ _______ _____ _____    ______ ____
ROOT
ATOM      1  O   UNL     1      -5.280 -11.665  10.883  0.00  0.00    -0.370 OA
ATOM      2  O   UNL     1      -3.618  -9.074  10.378  0.00  0.00    -0.370 OA
ATOM      9  C   UNL     1      -4.444  -9.517  11.467  0.00  0.00    +0.171 C 
ATOM     10  C   UNL     1      -5.616 -10.268  10.867  0.00  0.00    +0.171 C 
ATOM     11  C   UNL     1      -3.719 -10.561  12.285  0.00  0.00    +0.130 C 
ATOM     12  C   UNL     1      -5.692  -9.762   9.446  0.00  0.00    +0.130 C 
ATOM     13  C   UNL     1      -4.001 -11.835  11.512  0.00  0.00    +0.185 C 
ATOM     14  C   UNL     1      -4.245  -9.426   9.136  0.00  0.00    +0.185 C 
ENDROOT
BRANCH  12   6
ATOM      6  N   UNL     1      -6.507  -8.568   9.389  0.00  0.00    -0.306 N 
ATOM      7  N   UNL     1      -7.117  -8.959   7.157  0.00  0.00    -0.211 NA
ATOM      8  N   UNL     1      -7.937  -7.029   8.345  0.00  0.00    -0.223 NA
ATOM     16  C   UNL     1      -7.208  -8.174   8.264  0.00  0.00    +0.216 A 
ATOM     20  C   UNL     1      -7.814  -8.545   6.079  0.00  0.00    +0.111 A 
ATOM     21  C   UNL     1      -8.609  -6.675   7.230  0.00  0.00    +0.116 A 
ATOM     22  C   UNL     1      -8.584  -7.401   6.056  0.00  0.00    +0.051 A 
ATOM     32  H   UNL     1      -6.623  -8.004  10.223  0.00  0.00    +0.149 HD
BRANCH  20  26
ATOM      4  O   UNL     1      -8.326  -8.946   3.807  0.00  0.00    -0.461 OA
ATOM     26  C   UNL     1      -7.698  -9.396   4.923  0.00  0.00    +0.153 A 
ATOM     28  C   UNL     1      -7.079 -10.598   4.684  0.00  0.00    +0.051 A 
ATOM     29  C   UNL     1      -7.343 -10.909   3.328  0.00  0.00    +0.042 A 
ATOM     30  C   UNL     1      -8.105  -9.874   2.840  0.00  0.00    +0.196 A 
ENDBRANCH  20  26
ENDBRANCH  12   6
BRANCH  11   5
ATOM      3  O   UNL     1      -2.216 -10.458  14.731  0.00  0.00    -0.270 OA
ATOM      5  N   UNL     1      -4.248 -10.633  13.626  0.00  0.00    -0.304 N 
ATOM     15  C   UNL     1      -3.440 -10.575  14.751  0.00  0.00    +0.244 C 
ATOM     31  H   UNL     1      -5.236 -10.845  13.717  0.00  0.00    +0.149 HD
BRANCH  15  17
ATOM     17  C   UNL     1      -4.135 -10.690  16.059  0.00  0.00    +0.037 A 
ATOM     18  C   UNL     1      -5.393 -10.139  16.195  0.00  0.00    +0.013 A 
ATOM     19  C   UNL     1      -3.502 -11.344  17.096  0.00  0.00    +0.013 A 
ATOM     23  C   UNL     1      -6.046 -10.247  17.423  0.00  0.00    +0.004 A 
ATOM     24  C   UNL     1      -4.156 -11.452  18.323  0.00  0.00    +0.004 A 
ATOM     25  C   UNL     1      -5.428 -10.904  18.486  0.00  0.00    -0.050 A 
ATOM     27  C   UNL     1      -6.127 -11.019  19.800  0.00  0.00    +0.044 C 
ENDBRANCH  15  17
ENDBRANCH  11   5
TORSDOF 4
ENDMDL
MODEL 4
REMARK VINA RESULT:      -7.1     23.917     29.957
REMARK  Name = 11912970
REMARK  5 active torsions:
REMARK  status: ('A' for Active; 'I' for Inactive)
REMARK    1  A    between atoms: N_5  and  C_11
REMARK    2  A    between atoms: N_6  and  C_12
REMARK    3  A    between atoms: C_15  and  C_17
REMARK    4  A    between atoms: C_20  and  C_26
REMARK    5  A    between atoms: C_25  and  C_27
REMARK                            x       y       z     vdW  Elec       q    Type
REMARK                         _______ _______ _______ _____ _____    ______ ____
ROOT
ATOM      1  O   UNL     1      -6.775 -11.604  10.770  0.00  0.00    -0.370 OA
ATOM      2  O   UNL     1      -5.753  -8.662  10.944  0.00  0.00    -0.370 OA
ATOM      9  C   UNL     1      -5.465  -9.752  10.054  0.00  0.00    +0.171 C 
ATOM     10  C   UNL     1      -5.465 -11.023  10.882  0.00  0.00    +0.171 C 
ATOM     11  C   UNL     1      -6.605  -9.949   9.080  0.00  0.00    +0.130 C 
ATOM     12  C   UNL     1      -5.222 -10.544  12.293  0.00  0.00    +0.130 C 
ATOM     13  C   UNL     1      -7.568 -10.811   9.875  0.00  0.00    +0.185 C 
ATOM     14  C   UNL     1      -5.845  -9.160  12.287  0.00  0.00    +0.185 C 
ENDROOT
BRANCH  12   6
ATOM      6  N   UNL     1      -3.801 -10.452  12.547  0.00  0.00    -0.306 N 
ATOM      7  N   UNL     1      -4.088 -10.678  14.865  0.00  0.00    -0.211 NA
ATOM      8  N   UNL     1      -1.891 -10.419  13.909  0.00  0.00    -0.223 NA
ATOM     16  C   UNL     1      -3.244 -10.518  13.811  0.00  0.00    +0.216 A 
ATOM     20  C   UNL     1      -3.511 -10.739  16.082  0.00  0.00    +0.111 A 
ATOM     21  C   UNL     1      -1.381 -10.488  15.156  0.00  0.00    +0.116 A 
ATOM     22  C   UNL     1      -2.150 -10.649  16.291  0.00  0.00    +0.051 A 
ATOM     32  H   UNL     1      -3.159 -10.384  11.766  0.00  0.00    +0.149 HD
BRANCH  20  26
ATOM      4  O   UNL     1      -5.644 -10.326  17.009  0.00  0.00    -0.461 OA
ATOM     26  C   UNL     1      -4.429 -10.908  17.177  0.00  0.00    +0.153 A 
ATOM     28  C   UNL     1      -4.356 -11.542  18.393  0.00  0.00    +0.051 A 
ATOM     29  C   UNL     1      -5.611 -11.338  19.016  0.00  0.00    +0.042 A 
ATOM     30  C   UNL     1      -6.358 -10.592  18.134  0.00  0.00    +0.196 A 
ENDBRANCH  20  26
ENDBRANCH  12   6
BRANCH  11   5
ATOM      3  O   UNL     1      -6.924  -9.043   6.373  0.00  0.00    -0.270 OA
ATOM      5  N   UNL     1      -6.159 -10.626   7.886  0.00  0.00    -0.304 N 
ATOM     15  C   UNL     1      -6.360 -10.107   6.615  0.00  0.00    +0.244 C 
ATOM     31  H   UNL     1      -5.789 -11.563   8.002  0.00  0.00    +0.149 HD
BRANCH  15  17
ATOM     17  C   UNL     1      -5.866 -10.939   5.487  0.00  0.00    +0.037 A 
ATOM     18  C   UNL     1      -4.623 -11.529   5.589  0.00  0.00    +0.013 A 
ATOM     19  C   UNL     1      -6.665 -11.094   4.374  0.00  0.00    +0.013 A 
ATOM     23  C   UNL     1      -4.159 -12.309   4.531  0.00  0.00    +0.004 A 
ATOM     24  C   UNL     1      -6.201 -11.876   3.315  0.00  0.00    +0.004 A 
ATOM     25  C   UNL     1      -4.948 -12.483   3.394  0.00  0.00    -0.050 A 
ATOM     27  C   UNL     1      -4.451 -13.317   2.261  0.00  0.00    +0.044 C 
ENDBRANCH  15  17
ENDBRANCH  11   5
TORSDOF 4
ENDMDL
MODEL 5
REMARK VINA RESULT:      -6.8     16.190     19.965
REMARK  Name = 11912970
REMARK  5 active torsions:
REMARK  status: ('A' for Active; 'I' for Inactive)
REMARK    1  A    between atoms: N_5  and  C_11
REMARK    2  A    between atoms: N_6  and  C_12
REMARK    3  A    between atoms: C_15  and  C_17
REMARK    4  A    between atoms: C_20  and  C_26
REMARK    5  A    between atoms: C_25  and  C_27
REMARK                            x       y       z     vdW  Elec       q    Type
REMARK                         _______ _______ _______ _____ _____    ______ ____
ROOT
ATOM      1  O   UNL     1      -6.420 -10.822  36.595  0.00  0.00    -0.370 OA
ATOM      2  O   UNL     1      -6.887 -12.324  39.290  0.00  0.00    -0.370 OA
ATOM      9  C   UNL     1      -7.775 -11.775  38.303  0.00  0.00    +0.171 C 
ATOM     10  C   UNL     1      -7.145 -10.494  37.792  0.00  0.00    +0.171 C 
ATOM     11  C   UNL     1      -7.825 -12.670  37.085  0.00  0.00    +0.130 C 
ATOM     12  C   UNL     1      -6.190 -10.089  38.889  0.00  0.00    +0.130 C 
ATOM     13  C   UNL     1      -6.613 -12.212  36.294  0.00  0.00    +0.185 C 
ATOM     14  C   UNL     1      -5.787 -11.423  39.489  0.00  0.00    +0.185 C 
ENDROOT
BRANCH  12   6
ATOM      6  N   UNL     1      -6.879  -9.285  39.875  0.00  0.00    -0.306 N 
ATOM      7  N   UNL     1      -5.101  -7.762  40.038  0.00  0.00    -0.211 NA
ATOM      8  N   UNL     1      -7.100  -7.477  41.353  0.00  0.00    -0.223 NA
ATOM     16  C   UNL     1      -6.344  -8.141  40.438  0.00  0.00    +0.216 A 
ATOM     20  C   UNL     1      -4.611  -6.642  40.608  0.00  0.00    +0.111 A 
ATOM     21  C   UNL     1      -6.549  -6.365  41.883  0.00  0.00    +0.116 A 
ATOM     22  C   UNL     1      -5.296  -5.895  41.545  0.00  0.00    +0.051 A 
ATOM     32  H   UNL     1      -7.826  -9.529  40.142  0.00  0.00    +0.149 HD
BRANCH  20  26
ATOM      4  O   UNL     1      -3.247  -5.624  38.970  0.00  0.00    -0.461 OA
ATOM     26  C   UNL     1      -3.294  -6.267  40.164  0.00  0.00    +0.153 A 
ATOM     28  C   UNL     1      -2.034  -6.415  40.689  0.00  0.00    +0.051 A 
ATOM     29  C   UNL     1      -1.150  -5.824  39.755  0.00  0.00    +0.042 A 
ATOM     30  C   UNL     1      -1.937  -5.358  38.727  0.00  0.00    +0.196 A 
ENDBRANCH  20  26
ENDBRANCH  12   6
BRANCH  11   5
ATOM      3  O   UNL     1     -10.265 -14.162  37.348  0.00  0.00    -0.270 OA
ATOM      5  N   UNL     1      -9.043 -12.468  36.339  0.00  0.00    -0.304 N 
ATOM     15  C   UNL     1     -10.177 -13.243  36.537  0.00  0.00    +0.244 C 
ATOM     31  H   UNL     1      -9.007 -11.804  35.573  0.00  0.00    +0.149 HD
BRANCH  15  17
ATOM     17  C   UNL     1     -11.342 -12.927  35.671  0.00  0.00    +0.037 A 
ATOM     18  C   UNL     1     -11.648 -13.778  34.629  0.00  0.00    +0.013 A 
ATOM     19  C   UNL     1     -12.081 -11.793  35.936  0.00  0.00    +0.013 A 
ATOM     23  C   UNL     1     -12.742 -13.481  33.816  0.00  0.00    +0.004 A 
ATOM     24  C   UNL     1     -13.175 -11.496  35.123  0.00  0.00    +0.004 A 
ATOM     25  C   UNL     1     -13.505 -12.340  34.064  0.00  0.00    -0.050 A 
ATOM     27  C   UNL     1     -14.675 -12.022  33.194  0.00  0.00    +0.044 C 
ENDBRANCH  15  17
ENDBRANCH  11   5
TORSDOF 4
ENDMDL
MODEL 6
REMARK VINA RESULT:      -6.8     21.239     24.995
REMARK  Name = 11912970
REMARK  5 active torsions:
REMARK  status: ('A' for Active; 'I' for Inactive)
REMARK    1  A    between atoms: N_5  and  C_11
REMARK    2  A    between atoms: N_6  and  C_12
REMARK    3  A    between atoms: C_15  and  C_17
REMARK    4  A    between atoms: C_20  and  C_26
REMARK    5  A    between atoms: C_25  and  C_27
REMARK                            x       y       z     vdW  Elec       q    Type
REMARK                         _______ _______ _______ _____ _____    ______ ____
ROOT
ATOM      1  O   UNL     1      -7.694 -12.199  17.141  0.00  0.00    -0.370 OA
ATOM      2  O   UNL     1      -6.347 -10.912  19.644  0.00  0.00    -0.370 OA
ATOM      9  C   UNL     1      -7.035 -10.366  18.506  0.00  0.00    +0.171 C 
ATOM     10  C   UNL     1      -6.662 -11.212  17.305  0.00  0.00    +0.171 C 
ATOM     11  C   UNL     1      -8.526 -10.567  18.649  0.00  0.00    +0.130 C 
ATOM     12  C   UNL     1      -5.364 -11.872  17.705  0.00  0.00    +0.130 C 
ATOM     13  C   UNL     1      -8.716 -11.979  18.125  0.00  0.00    +0.185 C 
ATOM     14  C   UNL     1      -5.503 -11.989  19.212  0.00  0.00    +0.185 C 
ENDROOT
BRANCH  12   6
ATOM      6  N   UNL     1      -4.248 -11.014  17.371  0.00  0.00    -0.306 N 
ATOM      7  N   UNL     1      -3.656 -12.324  15.515  0.00  0.00    -0.211 NA
ATOM      8  N   UNL     1      -2.398 -10.351  16.091  0.00  0.00    -0.223 NA
ATOM     16  C   UNL     1      -3.410 -11.236  16.294  0.00  0.00    +0.216 A 
ATOM     20  C   UNL     1      -2.819 -12.509  14.474  0.00  0.00    +0.111 A 
ATOM     21  C   UNL     1      -1.599 -10.596  15.031  0.00  0.00    +0.116 A 
ATOM     22  C   UNL     1      -1.764 -11.670  14.180  0.00  0.00    +0.051 A 
ATOM     32  H   UNL     1      -4.087 -10.173  17.913  0.00  0.00    +0.149 HD
BRANCH  20  26
ATOM      4  O   UNL     1      -2.255 -13.876  12.631  0.00  0.00    -0.461 OA
ATOM     26  C   UNL     1      -3.105 -13.668  13.670  0.00  0.00    +0.153 A 
ATOM     28  C   UNL     1      -4.072 -14.642  13.712  0.00  0.00    +0.051 A 
ATOM     29  C   UNL     1      -3.799 -15.509  12.627  0.00  0.00    +0.042 A 
ATOM     30  C   UNL     1      -2.686 -14.999  12.001  0.00  0.00    +0.196 A 
ENDBRANCH  20  26
ENDBRANCH  12   6
BRANCH  11   5
ATOM      3  O   UNL     1     -11.244  -9.728  19.051  0.00  0.00    -0.270 OA
ATOM      5  N   UNL     1      -9.260  -9.611  17.854  0.00  0.00    -0.304 N 
ATOM     15  C   UNL     1     -10.576  -9.268  18.128  0.00  0.00    +0.244 C 
ATOM     31  H   UNL     1      -8.811  -9.278  17.009  0.00  0.00    +0.149 HD
BRANCH  15  17
ATOM     17  C   UNL     1     -11.199  -8.288  17.201  0.00  0.00    +0.037 A 
ATOM     18  C   UNL     1     -10.486  -7.162  16.845  0.00  0.00    +0.013 A 
ATOM     19  C   UNL     1     -12.470  -8.536  16.725  0.00  0.00    +0.013 A 
ATOM     23  C   UNL     1     -11.071  -6.242  15.974  0.00  0.00    +0.004 A 
ATOM     24  C   UNL     1     -13.054  -7.616  15.854  0.00  0.00    +0.004 A 
ATOM     25  C   UNL     1     -12.355  -6.470  15.479  0.00  0.00    -0.050 A 
ATOM     27  C   UNL     1     -12.980  -5.486  14.548  0.00  0.00    +0.044 C 
ENDBRANCH  15  17
ENDBRANCH  11   5
TORSDOF 4
ENDMDL
MODEL 7
REMARK VINA RESULT:      -6.8     23.910     28.384
REMARK  Name = 11912970
REMARK  5 active torsions:
REMARK  status: ('A' for Active; 'I' for Inactive)
REMARK    1  A    between atoms: N_5  and  C_11
REMARK    2  A    between atoms: N_6  and  C_12
REMARK    3  A    between atoms: C_15  and  C_17
REMARK    4  A    between atoms: C_20  and  C_26
REMARK    5  A    between atoms: C_25  and  C_27
REMARK                            x       y       z     vdW  Elec       q    Type
REMARK                         _______ _______ _______ _____ _____    ______ ____
ROOT
ATOM      1  O   UNL     1      -2.914 -12.927  12.882  0.00  0.00    -0.370 OA
ATOM      2  O   UNL     1      -1.797 -10.047  13.321  0.00  0.00    -0.370 OA
ATOM      9  C   UNL     1      -2.932 -10.753  13.849  0.00  0.00    +0.171 C 
ATOM     10  C   UNL     1      -3.485 -11.616  12.731  0.00  0.00    +0.171 C 
ATOM     11  C   UNL     1      -2.488 -11.749  14.896  0.00  0.00    +0.130 C 
ATOM     12  C   UNL     1      -2.973 -10.962  11.471  0.00  0.00    +0.130 C 
ATOM     13  C   UNL     1      -2.092 -12.950  14.058  0.00  0.00    +0.185 C 
ATOM     14  C   UNL     1      -1.662 -10.348  11.924  0.00  0.00    +0.185 C 
ENDROOT
BRANCH  12   6
ATOM      6  N   UNL     1      -3.889  -9.928  11.042  0.00  0.00    -0.306 N 
ATOM      7  N   UNL     1      -4.210 -10.926   8.943  0.00  0.00    -0.211 NA
ATOM      8  N   UNL     1      -5.340  -8.879   9.526  0.00  0.00    -0.223 NA
ATOM     16  C   UNL     1      -4.497  -9.911   9.801  0.00  0.00    +0.216 A 
ATOM     20  C   UNL     1      -4.821 -10.878   7.742  0.00  0.00    +0.111 A 
ATOM     21  C   UNL     1      -5.916  -8.894   8.307  0.00  0.00    +0.116 A 
ATOM     22  C   UNL     1      -5.692  -9.877   7.364  0.00  0.00    +0.051 A 
ATOM     32  H   UNL     1      -4.150  -9.194  11.691  0.00  0.00    +0.149 HD
BRANCH  20  26
ATOM      4  O   UNL     1      -3.883 -13.026   7.442  0.00  0.00    -0.461 OA
ATOM     26  C   UNL     1      -4.497 -11.966   6.857  0.00  0.00    +0.153 A 
ATOM     28  C   UNL     1      -4.672 -12.185   5.513  0.00  0.00    +0.051 A 
ATOM     29  C   UNL     1      -4.129 -13.466   5.252  0.00  0.00    +0.042 A 
ATOM     30  C   UNL     1      -3.661 -13.935   6.458  0.00  0.00    +0.196 A 
ENDBRANCH  20  26
ENDBRANCH  12   6
BRANCH  11   5
ATOM      3  O   UNL     1      -3.660 -10.016  16.865  0.00  0.00    -0.270 OA
ATOM      5  N   UNL     1      -3.568 -12.074  15.797  0.00  0.00    -0.304 N 
ATOM     15  C   UNL     1      -4.069 -11.166  16.719  0.00  0.00    +0.244 C 
ATOM     31  H   UNL     1      -3.878 -13.039  15.812  0.00  0.00    +0.149 HD
BRANCH  15  17
ATOM     17  C   UNL     1      -5.164 -11.662  17.592  0.00  0.00    +0.037 A 
ATOM     18  C   UNL     1      -5.988 -12.664  17.123  0.00  0.00    +0.013 A 
ATOM     19  C   UNL     1      -5.322 -11.105  18.844  0.00  0.00    +0.013 A 
ATOM     23  C   UNL     1      -7.015 -13.130  17.943  0.00  0.00    +0.004 A 
ATOM     24  C   UNL     1      -6.350 -11.572  19.664  0.00  0.00    +0.004 A 
ATOM     25  C   UNL     1      -7.196 -12.584  19.213  0.00  0.00    -0.050 A 
ATOM     27  C   UNL     1      -8.296 -13.082  20.090  0.00  0.00    +0.044 C 
ENDBRANCH  15  17
ENDBRANCH  11   5
TORSDOF 4
ENDMDL
MODEL 8
REMARK VINA RESULT:      -6.8     40.172     42.890
REMARK  Name = 11912970
REMARK  5 active torsions:
REMARK  status: ('A' for Active; 'I' for Inactive)
REMARK    1  A    between atoms: N_5  and  C_11
REMARK    2  A    between atoms: N_6  and  C_12
REMARK    3  A    between atoms: C_15  and  C_17
REMARK    4  A    between atoms: C_20  and  C_26
REMARK    5  A    between atoms: C_25  and  C_27
REMARK                            x       y       z     vdW  Elec       q    Type
REMARK                         _______ _______ _______ _____ _____    ______ ____
ROOT
ATOM      1  O   UNL     1       6.807   6.274  -2.894  0.00  0.00    -0.370 OA
ATOM      2  O   UNL     1       7.762   7.229  -5.707  0.00  0.00    -0.370 OA
ATOM      9  C   UNL     1       6.997   6.098  -5.259  0.00  0.00    +0.171 C 
ATOM     10  C   UNL     1       7.583   5.654  -3.933  0.00  0.00    +0.171 C 
ATOM     11  C   UNL     1       5.588   6.522  -4.914  0.00  0.00    +0.130 C 
ATOM     12  C   UNL     1       8.987   6.211  -3.943  0.00  0.00    +0.130 C 
ATOM     13  C   UNL     1       5.738   7.024  -3.489  0.00  0.00    +0.185 C 
ATOM     14  C   UNL     1       8.841   7.463  -4.789  0.00  0.00    +0.185 C 
ENDROOT
BRANCH  12   6
ATOM      6  N   UNL     1       9.886   5.276  -4.584  0.00  0.00    -0.306 N 
ATOM      7  N   UNL     1      10.742   4.523  -2.533  0.00  0.00    -0.211 NA
ATOM      8  N   UNL     1      11.540   3.613  -4.617  0.00  0.00    -0.223 NA
ATOM     16  C   UNL     1      10.748   4.447  -3.891  0.00  0.00    +0.216 A 
ATOM     20  C   UNL     1      11.594   3.699  -1.890  0.00  0.00    +0.111 A 
ATOM     21  C   UNL     1      12.367   2.817  -3.910  0.00  0.00    +0.116 A 
ATOM     22  C   UNL     1      12.438   2.817  -2.531  0.00  0.00    +0.051 A 
ATOM     32  H   UNL     1       9.862   5.174  -5.592  0.00  0.00    +0.149 HD
BRANCH  20  26
ATOM      4  O   UNL     1      10.353   4.102   0.080  0.00  0.00    -0.461 OA
ATOM     26  C   UNL     1      11.565   3.804  -0.454  0.00  0.00    +0.153 A 
ATOM     28  C   UNL     1      12.512   3.667   0.530  0.00  0.00    +0.051 A 
ATOM     29  C   UNL     1      11.839   3.896   1.754  0.00  0.00    +0.042 A 
ATOM     30  C   UNL     1      10.529   4.157   1.426  0.00  0.00    +0.196 A 
ENDBRANCH  20  26
ENDBRANCH  12   6
BRANCH  11   5
ATOM      3  O   UNL     1       2.719   6.641  -4.815  0.00  0.00    -0.270 OA
ATOM      5  N   UNL     1       4.676   5.405  -4.981  0.00  0.00    -0.304 N 
ATOM     15  C   UNL     1       3.299   5.562  -4.925  0.00  0.00    +0.244 C 
ATOM     31  H   UNL     1       5.085   4.478  -4.957  0.00  0.00    +0.149 HD
BRANCH  15  17
ATOM     17  C   UNL     1       2.498   4.312  -4.981  0.00  0.00    +0.037 A 
ATOM     18  C   UNL     1       3.012   3.222  -5.653  0.00  0.00    +0.013 A 
ATOM     19  C   UNL     1       1.267   4.280  -4.359  0.00  0.00    +0.013 A 
ATOM     23  C   UNL     1       2.260   2.048  -5.705  0.00  0.00    +0.004 A 
ATOM     24  C   UNL     1       0.516   3.106  -4.412  0.00  0.00    +0.004 A 
ATOM     25  C   UNL     1       1.013   1.990  -5.084  0.00  0.00    -0.050 A 
ATOM     27  C   UNL     1       0.209   0.734  -5.140  0.00  0.00    +0.044 C 
ENDBRANCH  15  17
ENDBRANCH  11   5
TORSDOF 4
ENDMDL
MODEL 9
REMARK VINA RESULT:      -6.6     14.650     19.258
REMARK  Name = 11912970
REMARK  5 active torsions:
REMARK  status: ('A' for Active; 'I' for Inactive)
REMARK    1  A    between atoms: N_5  and  C_11
REMARK    2  A    between atoms: N_6  and  C_12
REMARK    3  A    between atoms: C_15  and  C_17
REMARK    4  A    between atoms: C_20  and  C_26
REMARK    5  A    between atoms: C_25  and  C_27
REMARK                            x       y       z     vdW  Elec       q    Type
REMARK                         _______ _______ _______ _____ _____    ______ ____
ROOT
ATOM      1  O   UNL     1      -8.217 -11.206  36.473  0.00  0.00    -0.370 OA
ATOM      2  O   UNL     1      -9.878 -11.425  39.105  0.00  0.00    -0.370 OA
ATOM      9  C   UNL     1     -10.241 -11.291  37.721  0.00  0.00    +0.171 C 
ATOM     10  C   UNL     1      -9.221 -10.373  37.075  0.00  0.00    +0.171 C 
ATOM     11  C   UNL     1     -10.057 -12.607  37.000  0.00  0.00    +0.130 C 
ATOM     12  C   UNL     1      -8.636  -9.598  38.231  0.00  0.00    +0.130 C 
ATOM     13  C   UNL     1      -8.581 -12.584  36.648  0.00  0.00    +0.185 C 
ATOM     14  C   UNL     1      -8.751 -10.581  39.382  0.00  0.00    +0.185 C 
ENDROOT
BRANCH  12   6
ATOM      6  N   UNL     1      -9.437  -8.422  38.495  0.00  0.00    -0.306 N 
ATOM      7  N   UNL     1      -7.647  -7.296  39.513  0.00  0.00    -0.211 NA
ATOM      8  N   UNL     1      -9.811  -6.255  39.311  0.00  0.00    -0.223 NA
ATOM     16  C   UNL     1      -8.951  -7.292  39.125  0.00  0.00    +0.216 A 
ATOM     20  C   UNL     1      -7.206  -6.177  40.123  0.00  0.00    +0.111 A 
ATOM     21  C   UNL     1      -9.304  -5.167  39.926  0.00  0.00    +0.116 A 
ATOM     22  C   UNL     1      -7.996  -5.071  40.359  0.00  0.00    +0.051 A 
ATOM     32  H   UNL     1     -10.394  -8.388  38.165  0.00  0.00    +0.149 HD
BRANCH  20  26
ATOM      4  O   UNL     1      -4.959  -6.661  39.576  0.00  0.00    -0.461 OA
ATOM     26  C   UNL     1      -5.824  -6.213  40.522  0.00  0.00    +0.153 A 
ATOM     28  C   UNL     1      -5.157  -5.888  41.678  0.00  0.00    +0.051 A 
ATOM     29  C   UNL     1      -3.790  -6.153  41.427  0.00  0.00    +0.042 A 
ATOM     30  C   UNL     1      -3.722  -6.622  40.136  0.00  0.00    +0.196 A 
ENDBRANCH  20  26
ENDBRANCH  12   6
BRANCH  11   5
ATOM      3  O   UNL     1     -12.859 -13.228  36.883  0.00  0.00    -0.270 OA
ATOM      5  N   UNL     1     -10.877 -12.672  35.814  0.00  0.00    -0.304 N 
ATOM     15  C   UNL     1     -12.228 -12.982  35.857  0.00  0.00    +0.244 C 
ATOM     31  H   UNL     1     -10.400 -12.593  34.923  0.00  0.00    +0.149 HD
BRANCH  15  17
ATOM     17  C   UNL     1     -12.927 -13.033  34.547  0.00  0.00    +0.037 A 
ATOM     18  C   UNL     1     -12.582 -14.020  33.646  0.00  0.00    +0.013 A 
ATOM     19  C   UNL     1     -13.899 -12.093  34.272  0.00  0.00    +0.013 A 
ATOM     23  C   UNL     1     -13.237 -14.068  32.417  0.00  0.00    +0.004 A 
ATOM     24  C   UNL     1     -14.555 -12.142  33.042  0.00  0.00    +0.004 A 
ATOM     25  C   UNL     1     -14.224 -13.130  32.115  0.00  0.00    -0.050 A 
ATOM     27  C   UNL     1     -14.925 -13.181  30.799  0.00  0.00    +0.044 C 
ENDBRANCH  15  17
ENDBRANCH  11   5
TORSDOF 4
ENDMDL
MODEL 10
REMARK VINA RESULT:      -6.6     30.861     33.543
REMARK  Name = 11912970
REMARK  5 active torsions:
REMARK  status: ('A' for Active; 'I' for Inactive)
REMARK    1  A    between atoms: N_5  and  C_11
REMARK    2  A    between atoms: N_6  and  C_12
REMARK    3  A    between atoms: C_15  and  C_17
REMARK    4  A    between atoms: C_20  and  C_26
REMARK    5  A    between atoms: C_25  and  C_27
REMARK                            x       y       z     vdW  Elec       q    Type
REMARK                         _______ _______ _______ _____ _____    ______ ____
ROOT
ATOM      1  O   UNL     1      19.402  -4.609  28.282  0.00  0.00    -0.370 OA
ATOM      2  O   UNL     1      19.229  -1.634  29.205  0.00  0.00    -0.370 OA
ATOM      9  C   UNL     1      18.247  -2.668  29.029  0.00  0.00    +0.171 C 
ATOM     10  C   UNL     1      18.656  -3.474  27.811  0.00  0.00    +0.171 C 
ATOM     11  C   UNL     1      18.319  -3.660  30.167  0.00  0.00    +0.130 C 
ATOM     12  C   UNL     1      19.553  -2.542  27.034  0.00  0.00    +0.130 C 
ATOM     13  C   UNL     1      19.428  -4.593  29.717  0.00  0.00    +0.185 C 
ATOM     14  C   UNL     1      20.174  -1.691  28.127  0.00  0.00    +0.185 C 
ENDROOT
BRANCH  12   6
ATOM      6  N   UNL     1      18.762  -1.717  26.147  0.00  0.00    -0.306 N 
ATOM      7  N   UNL     1      18.917  -3.266  24.390  0.00  0.00    -0.211 NA
ATOM      8  N   UNL     1      17.695  -1.207  24.121  0.00  0.00    -0.223 NA
ATOM     16  C   UNL     1      18.449  -2.074  24.848  0.00  0.00    +0.216 A 
ATOM     20  C   UNL     1      18.593  -3.582  23.120  0.00  0.00    +0.111 A 
ATOM     21  C   UNL     1      17.407  -1.585  22.859  0.00  0.00    +0.116 A 
ATOM     22  C   UNL     1      17.833  -2.773  22.299  0.00  0.00    +0.051 A 
ATOM     32  H   UNL     1      18.365  -0.852  26.493  0.00  0.00    +0.149 HD
BRANCH  20  26
ATOM      4  O   UNL     1      19.120  -5.835  23.596  0.00  0.00    -0.461 OA
ATOM     26  C   UNL     1      19.103  -4.848  22.664  0.00  0.00    +0.153 A 
ATOM     28  C   UNL     1      19.593  -5.302  21.464  0.00  0.00    +0.051 A 
ATOM     29  C   UNL     1      19.935  -6.660  21.671  0.00  0.00    +0.042 A 
ATOM     30  C   UNL     1      19.628  -6.935  22.984  0.00  0.00    +0.196 A 
ENDBRANCH  20  26
ENDBRANCH  12   6
BRANCH  11   5
ATOM      3  O   UNL     1      15.969  -2.716  31.522  0.00  0.00    -0.270 OA
ATOM      5  N   UNL     1      17.071  -4.368  30.322  0.00  0.00    -0.304 N 
ATOM     15  C   UNL     1      15.986  -3.827  30.997  0.00  0.00    +0.244 C 
ATOM     31  H   UNL     1      17.050  -5.334  30.015  0.00  0.00    +0.149 HD
BRANCH  15  17
ATOM     17  C   UNL     1      14.782  -4.692  31.092  0.00  0.00    +0.037 A 
ATOM     18  C   UNL     1      14.637  -5.734  30.199  0.00  0.00    +0.013 A 
ATOM     19  C   UNL     1      13.846  -4.426  32.071  0.00  0.00    +0.013 A 
ATOM     23  C   UNL     1      13.507  -6.546  30.289  0.00  0.00    +0.004 A 
ATOM     24  C   UNL     1      12.716  -5.240  32.160  0.00  0.00    +0.004 A 
ATOM     25  C   UNL     1      12.547  -6.299  31.269  0.00  0.00    -0.050 A 
ATOM     27  C   UNL     1      11.338  -7.167  31.365  0.00  0.00    +0.044 C 
ENDBRANCH  15  17
ENDBRANCH  11   5
TORSDOF 4
ENDMDL
