MODEL 1
REMARK VINA RESULT:      -6.0      0.000      0.000
REMARK  Name = 38029897
REMARK  11 active torsions:
REMARK  status: ('A' for Active; 'I' for Inactive)
REMARK    1  A    between atoms: N_5  and  C_21
REMARK    2  A    between atoms: C_7  and  C_11
REMARK    3  A    between atoms: C_9  and  C_15
REMARK    4  A    between atoms: C_10  and  C_14
REMARK    5  A    between atoms: C_11  and  C_16
REMARK    6  A    between atoms: C_11  and  C_17
REMARK    7  A    between atoms: C_12  and  C_18
REMARK    8  A    between atoms: C_14  and  C_19
REMARK    9  A    between atoms: C_15  and  C_20
REMARK   10  A    between atoms: C_21  and  C_22
REMARK   11  A    between atoms: C_27  and  C_28
REMARK                            x       y       z     vdW  Elec       q    Type
REMARK                         _______ _______ _______ _____ _____    ______ ____
ROOT
ATOM      4  O   UNL     1      -1.387 -12.183  14.685  0.00  0.00    -0.276 OA
ATOM      5  N   UNL     1      -2.179 -10.139  13.914  0.00  0.00    -0.311 N 
ATOM     19  C   UNL     1      -2.043 -11.157  14.846  0.00  0.00    +0.214 C 
ATOM     29  H   UNL     1      -2.747  -9.327  14.138  0.00  0.00    +0.149 HD
ENDROOT
BRANCH  19  14
ATOM     14  C   UNL     1      -2.816 -10.846  16.108  0.00  0.00    +0.103 C 
BRANCH  14  10
ATOM      7  C   UNL     1      -5.871 -10.594  15.131  0.00  0.00    -0.000 C 
ATOM      8  C   UNL     1      -4.941 -11.817  15.127  0.00  0.00    +0.012 C 
ATOM      9  C   UNL     1      -6.709 -10.556  16.432  0.00  0.00    +0.029 C 
ATOM     10  C   UNL     1      -3.978 -11.820  16.328  0.00  0.00    +0.023 C 
ATOM     12  C   UNL     1      -4.697 -11.521  17.628  0.00  0.00    -0.073 C 
ATOM     13  C   UNL     1      -5.922 -10.968  17.655  0.00  0.00    -0.023 C 
ATOM     18  C   UNL     1      -3.993 -11.915  18.897  0.00  0.00    +0.039 C 
BRANCH   7  11
ATOM     11  C   UNL     1      -6.759 -10.613  13.883  0.00  0.00    -0.013 C 
ATOM     16  C   UNL     1      -6.256  -9.601  12.857  0.00  0.00    +0.007 C 
ATOM     17  C   UNL     1      -6.804 -12.014  13.283  0.00  0.00    +0.007 C 
ENDBRANCH   7  11
BRANCH   9  15
ATOM     15  C   UNL     1      -7.316  -9.167  16.661  0.00  0.00    +0.126 C 
BRANCH  15  20
ATOM      6  N   UNL     1      -9.800  -9.350  17.481  0.00  0.00    -0.197 NA
ATOM     20  C   UNL     1      -8.702  -9.274  17.113  0.00  0.00    +0.063 C 
ENDBRANCH  15  20
ENDBRANCH   9  15
ENDBRANCH  14  10
ENDBRANCH  19  14
BRANCH   5  21
ATOM     21  C   UNL     1      -1.546 -10.167  12.616  0.00  0.00    +0.139 C 
BRANCH  21  22
ATOM     22  C   UNL     1      -2.549 -10.282  11.504  0.00  0.00    -0.030 A 
ATOM     23  C   UNL     1      -3.304 -11.446  11.364  0.00  0.00    +0.006 A 
ATOM     24  C   UNL     1      -2.726  -9.224  10.612  0.00  0.00    +0.006 A 
ATOM     25  C   UNL     1      -4.236 -11.553  10.331  0.00  0.00    +0.013 A 
ATOM     26  C   UNL     1      -3.659  -9.330   9.581  0.00  0.00    +0.013 A 
ATOM     27  C   UNL     1      -4.414 -10.495   9.440  0.00  0.00    +0.055 A 
BRANCH  27  28
ATOM      1  F   UNL     1      -5.268  -9.658   7.368  0.00  0.00    -0.166 F 
ATOM      2  F   UNL     1      -6.698 -10.486   8.781  0.00  0.00    -0.166 F 
ATOM      3  F   UNL     1      -5.365 -11.802   7.676  0.00  0.00    -0.166 F 
ATOM     28  C   UNL     1      -5.412 -10.607   8.338  0.00  0.00    +0.417 C 
ENDBRANCH  27  28
ENDBRANCH  21  22
ENDBRANCH   5  21
TORSDOF 8
ENDMDL
MODEL 2
REMARK VINA RESULT:      -6.0     22.526     26.136
REMARK  Name = 38029897
REMARK  11 active torsions:
REMARK  status: ('A' for Active; 'I' for Inactive)
REMARK    1  A    between atoms: N_5  and  C_21
REMARK    2  A    between atoms: C_7  and  C_11
REMARK    3  A    between atoms: C_9  and  C_15
REMARK    4  A    between atoms: C_10  and  C_14
REMARK    5  A    between atoms: C_11  and  C_16
REMARK    6  A    between atoms: C_11  and  C_17
REMARK    7  A    between atoms: C_12  and  C_18
REMARK    8  A    between atoms: C_14  and  C_19
REMARK    9  A    between atoms: C_15  and  C_20
REMARK   10  A    between atoms: C_21  and  C_22
REMARK   11  A    between atoms: C_27  and  C_28
REMARK                            x       y       z     vdW  Elec       q    Type
REMARK                         _______ _______ _______ _____ _____    ______ ____
ROOT
ATOM      4  O   UNL     1      12.262   8.455   3.298  0.00  0.00    -0.276 OA
ATOM      5  N   UNL     1      10.238   7.337   3.526  0.00  0.00    -0.311 N 
ATOM     19  C   UNL     1      11.473   7.582   2.945  0.00  0.00    +0.214 C 
ATOM     29  H   UNL     1       9.651   6.591   3.161  0.00  0.00    +0.149 HD
ENDROOT
BRANCH  19  14
ATOM     14  C   UNL     1      11.735   6.626   1.803  0.00  0.00    +0.103 C 
BRANCH  14  10
ATOM      7  C   UNL     1      13.777   4.964  -0.046  0.00  0.00    -0.000 C 
ATOM      8  C   UNL     1      13.983   5.541   1.363  0.00  0.00    +0.012 C 
ATOM      9  C   UNL     1      13.293   3.495   0.037  0.00  0.00    +0.029 C 
ATOM     10  C   UNL     1      12.694   5.499   2.204  0.00  0.00    +0.023 C 
ATOM     12  C   UNL     1      12.010   4.150   2.119  0.00  0.00    -0.073 C 
ATOM     13  C   UNL     1      12.300   3.262   1.152  0.00  0.00    -0.023 C 
ATOM     18  C   UNL     1      11.016   3.826   3.200  0.00  0.00    +0.039 C 
BRANCH   7  11
ATOM     11  C   UNL     1      15.073   5.091  -0.854  0.00  0.00    -0.013 C 
ATOM     16  C   UNL     1      15.514   6.550  -0.924  0.00  0.00    +0.007 C 
ATOM     17  C   UNL     1      16.168   4.223  -0.242  0.00  0.00    +0.007 C 
ENDBRANCH   7  11
BRANCH   9  15
ATOM     15  C   UNL     1      12.684   3.036  -1.293  0.00  0.00    +0.126 C 
BRANCH  15  20
ATOM      6  N   UNL     1      10.296   4.068  -1.630  0.00  0.00    -0.197 NA
ATOM     20  C   UNL     1      11.356   3.618  -1.482  0.00  0.00    +0.063 C 
ENDBRANCH  15  20
ENDBRANCH   9  15
ENDBRANCH  14  10
ENDBRANCH  19  14
BRANCH   5  21
ATOM     21  C   UNL     1       9.725   8.098   4.642  0.00  0.00    +0.139 C 
BRANCH  21  22
ATOM     22  C   UNL     1       9.620   7.267   5.889  0.00  0.00    -0.030 A 
ATOM     23  C   UNL     1      10.057   5.942   5.883  0.00  0.00    +0.006 A 
ATOM     24  C   UNL     1       9.086   7.820   7.053  0.00  0.00    +0.006 A 
ATOM     25  C   UNL     1       9.959   5.171   7.041  0.00  0.00    +0.013 A 
ATOM     26  C   UNL     1       8.989   7.049   8.211  0.00  0.00    +0.013 A 
ATOM     27  C   UNL     1       9.426   5.724   8.205  0.00  0.00    +0.055 A 
BRANCH  27  28
ATOM      1  F   UNL     1      10.367   5.081  10.308  0.00  0.00    -0.166 F 
ATOM      2  F   UNL     1       9.294   3.561   9.182  0.00  0.00    -0.166 F 
ATOM      3  F   UNL     1       8.203   5.155  10.182  0.00  0.00    -0.166 F 
ATOM     28  C   UNL     1       9.325   4.900   9.444  0.00  0.00    +0.417 C 
ENDBRANCH  27  28
ENDBRANCH  21  22
ENDBRANCH   5  21
TORSDOF 8
ENDMDL
MODEL 3
REMARK VINA RESULT:      -5.9      3.888      7.148
REMARK  Name = 38029897
REMARK  11 active torsions:
REMARK  status: ('A' for Active; 'I' for Inactive)
REMARK    1  A    between atoms: N_5  and  C_21
REMARK    2  A    between atoms: C_7  and  C_11
REMARK    3  A    between atoms: C_9  and  C_15
REMARK    4  A    between atoms: C_10  and  C_14
REMARK    5  A    between atoms: C_11  and  C_16
REMARK    6  A    between atoms: C_11  and  C_17
REMARK    7  A    between atoms: C_12  and  C_18
REMARK    8  A    between atoms: C_14  and  C_19
REMARK    9  A    between atoms: C_15  and  C_20
REMARK   10  A    between atoms: C_21  and  C_22
REMARK   11  A    between atoms: C_27  and  C_28
REMARK                            x       y       z     vdW  Elec       q    Type
REMARK                         _______ _______ _______ _____ _____    ______ ____
ROOT
ATOM      4  O   UNL     1      -2.117 -13.158  14.364  0.00  0.00    -0.276 OA
ATOM      5  N   UNL     1      -2.046 -10.890  14.867  0.00  0.00    -0.311 N 
ATOM     19  C   UNL     1      -2.054 -11.982  14.012  0.00  0.00    +0.214 C 
ATOM     29  H   UNL     1      -1.988  -9.952  14.481  0.00  0.00    +0.149 HD
ENDROOT
BRANCH  19  14
ATOM     14  C   UNL     1      -1.974 -11.542  12.568  0.00  0.00    +0.103 C 
BRANCH  14  10
ATOM      7  C   UNL     1      -4.761 -10.989  11.058  0.00  0.00    -0.000 C 
ATOM      8  C   UNL     1      -4.220 -10.384  12.363  0.00  0.00    +0.012 C 
ATOM      9  C   UNL     1      -4.395 -10.088   9.852  0.00  0.00    +0.029 C 
ATOM     10  C   UNL     1      -2.690 -10.208  12.332  0.00  0.00    +0.023 C 
ATOM     12  C   UNL     1      -2.223  -9.563  11.042  0.00  0.00    -0.073 C 
ATOM     13  C   UNL     1      -3.004  -9.507   9.949  0.00  0.00    -0.023 C 
ATOM     18  C   UNL     1      -0.854  -8.942  11.053  0.00  0.00    +0.039 C 
BRANCH   7  11
ATOM     11  C   UNL     1      -6.274 -11.199  11.172  0.00  0.00    -0.013 C 
ATOM     16  C   UNL     1      -6.615 -11.905  12.481  0.00  0.00    +0.007 C 
ATOM     17  C   UNL     1      -7.006  -9.865  11.070  0.00  0.00    +0.007 C 
ENDBRANCH   7  11
BRANCH   9  15
ATOM     15  C   UNL     1      -4.540 -10.849   8.529  0.00  0.00    +0.126 C 
BRANCH  15  20
ATOM      6  N   UNL     1      -6.135  -9.561   6.894  0.00  0.00    -0.197 NA
ATOM     20  C   UNL     1      -5.433 -10.137   7.617  0.00  0.00    +0.063 C 
ENDBRANCH  15  20
ENDBRANCH   9  15
ENDBRANCH  14  10
ENDBRANCH  19  14
BRANCH   5  21
ATOM     21  C   UNL     1      -2.115 -11.013  16.305  0.00  0.00    +0.139 C 
BRANCH  21  22
ATOM     22  C   UNL     1      -3.520 -10.875  16.815  0.00  0.00    -0.030 A 
ATOM     23  C   UNL     1      -4.494 -10.269  16.022  0.00  0.00    +0.006 A 
ATOM     24  C   UNL     1      -3.853 -11.354  18.083  0.00  0.00    +0.006 A 
ATOM     25  C   UNL     1      -5.799 -10.140  16.496  0.00  0.00    +0.013 A 
ATOM     26  C   UNL     1      -5.158 -11.227  18.556  0.00  0.00    +0.013 A 
ATOM     27  C   UNL     1      -6.132 -10.620  17.762  0.00  0.00    +0.055 A 
BRANCH  27  28
ATOM      1  F   UNL     1      -8.098  -9.277  17.988  0.00  0.00    -0.166 F 
ATOM      2  F   UNL     1      -7.613 -10.627  19.622  0.00  0.00    -0.166 F 
ATOM      3  F   UNL     1      -8.389 -11.413  17.749  0.00  0.00    -0.166 F 
ATOM     28  C   UNL     1      -7.528 -10.486  18.267  0.00  0.00    +0.417 C 
ENDBRANCH  27  28
ENDBRANCH  21  22
ENDBRANCH   5  21
TORSDOF 8
ENDMDL
MODEL 4
REMARK VINA RESULT:      -5.8     20.658     22.658
REMARK  Name = 38029897
REMARK  11 active torsions:
REMARK  status: ('A' for Active; 'I' for Inactive)
REMARK    1  A    between atoms: N_5  and  C_21
REMARK    2  A    between atoms: C_7  and  C_11
REMARK    3  A    between atoms: C_9  and  C_15
REMARK    4  A    between atoms: C_10  and  C_14
REMARK    5  A    between atoms: C_11  and  C_16
REMARK    6  A    between atoms: C_11  and  C_17
REMARK    7  A    between atoms: C_12  and  C_18
REMARK    8  A    between atoms: C_14  and  C_19
REMARK    9  A    between atoms: C_15  and  C_20
REMARK   10  A    between atoms: C_21  and  C_22
REMARK   11  A    between atoms: C_27  and  C_28
REMARK                            x       y       z     vdW  Elec       q    Type
REMARK                         _______ _______ _______ _____ _____    ______ ____
ROOT
ATOM      4  O   UNL     1     -17.447   4.919  27.394  0.00  0.00    -0.276 OA
ATOM      5  N   UNL     1     -16.149   3.782  25.838  0.00  0.00    -0.311 N 
ATOM     19  C   UNL     1     -16.531   4.148  27.120  0.00  0.00    +0.214 C 
ATOM     29  H   UNL     1     -15.374   3.137  25.711  0.00  0.00    +0.149 HD
ENDROOT
BRANCH  19  14
ATOM     14  C   UNL     1     -15.667   3.469  28.159  0.00  0.00    +0.103 C 
BRANCH  14  10
ATOM      7  C   UNL     1     -14.695   2.507  31.071  0.00  0.00    -0.000 C 
ATOM      8  C   UNL     1     -15.947   3.304  30.672  0.00  0.00    +0.012 C 
ATOM      9  C   UNL     1     -15.013   0.992  31.123  0.00  0.00    +0.029 C 
ATOM     10  C   UNL     1     -16.498   2.874  29.300  0.00  0.00    +0.023 C 
ATOM     12  C   UNL     1     -16.589   1.367  29.177  0.00  0.00    -0.073 C 
ATOM     13  C   UNL     1     -15.928   0.542  30.008  0.00  0.00    -0.023 C 
ATOM     18  C   UNL     1     -17.492   0.828  28.103  0.00  0.00    +0.039 C 
BRANCH   7  11
ATOM     11  C   UNL     1     -14.157   3.022  32.410  0.00  0.00    -0.013 C 
ATOM     16  C   UNL     1     -13.923   4.528  32.346  0.00  0.00    +0.007 C 
ATOM     17  C   UNL     1     -15.120   2.672  33.540  0.00  0.00    +0.007 C 
ENDBRANCH   7  11
BRANCH   9  15
ATOM     15  C   UNL     1     -13.728   0.156  31.097  0.00  0.00    +0.126 C 
BRANCH  15  20
ATOM      6  N   UNL     1     -13.523  -1.186  28.854  0.00  0.00    -0.197 NA
ATOM     20  C   UNL     1     -13.620  -0.590  29.844  0.00  0.00    +0.063 C 
ENDBRANCH  15  20
ENDBRANCH   9  15
ENDBRANCH  14  10
ENDBRANCH  19  14
BRANCH   5  21
ATOM     21  C   UNL     1     -16.802   4.277  24.648  0.00  0.00    +0.139 C 
BRANCH  21  22
ATOM     22  C   UNL     1     -15.839   4.962  23.722  0.00  0.00    -0.030 A 
ATOM     23  C   UNL     1     -16.277   6.005  22.906  0.00  0.00    +0.006 A 
ATOM     24  C   UNL     1     -14.504   4.556  23.678  0.00  0.00    +0.006 A 
ATOM     25  C   UNL     1     -15.382   6.642  22.046  0.00  0.00    +0.013 A 
ATOM     26  C   UNL     1     -13.610   5.194  22.819  0.00  0.00    +0.013 A 
ATOM     27  C   UNL     1     -14.048   6.237  22.003  0.00  0.00    +0.055 A 
BRANCH  27  28
ATOM      1  F   UNL     1     -12.004   6.159  20.764  0.00  0.00    -0.166 F 
ATOM      2  F   UNL     1     -12.587   8.072  21.618  0.00  0.00    -0.166 F 
ATOM      3  F   UNL     1     -13.641   7.279  19.888  0.00  0.00    -0.166 F 
ATOM     28  C   UNL     1     -13.091   6.920  21.087  0.00  0.00    +0.417 C 
ENDBRANCH  27  28
ENDBRANCH  21  22
ENDBRANCH   5  21
TORSDOF 8
ENDMDL
MODEL 5
REMARK VINA RESULT:      -5.7     20.869     23.592
REMARK  Name = 38029897
REMARK  11 active torsions:
REMARK  status: ('A' for Active; 'I' for Inactive)
REMARK    1  A    between atoms: N_5  and  C_21
REMARK    2  A    between atoms: C_7  and  C_11
REMARK    3  A    between atoms: C_9  and  C_15
REMARK    4  A    between atoms: C_10  and  C_14
REMARK    5  A    between atoms: C_11  and  C_16
REMARK    6  A    between atoms: C_11  and  C_17
REMARK    7  A    between atoms: C_12  and  C_18
REMARK    8  A    between atoms: C_14  and  C_19
REMARK    9  A    between atoms: C_15  and  C_20
REMARK   10  A    between atoms: C_21  and  C_22
REMARK   11  A    between atoms: C_27  and  C_28
REMARK                            x       y       z     vdW  Elec       q    Type
REMARK                         _______ _______ _______ _____ _____    ______ ____
ROOT
ATOM      4  O   UNL     1     -16.641   2.007  26.663  0.00  0.00    -0.276 OA
ATOM      5  N   UNL     1     -16.164   4.259  26.350  0.00  0.00    -0.311 N 
ATOM     19  C   UNL     1     -16.150   3.063  27.052  0.00  0.00    +0.214 C 
ATOM     29  H   UNL     1     -15.733   5.084  26.757  0.00  0.00    +0.149 HD
ENDROOT
BRANCH  19  14
ATOM     14  C   UNL     1     -15.443   3.221  28.379  0.00  0.00    +0.103 C 
BRANCH  14  10
ATOM      7  C   UNL     1     -15.854   4.695  31.209  0.00  0.00    -0.000 C 
ATOM      8  C   UNL     1     -16.895   4.038  30.289  0.00  0.00    +0.012 C 
ATOM      9  C   UNL     1     -15.354   3.682  32.269  0.00  0.00    +0.029 C 
ATOM     10  C   UNL     1     -16.331   2.806  29.558  0.00  0.00    +0.023 C 
ATOM     12  C   UNL     1     -15.584   1.884  30.501  0.00  0.00    -0.073 C 
ATOM     13  C   UNL     1     -15.167   2.290  31.713  0.00  0.00    -0.023 C 
ATOM     18  C   UNL     1     -15.367   0.471  30.036  0.00  0.00    +0.039 C 
BRANCH   7  11
ATOM     11  C   UNL     1     -16.452   5.948  31.858  0.00  0.00    -0.013 C 
ATOM     16  C   UNL     1     -16.282   7.154  30.940  0.00  0.00    +0.007 C 
ATOM     17  C   UNL     1     -17.924   5.724  32.190  0.00  0.00    +0.007 C 
ENDBRANCH   7  11
BRANCH   9  15
ATOM     15  C   UNL     1     -14.045   4.155  32.912  0.00  0.00    +0.126 C 
BRANCH  15  20
ATOM      6  N   UNL     1     -14.413   4.730  35.444  0.00  0.00    -0.197 NA
ATOM     20  C   UNL     1     -14.247   4.470  34.326  0.00  0.00    +0.063 C 
ENDBRANCH  15  20
ENDBRANCH   9  15
ENDBRANCH  14  10
ENDBRANCH  19  14
BRANCH   5  21
ATOM     21  C   UNL     1     -16.772   4.403  25.047  0.00  0.00    +0.139 C 
BRANCH  21  22
ATOM     22  C   UNL     1     -15.836   5.036  24.057  0.00  0.00    -0.030 A 
ATOM     23  C   UNL     1     -14.598   4.451  23.795  0.00  0.00    +0.006 A 
ATOM     24  C   UNL     1     -16.208   6.209  23.398  0.00  0.00    +0.006 A 
ATOM     25  C   UNL     1     -13.729   5.039  22.876  0.00  0.00    +0.013 A 
ATOM     26  C   UNL     1     -15.340   6.796  22.478  0.00  0.00    +0.013 A 
ATOM     27  C   UNL     1     -14.100   6.211  22.217  0.00  0.00    +0.055 A 
BRANCH  27  28
ATOM      1  F   UNL     1     -12.766   8.093  21.583  0.00  0.00    -0.166 F 
ATOM      2  F   UNL     1     -13.733   6.968  19.993  0.00  0.00    -0.166 F 
ATOM      3  F   UNL     1     -12.020   6.131  21.038  0.00  0.00    -0.166 F 
ATOM     28  C   UNL     1     -13.174   6.838  21.231  0.00  0.00    +0.417 C 
ENDBRANCH  27  28
ENDBRANCH  21  22
ENDBRANCH   5  21
TORSDOF 8
ENDMDL
MODEL 6
REMARK VINA RESULT:      -5.7     21.613     24.644
REMARK  Name = 38029897
REMARK  11 active torsions:
REMARK  status: ('A' for Active; 'I' for Inactive)
REMARK    1  A    between atoms: N_5  and  C_21
REMARK    2  A    between atoms: C_7  and  C_11
REMARK    3  A    between atoms: C_9  and  C_15
REMARK    4  A    between atoms: C_10  and  C_14
REMARK    5  A    between atoms: C_11  and  C_16
REMARK    6  A    between atoms: C_11  and  C_17
REMARK    7  A    between atoms: C_12  and  C_18
REMARK    8  A    between atoms: C_14  and  C_19
REMARK    9  A    between atoms: C_15  and  C_20
REMARK   10  A    between atoms: C_21  and  C_22
REMARK   11  A    between atoms: C_27  and  C_28
REMARK                            x       y       z     vdW  Elec       q    Type
REMARK                         _______ _______ _______ _____ _____    ______ ____
ROOT
ATOM      4  O   UNL     1     -14.586  11.962  20.034  0.00  0.00    -0.276 OA
ATOM      5  N   UNL     1     -13.795  10.405  21.567  0.00  0.00    -0.311 N 
ATOM     19  C   UNL     1     -13.995  10.917  20.294  0.00  0.00    +0.214 C 
ATOM     29  H   UNL     1     -13.295   9.529  21.682  0.00  0.00    +0.149 HD
ENDROOT
BRANCH  19  14
ATOM     14  C   UNL     1     -13.385  10.015  19.244  0.00  0.00    +0.103 C 
BRANCH  14  10
ATOM      7  C   UNL     1     -10.905  10.402  17.232  0.00  0.00    -0.000 C 
ATOM      8  C   UNL     1     -11.021  10.765  18.721  0.00  0.00    +0.012 C 
ATOM      9  C   UNL     1     -10.295   8.989  17.066  0.00  0.00    +0.029 C 
ATOM     10  C   UNL     1     -11.895   9.762  19.497  0.00  0.00    +0.023 C 
ATOM     12  C   UNL     1     -11.526   8.328  19.177  0.00  0.00    -0.073 C 
ATOM     13  C   UNL     1     -10.800   8.002  18.094  0.00  0.00    -0.023 C 
ATOM     18  C   UNL     1     -11.974   7.279  20.157  0.00  0.00    +0.039 C 
BRANCH   7  11
ATOM     11  C   UNL     1     -10.080  11.467  16.502  0.00  0.00    -0.013 C 
ATOM     16  C   UNL     1     -10.865  12.030  15.320  0.00  0.00    +0.007 C 
ATOM     17  C   UNL     1      -9.677  12.580  17.463  0.00  0.00    +0.007 C 
ENDBRANCH   7  11
BRANCH   9  15
ATOM     15  C   UNL     1     -10.552   8.436  15.659  0.00  0.00    +0.126 C 
BRANCH  15  20
ATOM      6  N   UNL     1     -13.114   8.455  15.100  0.00  0.00    -0.197 NA
ATOM     20  C   UNL     1     -11.981   8.453  15.350  0.00  0.00    +0.063 C 
ENDBRANCH  15  20
ENDBRANCH   9  15
ENDBRANCH  14  10
ENDBRANCH  19  14
BRANCH   5  21
ATOM     21  C   UNL     1     -14.270  11.060  22.765  0.00  0.00    +0.139 C 
BRANCH  21  22
ATOM     22  C   UNL     1     -13.325  10.878  23.918  0.00  0.00    -0.030 A 
ATOM     23  C   UNL     1     -11.989  11.257  23.792  0.00  0.00    +0.006 A 
ATOM     24  C   UNL     1     -13.785  10.329  25.116  0.00  0.00    +0.006 A 
ATOM     25  C   UNL     1     -11.112  11.087  24.863  0.00  0.00    +0.013 A 
ATOM     26  C   UNL     1     -12.908  10.160  26.187  0.00  0.00    +0.013 A 
ATOM     27  C   UNL     1     -11.571  10.540  26.061  0.00  0.00    +0.055 A 
BRANCH  27  28
ATOM      1  F   UNL     1     -10.837   9.206  27.906  0.00  0.00    -0.166 F 
ATOM      2  F   UNL     1     -10.731  11.367  28.125  0.00  0.00    -0.166 F 
ATOM      3  F   UNL     1      -9.319  10.328  26.839  0.00  0.00    -0.166 F 
ATOM     28  C   UNL     1     -10.635  10.362  27.207  0.00  0.00    +0.417 C 
ENDBRANCH  27  28
ENDBRANCH  21  22
ENDBRANCH   5  21
TORSDOF 8
ENDMDL
MODEL 7
REMARK VINA RESULT:      -5.7     23.113     26.485
REMARK  Name = 38029897
REMARK  11 active torsions:
REMARK  status: ('A' for Active; 'I' for Inactive)
REMARK    1  A    between atoms: N_5  and  C_21
REMARK    2  A    between atoms: C_7  and  C_11
REMARK    3  A    between atoms: C_9  and  C_15
REMARK    4  A    between atoms: C_10  and  C_14
REMARK    5  A    between atoms: C_11  and  C_16
REMARK    6  A    between atoms: C_11  and  C_17
REMARK    7  A    between atoms: C_12  and  C_18
REMARK    8  A    between atoms: C_14  and  C_19
REMARK    9  A    between atoms: C_15  and  C_20
REMARK   10  A    between atoms: C_21  and  C_22
REMARK   11  A    between atoms: C_27  and  C_28
REMARK                            x       y       z     vdW  Elec       q    Type
REMARK                         _______ _______ _______ _____ _____    ______ ____
ROOT
ATOM      4  O   UNL     1      10.558   9.176   1.164  0.00  0.00    -0.276 OA
ATOM      5  N   UNL     1       9.412   7.234   1.728  0.00  0.00    -0.311 N 
ATOM     19  C   UNL     1      10.318   7.983   0.992  0.00  0.00    +0.214 C 
ATOM     29  H   UNL     1       9.279   6.251   1.509  0.00  0.00    +0.149 HD
ENDROOT
BRANCH  19  14
ATOM     14  C   UNL     1      10.987   7.138  -0.068  0.00  0.00    +0.103 C 
BRANCH  14  10
ATOM      7  C   UNL     1      12.571   4.353  -0.363  0.00  0.00    -0.000 C 
ATOM      8  C   UNL     1      11.391   4.714   0.553  0.00  0.00    +0.012 C 
ATOM      9  C   UNL     1      12.057   3.734  -1.687  0.00  0.00    +0.029 C 
ATOM     10  C   UNL     1      10.425   5.713  -0.109  0.00  0.00    +0.023 C 
ATOM     12  C   UNL     1      10.079   5.307  -1.528  0.00  0.00    -0.073 C 
ATOM     13  C   UNL     1      10.813   4.412  -2.212  0.00  0.00    -0.023 C 
ATOM     18  C   UNL     1       8.844   5.921  -2.126  0.00  0.00    +0.039 C 
BRANCH   7  11
ATOM     11  C   UNL     1      13.528   3.409   0.371  0.00  0.00    -0.013 C 
ATOM     16  C   UNL     1      14.912   4.042   0.490  0.00  0.00    +0.007 C 
ATOM     17  C   UNL     1      12.975   3.056   1.748  0.00  0.00    +0.007 C 
ENDBRANCH   7  11
BRANCH   9  15
ATOM     15  C   UNL     1      13.145   3.757  -2.767  0.00  0.00    +0.126 C 
BRANCH  15  20
ATOM      6  N   UNL     1      12.215   2.878  -5.057  0.00  0.00    -0.197 NA
ATOM     20  C   UNL     1      12.620   3.268  -4.041  0.00  0.00    +0.063 C 
ENDBRANCH  15  20
ENDBRANCH   9  15
ENDBRANCH  14  10
ENDBRANCH  19  14
BRANCH   5  21
ATOM     21  C   UNL     1       8.629   7.784   2.811  0.00  0.00    +0.139 C 
BRANCH  21  22
ATOM     22  C   UNL     1       8.939   7.122   4.122  0.00  0.00    -0.030 A 
ATOM     23  C   UNL     1       8.266   7.516   5.279  0.00  0.00    +0.006 A 
ATOM     24  C   UNL     1       9.899   6.111   4.183  0.00  0.00    +0.006 A 
ATOM     25  C   UNL     1       8.555   6.900   6.497  0.00  0.00    +0.013 A 
ATOM     26  C   UNL     1      10.186   5.495   5.401  0.00  0.00    +0.013 A 
ATOM     27  C   UNL     1       9.514   5.889   6.558  0.00  0.00    +0.055 A 
BRANCH  27  28
ATOM      1  F   UNL     1       8.962   5.576   8.864  0.00  0.00    -0.166 F 
ATOM      2  F   UNL     1      11.067   5.531   8.322  0.00  0.00    -0.166 F 
ATOM      3  F   UNL     1       9.769   3.864   7.806  0.00  0.00    -0.166 F 
ATOM     28  C   UNL     1       9.819   5.229   7.859  0.00  0.00    +0.417 C 
ENDBRANCH  27  28
ENDBRANCH  21  22
ENDBRANCH   5  21
TORSDOF 8
ENDMDL
MODEL 8
REMARK VINA RESULT:      -5.6     25.205     27.221
REMARK  Name = 38029897
REMARK  11 active torsions:
REMARK  status: ('A' for Active; 'I' for Inactive)
REMARK    1  A    between atoms: N_5  and  C_21
REMARK    2  A    between atoms: C_7  and  C_11
REMARK    3  A    between atoms: C_9  and  C_15
REMARK    4  A    between atoms: C_10  and  C_14
REMARK    5  A    between atoms: C_11  and  C_16
REMARK    6  A    between atoms: C_11  and  C_17
REMARK    7  A    between atoms: C_12  and  C_18
REMARK    8  A    between atoms: C_14  and  C_19
REMARK    9  A    between atoms: C_15  and  C_20
REMARK   10  A    between atoms: C_21  and  C_22
REMARK   11  A    between atoms: C_27  and  C_28
REMARK                            x       y       z     vdW  Elec       q    Type
REMARK                         _______ _______ _______ _____ _____    ______ ____
ROOT
ATOM      4  O   UNL     1      18.283  -7.701  26.144  0.00  0.00    -0.276 OA
ATOM      5  N   UNL     1      16.084  -6.978  26.354  0.00  0.00    -0.311 N 
ATOM     19  C   UNL     1      17.320  -7.061  25.729  0.00  0.00    +0.214 C 
ATOM     29  H   UNL     1      15.347  -6.420  25.934  0.00  0.00    +0.149 HD
ENDROOT
BRANCH  19  14
ATOM     14  C   UNL     1      17.337  -6.253  24.451  0.00  0.00    +0.103 C 
BRANCH  14  10
ATOM      7  C   UNL     1      18.077  -3.149  24.858  0.00  0.00    -0.000 C 
ATOM      8  C   UNL     1      18.879  -4.402  25.240  0.00  0.00    +0.012 C 
ATOM      9  C   UNL     1      18.496  -2.646  23.454  0.00  0.00    +0.029 C 
ATOM     10  C   UNL     1      18.681  -5.549  24.232  0.00  0.00    +0.023 C 
ATOM     12  C   UNL     1      18.815  -5.071  22.800  0.00  0.00    -0.073 C 
ATOM     13  C   UNL     1      18.743  -3.768  22.474  0.00  0.00    -0.023 C 
ATOM     18  C   UNL     1      19.080  -6.121  21.757  0.00  0.00    +0.039 C 
BRANCH   7  11
ATOM     11  C   UNL     1      18.262  -2.068  25.928  0.00  0.00    -0.013 C 
ATOM     16  C   UNL     1      17.995  -2.643  27.316  0.00  0.00    +0.007 C 
ATOM     17  C   UNL     1      19.665  -1.475  25.848  0.00  0.00    +0.007 C 
ENDBRANCH   7  11
BRANCH   9  15
ATOM     15  C   UNL     1      17.452  -1.684  22.876  0.00  0.00    +0.126 C 
BRANCH  15  20
ATOM      6  N   UNL     1      15.099  -2.838  22.761  0.00  0.00    -0.197 NA
ATOM     20  C   UNL     1      16.140  -2.326  22.805  0.00  0.00    +0.063 C 
ENDBRANCH  15  20
ENDBRANCH   9  15
ENDBRANCH  14  10
ENDBRANCH  19  14
BRANCH   5  21
ATOM     21  C   UNL     1      15.780  -7.653  27.595  0.00  0.00    +0.139 C 
BRANCH  21  22
ATOM     22  C   UNL     1      15.543  -6.685  28.718  0.00  0.00    -0.030 A 
ATOM     23  C   UNL     1      14.359  -6.744  29.452  0.00  0.00    +0.006 A 
ATOM     24  C   UNL     1      16.510  -5.727  29.028  0.00  0.00    +0.006 A 
ATOM     25  C   UNL     1      14.140  -5.845  30.495  0.00  0.00    +0.013 A 
ATOM     26  C   UNL     1      16.290  -4.829  30.072  0.00  0.00    +0.013 A 
ATOM     27  C   UNL     1      15.105  -4.888  30.806  0.00  0.00    +0.055 A 
BRANCH  27  28
ATOM      1  F   UNL     1      15.505  -4.275  33.084  0.00  0.00    -0.166 F 
ATOM      2  F   UNL     1      13.551  -3.811  32.248  0.00  0.00    -0.166 F 
ATOM      3  F   UNL     1      15.297  -2.658  31.653  0.00  0.00    -0.166 F 
ATOM     28  C   UNL     1      14.872  -3.929  31.924  0.00  0.00    +0.417 C 
ENDBRANCH  27  28
ENDBRANCH  21  22
ENDBRANCH   5  21
TORSDOF 8
ENDMDL
MODEL 9
REMARK VINA RESULT:      -5.6     22.775     26.501
REMARK  Name = 38029897
REMARK  11 active torsions:
REMARK  status: ('A' for Active; 'I' for Inactive)
REMARK    1  A    between atoms: N_5  and  C_21
REMARK    2  A    between atoms: C_7  and  C_11
REMARK    3  A    between atoms: C_9  and  C_15
REMARK    4  A    between atoms: C_10  and  C_14
REMARK    5  A    between atoms: C_11  and  C_16
REMARK    6  A    between atoms: C_11  and  C_17
REMARK    7  A    between atoms: C_12  and  C_18
REMARK    8  A    between atoms: C_14  and  C_19
REMARK    9  A    between atoms: C_15  and  C_20
REMARK   10  A    between atoms: C_21  and  C_22
REMARK   11  A    between atoms: C_27  and  C_28
REMARK                            x       y       z     vdW  Elec       q    Type
REMARK                         _______ _______ _______ _____ _____    ______ ____
ROOT
ATOM      4  O   UNL     1      11.319   7.722   1.574  0.00  0.00    -0.276 OA
ATOM      5  N   UNL     1       9.556   6.409   2.329  0.00  0.00    -0.311 N 
ATOM     19  C   UNL     1      10.656   6.688   1.531  0.00  0.00    +0.214 C 
ATOM     29  H   UNL     1       9.069   5.525   2.219  0.00  0.00    +0.149 HD
ENDROOT
BRANCH  19  14
ATOM     14  C   UNL     1      10.946   5.544   0.586  0.00  0.00    +0.103 C 
BRANCH  14  10
ATOM      7  C   UNL     1      12.533   5.195  -2.190  0.00  0.00    -0.000 C 
ATOM      8  C   UNL     1      12.902   6.026  -0.952  0.00  0.00    +0.012 C 
ATOM      9  C   UNL     1      13.181   3.790  -2.112  0.00  0.00    +0.029 C 
ATOM     10  C   UNL     1      12.449   5.352   0.357  0.00  0.00    +0.023 C 
ATOM     12  C   UNL     1      12.819   3.884   0.393  0.00  0.00    -0.073 C 
ATOM     13  C   UNL     1      13.156   3.205  -0.719  0.00  0.00    -0.023 C 
ATOM     18  C   UNL     1      12.838   3.223   1.743  0.00  0.00    +0.039 C 
BRANCH   7  11
ATOM     11  C   UNL     1      12.951   5.943  -3.461  0.00  0.00    -0.013 C 
ATOM     16  C   UNL     1      11.782   6.758  -4.006  0.00  0.00    +0.007 C 
ATOM     17  C   UNL     1      14.152   6.840  -3.179  0.00  0.00    +0.007 C 
ENDBRANCH   7  11
BRANCH   9  15
ATOM     15  C   UNL     1      12.509   2.815  -3.086  0.00  0.00    +0.126 C 
BRANCH  15  20
ATOM      6  N   UNL     1       9.903   2.851  -2.786  0.00  0.00    -0.197 NA
ATOM     20  C   UNL     1      11.057   2.830  -2.914  0.00  0.00    +0.063 C 
ENDBRANCH  15  20
ENDBRANCH   9  15
ENDBRANCH  14  10
ENDBRANCH  19  14
BRANCH   5  21
ATOM     21  C   UNL     1       9.052   7.324   3.328  0.00  0.00    +0.139 C 
BRANCH  21  22
ATOM     22  C   UNL     1       9.178   6.766   4.716  0.00  0.00    -0.030 A 
ATOM     23  C   UNL     1       9.706   5.490   4.910  0.00  0.00    +0.006 A 
ATOM     24  C   UNL     1       8.766   7.525   5.812  0.00  0.00    +0.006 A 
ATOM     25  C   UNL     1       9.822   4.972   6.200  0.00  0.00    +0.013 A 
ATOM     26  C   UNL     1       8.884   7.007   7.102  0.00  0.00    +0.013 A 
ATOM     27  C   UNL     1       9.412   5.730   7.296  0.00  0.00    +0.055 A 
BRANCH  27  28
ATOM      1  F   UNL     1       9.520   3.813   8.722  0.00  0.00    -0.166 F 
ATOM      2  F   UNL     1       8.533   5.587   9.500  0.00  0.00    -0.166 F 
ATOM      3  F   UNL     1      10.698   5.539   9.304  0.00  0.00    -0.166 F 
ATOM     28  C   UNL     1       9.540   5.178   8.675  0.00  0.00    +0.417 C 
ENDBRANCH  27  28
ENDBRANCH  21  22
ENDBRANCH   5  21
TORSDOF 8
ENDMDL
MODEL 10
REMARK VINA RESULT:      -5.5      3.952      7.240
REMARK  Name = 38029897
REMARK  11 active torsions:
REMARK  status: ('A' for Active; 'I' for Inactive)
REMARK    1  A    between atoms: N_5  and  C_21
REMARK    2  A    between atoms: C_7  and  C_11
REMARK    3  A    between atoms: C_9  and  C_15
REMARK    4  A    between atoms: C_10  and  C_14
REMARK    5  A    between atoms: C_11  and  C_16
REMARK    6  A    between atoms: C_11  and  C_17
REMARK    7  A    between atoms: C_12  and  C_18
REMARK    8  A    between atoms: C_14  and  C_19
REMARK    9  A    between atoms: C_15  and  C_20
REMARK   10  A    between atoms: C_21  and  C_22
REMARK   11  A    between atoms: C_27  and  C_28
REMARK                            x       y       z     vdW  Elec       q    Type
REMARK                         _______ _______ _______ _____ _____    ______ ____
ROOT
ATOM      4  O   UNL     1      -5.831 -13.309  17.034  0.00  0.00    -0.276 OA
ATOM      5  N   UNL     1      -5.005 -11.274  17.795  0.00  0.00    -0.311 N 
ATOM     19  C   UNL     1      -5.051 -12.365  16.939  0.00  0.00    +0.214 C 
ATOM     29  H   UNL     1      -4.320 -10.541  17.637  0.00  0.00    +0.149 HD
ENDROOT
BRANCH  19  14
ATOM     14  C   UNL     1      -4.005 -12.247  15.853  0.00  0.00    +0.103 C 
BRANCH  14  10
ATOM      7  C   UNL     1      -4.843 -10.909  13.050  0.00  0.00    -0.000 C 
ATOM      8  C   UNL     1      -4.979 -10.354  14.477  0.00  0.00    +0.012 C 
ATOM      9  C   UNL     1      -3.512 -10.439  12.412  0.00  0.00    +0.029 C 
ATOM     10  C   UNL     1      -3.819 -10.799  15.387  0.00  0.00    +0.023 C 
ATOM     12  C   UNL     1      -2.473 -10.615  14.715  0.00  0.00    -0.073 C 
ATOM     13  C   UNL     1      -2.357 -10.442  13.386  0.00  0.00    -0.023 C 
ATOM     18  C   UNL     1      -1.267 -10.588  15.611  0.00  0.00    +0.039 C 
BRANCH   7  11
ATOM     11  C   UNL     1      -6.055 -10.487  12.212  0.00  0.00    -0.013 C 
ATOM     16  C   UNL     1      -7.348 -10.752  12.977  0.00  0.00    +0.007 C 
ATOM     17  C   UNL     1      -5.948  -9.016  11.824  0.00  0.00    +0.007 C 
ENDBRANCH   7  11
BRANCH   9  15
ATOM     15  C   UNL     1      -3.152 -11.293  11.191  0.00  0.00    +0.126 C 
BRANCH  15  20
ATOM      6  N   UNL     1      -2.966 -13.822  11.862  0.00  0.00    -0.197 NA
ATOM     20  C   UNL     1      -3.050 -12.705  11.558  0.00  0.00    +0.063 C 
ENDBRANCH  15  20
ENDBRANCH   9  15
ENDBRANCH  14  10
ENDBRANCH  19  14
BRANCH   5  21
ATOM     21  C   UNL     1      -5.892 -11.120  18.925  0.00  0.00    +0.139 C 
BRANCH  21  22
ATOM     22  C   UNL     1      -7.210 -10.519  18.527  0.00  0.00    -0.030 A 
ATOM     23  C   UNL     1      -8.384 -10.931  19.158  0.00  0.00    +0.006 A 
ATOM     24  C   UNL     1      -7.260  -9.548  17.526  0.00  0.00    +0.006 A 
ATOM     25  C   UNL     1      -9.607 -10.373  18.788  0.00  0.00    +0.013 A 
ATOM     26  C   UNL     1      -8.483  -8.990  17.157  0.00  0.00    +0.013 A 
ATOM     27  C   UNL     1      -9.657  -9.402  17.788  0.00  0.00    +0.055 A 
BRANCH  27  28
ATOM      1  F   UNL     1     -10.939  -7.440  17.308  0.00  0.00    -0.166 F 
ATOM      2  F   UNL     1     -11.963  -9.094  18.280  0.00  0.00    -0.166 F 
ATOM      3  F   UNL     1     -11.419  -9.228  16.178  0.00  0.00    -0.166 F 
ATOM     28  C   UNL     1     -10.965  -8.802  17.396  0.00  0.00    +0.417 C 
ENDBRANCH  27  28
ENDBRANCH  21  22
ENDBRANCH   5  21
TORSDOF 8
ENDMDL
