MODEL 1
REMARK VINA RESULT:      -7.1      0.000      0.000
REMARK  Name = 7165013
REMARK  9 active torsions:
REMARK  status: ('A' for Active; 'I' for Inactive)
REMARK    1  A    between atoms: N_7  and  C_24
REMARK    2  A    between atoms: N_8  and  C_26
REMARK    3  A    between atoms: C_11  and  C_18
REMARK    4  A    between atoms: C_14  and  C_22
REMARK    5  A    between atoms: C_24  and  C_25
REMARK    6  A    between atoms: C_24  and  C_28
REMARK    7  A    between atoms: C_25  and  C_27
REMARK    8  A    between atoms: C_26  and  C_31
REMARK    9  A    between atoms: C_26  and  C_32
REMARK                            x       y       z     vdW  Elec       q    Type
REMARK                         _______ _______ _______ _____ _____    ______ ____
ROOT
ATOM      1  O   UNL     1      -5.733 -16.890  15.519  0.00  0.00    -0.275 OA
ATOM      3  O   UNL     1      -6.556 -10.252  18.483  0.00  0.00    -0.253 OA
ATOM      5  N   UNL     1      -5.548 -14.692  16.251  0.00  0.00    -0.287 N 
ATOM      6  N   UNL     1      -6.745 -12.247  17.310  0.00  0.00    -0.282 N 
ATOM      8  N   UNL     1      -8.471 -10.640  17.267  0.00  0.00    -0.297 N 
ATOM     14  C   UNL     1      -4.722 -13.555  16.684  0.00  0.00    +0.179 C 
ATOM     18  C   UNL     1      -5.038 -15.901  15.766  0.00  0.00    +0.219 C 
ATOM     19  C   UNL     1      -6.989 -14.586  16.483  0.00  0.00    +0.127 C 
ATOM     20  C   UNL     1      -5.422 -12.707  17.747  0.00  0.00    +0.141 C 
ATOM     21  C   UNL     1      -7.498 -13.151  16.431  0.00  0.00    +0.128 C 
ATOM     23  C   UNL     1      -7.211 -10.992  17.743  0.00  0.00    +0.303 C 
ATOM     39  H   UNL     1      -8.914 -11.197  16.546  0.00  0.00    +0.150 HD
ENDROOT
BRANCH  18  11
ATOM     11  C   UNL     1      -3.555 -15.975  15.556  0.00  0.00    +0.075 C 
ATOM     12  C   UNL     1      -2.994 -17.223  16.241  0.00  0.00    +0.013 C 
ATOM     13  C   UNL     1      -3.238 -15.966  14.060  0.00  0.00    +0.013 C 
ATOM     15  C   UNL     1      -1.499 -17.389  15.974  0.00  0.00    +0.001 C 
ATOM     16  C   UNL     1      -1.744 -16.134  13.798  0.00  0.00    +0.001 C 
ATOM     17  C   UNL     1      -1.190 -17.382  14.480  0.00  0.00    +0.000 C 
ENDBRANCH  18  11
BRANCH  14  22
ATOM      2  O   UNL     1      -5.233 -12.558  14.571  0.00  0.00    -0.274 OA
ATOM      7  N   UNL     1      -3.133 -12.196  15.508  0.00  0.00    -0.302 N 
ATOM     22  C   UNL     1      -4.415 -12.717  15.473  0.00  0.00    +0.236 C 
ATOM     38  H   UNL     1      -2.551 -12.357  16.321  0.00  0.00    +0.150 HD
BRANCH   7  24
ATOM     24  C   UNL     1      -2.585 -11.375  14.453  0.00  0.00    +0.163 C 
BRANCH  24  28
ATOM      4  O   UNL     1      -1.208 -10.521  16.264  0.00  0.00    -0.274 OA
ATOM     10  N   UNL     1      -1.099  -9.483  14.218  0.00  0.00    -0.328 N 
ATOM     28  C   UNL     1      -1.582 -10.428  15.097  0.00  0.00    +0.231 C 
ATOM     41  H   UNL     1      -1.401  -9.433  13.250  0.00  0.00    +0.145 HD
ATOM     42  H   UNL     1      -0.413  -8.798  14.516  0.00  0.00    +0.145 HD
ENDBRANCH  24  28
BRANCH  24  25
ATOM     25  C   UNL     1      -1.907 -12.210  13.359  0.00  0.00    +0.069 C 
BRANCH  25  27
ATOM      9  N   UNL     1      -3.952 -13.151  10.453  0.00  0.00    -0.360 N 
ATOM     27  C   UNL     1      -2.727 -12.316  12.105  0.00  0.00    -0.020 A 
ATOM     29  C   UNL     1      -3.063 -11.254  11.219  0.00  0.00    +0.003 A 
ATOM     30  C   UNL     1      -3.287 -13.469  11.607  0.00  0.00    +0.087 A 
ATOM     33  C   UNL     1      -3.833 -11.806  10.192  0.00  0.00    +0.047 A 
ATOM     34  C   UNL     1      -2.787  -9.873  11.193  0.00  0.00    +0.010 A 
ATOM     35  C   UNL     1      -4.341 -11.041   9.136  0.00  0.00    +0.026 A 
ATOM     36  C   UNL     1      -3.289  -9.096  10.142  0.00  0.00    +0.001 A 
ATOM     37  C   UNL     1      -4.053  -9.674   9.130  0.00  0.00    +0.002 A 
ATOM     40  H   UNL     1      -4.457 -13.810   9.876  0.00  0.00    +0.165 HD
ENDBRANCH  25  27
ENDBRANCH  24  25
ENDBRANCH   7  24
ENDBRANCH  14  22
BRANCH   8  26
ATOM     26  C   UNL     1      -9.101  -9.384  17.603  0.00  0.00    +0.068 C 
ATOM     31  C   UNL     1      -9.252  -8.512  16.363  0.00  0.00    +0.027 C 
ATOM     32  C   UNL     1     -10.447  -9.630  18.272  0.00  0.00    +0.027 C 
ENDBRANCH   8  26
TORSDOF 7
ENDMDL
MODEL 2
REMARK VINA RESULT:      -7.0      3.811      7.878
REMARK  Name = 7165013
REMARK  9 active torsions:
REMARK  status: ('A' for Active; 'I' for Inactive)
REMARK    1  A    between atoms: N_7  and  C_24
REMARK    2  A    between atoms: N_8  and  C_26
REMARK    3  A    between atoms: C_11  and  C_18
REMARK    4  A    between atoms: C_14  and  C_22
REMARK    5  A    between atoms: C_24  and  C_25
REMARK    6  A    between atoms: C_24  and  C_28
REMARK    7  A    between atoms: C_25  and  C_27
REMARK    8  A    between atoms: C_26  and  C_31
REMARK    9  A    between atoms: C_26  and  C_32
REMARK                            x       y       z     vdW  Elec       q    Type
REMARK                         _______ _______ _______ _____ _____    ______ ____
ROOT
ATOM      1  O   UNL     1      -2.190  -9.733  10.909  0.00  0.00    -0.275 OA
ATOM      3  O   UNL     1      -9.219  -9.429   8.900  0.00  0.00    -0.253 OA
ATOM      5  N   UNL     1      -4.504  -9.847  10.718  0.00  0.00    -0.287 N 
ATOM      6  N   UNL     1      -7.003  -9.013   9.457  0.00  0.00    -0.282 N 
ATOM      8  N   UNL     1      -8.395  -7.296   8.634  0.00  0.00    -0.297 N 
ATOM     14  C   UNL     1      -5.779 -10.512  11.023  0.00  0.00    +0.179 C 
ATOM     18  C   UNL     1      -3.269 -10.218  11.261  0.00  0.00    +0.219 C 
ATOM     19  C   UNL     1      -4.527  -8.826   9.669  0.00  0.00    +0.127 C 
ATOM     20  C   UNL     1      -6.775 -10.403   9.867  0.00  0.00    +0.141 C 
ATOM     21  C   UNL     1      -5.861  -8.097   9.574  0.00  0.00    +0.128 C 
ATOM     23  C   UNL     1      -8.275  -8.637   8.988  0.00  0.00    +0.303 C 
ATOM     39  H   UNL     1      -7.653  -6.644   8.860  0.00  0.00    +0.150 HD
ENDROOT
BRANCH  18  11
ATOM     11  C   UNL     1      -3.286 -11.277  12.322  0.00  0.00    +0.075 C 
ATOM     12  C   UNL     1      -2.822 -12.611  11.732  0.00  0.00    +0.013 C 
ATOM     13  C   UNL     1      -2.411 -10.850  13.500  0.00  0.00    +0.013 C 
ATOM     15  C   UNL     1      -2.734 -13.699  12.800  0.00  0.00    +0.001 C 
ATOM     16  C   UNL     1      -2.324 -11.942  14.564  0.00  0.00    +0.001 C 
ATOM     17  C   UNL     1      -1.857 -13.269  13.972  0.00  0.00    +0.000 C 
ENDBRANCH  18  11
BRANCH  14  22
ATOM      2  O   UNL     1      -5.740  -9.011  12.884  0.00  0.00    -0.274 OA
ATOM      7  N   UNL     1      -7.589 -10.395  12.593  0.00  0.00    -0.302 N 
ATOM     22  C   UNL     1      -6.350  -9.875  12.260  0.00  0.00    +0.236 C 
ATOM     38  H   UNL     1      -8.023 -11.080  11.984  0.00  0.00    +0.150 HD
BRANCH   7  24
ATOM     24  C   UNL     1      -8.340  -9.968  13.751  0.00  0.00    +0.163 C 
BRANCH  24  28
ATOM      4  O   UNL     1     -10.598  -9.101  13.989  0.00  0.00    -0.274 OA
ATOM     10  N   UNL     1      -9.924  -9.857  11.928  0.00  0.00    -0.328 N 
ATOM     28  C   UNL     1      -9.738  -9.606  13.270  0.00  0.00    +0.231 C 
ATOM     41  H   UNL     1      -9.196 -10.253  11.341  0.00  0.00    +0.145 HD
ATOM     42  H   UNL     1     -10.807  -9.647  11.476  0.00  0.00    +0.145 HD
ENDBRANCH  24  28
BRANCH  24  25
ATOM     25  C   UNL     1      -8.410 -11.055  14.831  0.00  0.00    +0.069 C 
BRANCH  25  27
ATOM      9  N   UNL     1      -7.667  -9.516  18.085  0.00  0.00    -0.360 N 
ATOM     27  C   UNL     1      -7.879 -10.600  16.160  0.00  0.00    -0.020 A 
ATOM     29  C   UNL     1      -6.703 -11.071  16.809  0.00  0.00    +0.003 A 
ATOM     30  C   UNL     1      -8.449  -9.644  16.968  0.00  0.00    +0.087 A 
ATOM     33  C   UNL     1      -6.594 -10.374  18.015  0.00  0.00    +0.047 A 
ATOM     34  C   UNL     1      -5.719 -12.026  16.486  0.00  0.00    +0.010 A 
ATOM     35  C   UNL     1      -5.545 -10.587  18.917  0.00  0.00    +0.026 A 
ATOM     36  C   UNL     1      -4.664 -12.249  17.379  0.00  0.00    +0.001 A 
ATOM     37  C   UNL     1      -4.581 -11.539  18.575  0.00  0.00    +0.002 A 
ATOM     40  H   UNL     1      -7.851  -8.881  18.850  0.00  0.00    +0.165 HD
ENDBRANCH  25  27
ENDBRANCH  24  25
ENDBRANCH   7  24
ENDBRANCH  14  22
BRANCH   8  26
ATOM     26  C   UNL     1      -9.632  -6.734   8.140  0.00  0.00    +0.068 C 
ATOM     31  C   UNL     1      -9.780  -5.287   8.590  0.00  0.00    +0.027 C 
ATOM     32  C   UNL     1      -9.697  -6.850   6.623  0.00  0.00    +0.027 C 
ENDBRANCH   8  26
TORSDOF 7
ENDMDL
MODEL 3
REMARK VINA RESULT:      -6.9      3.628      6.296
REMARK  Name = 7165013
REMARK  9 active torsions:
REMARK  status: ('A' for Active; 'I' for Inactive)
REMARK    1  A    between atoms: N_7  and  C_24
REMARK    2  A    between atoms: N_8  and  C_26
REMARK    3  A    between atoms: C_11  and  C_18
REMARK    4  A    between atoms: C_14  and  C_22
REMARK    5  A    between atoms: C_24  and  C_25
REMARK    6  A    between atoms: C_24  and  C_28
REMARK    7  A    between atoms: C_25  and  C_27
REMARK    8  A    between atoms: C_26  and  C_31
REMARK    9  A    between atoms: C_26  and  C_32
REMARK                            x       y       z     vdW  Elec       q    Type
REMARK                         _______ _______ _______ _____ _____    ______ ____
ROOT
ATOM      1  O   UNL     1      -8.969 -11.624  20.096  0.00  0.00    -0.275 OA
ATOM      3  O   UNL     1     -11.374  -6.349  15.633  0.00  0.00    -0.253 OA
ATOM      5  N   UNL     1      -9.376 -10.120  18.372  0.00  0.00    -0.287 N 
ATOM      6  N   UNL     1     -11.104  -8.184  17.030  0.00  0.00    -0.282 N 
ATOM      8  N   UNL     1     -13.233  -7.572  16.221  0.00  0.00    -0.297 N 
ATOM     14  C   UNL     1      -8.894  -9.311  17.243  0.00  0.00    +0.179 C 
ATOM     18  C   UNL     1      -8.592 -11.039  19.077  0.00  0.00    +0.219 C 
ATOM     19  C   UNL     1     -10.723  -9.828  18.865  0.00  0.00    +0.127 C 
ATOM     20  C   UNL     1      -9.652  -7.988  17.118  0.00  0.00    +0.141 C 
ATOM     21  C   UNL     1     -11.660  -9.320  17.777  0.00  0.00    +0.128 C 
ATOM     23  C   UNL     1     -11.869  -7.297  16.251  0.00  0.00    +0.303 C 
ATOM     39  H   UNL     1     -13.584  -8.438  16.612  0.00  0.00    +0.150 HD
ENDROOT
BRANCH  18  11
ATOM     11  C   UNL     1      -7.213 -11.299  18.549  0.00  0.00    +0.075 C 
ATOM     12  C   UNL     1      -6.172 -10.930  19.608  0.00  0.00    +0.013 C 
ATOM     13  C   UNL     1      -7.085 -12.762  18.123  0.00  0.00    +0.013 C 
ATOM     15  C   UNL     1      -4.755 -11.266  19.147  0.00  0.00    +0.001 C 
ATOM     16  C   UNL     1      -5.667 -13.095  17.666  0.00  0.00    +0.001 C 
ATOM     17  C   UNL     1      -4.633 -12.728  18.726  0.00  0.00    +0.000 C 
ENDBRANCH  18  11
BRANCH  14  22
ATOM      2  O   UNL     1      -9.487 -11.273  16.011  0.00  0.00    -0.274 OA
ATOM      7  N   UNL     1      -8.656  -9.429  14.858  0.00  0.00    -0.302 N 
ATOM     22  C   UNL     1      -9.059 -10.122  15.987  0.00  0.00    +0.236 C 
ATOM     38  H   UNL     1      -8.355  -8.465  14.946  0.00  0.00    +0.150 HD
BRANCH   7  24
ATOM     24  C   UNL     1      -8.692  -9.993  13.529  0.00  0.00    +0.163 C 
BRANCH  24  28
ATOM      4  O   UNL     1     -10.942  -9.075  13.505  0.00  0.00    -0.274 OA
ATOM     10  N   UNL     1      -9.950  -9.603  11.502  0.00  0.00    -0.328 N 
ATOM     28  C   UNL     1      -9.984  -9.522  12.877  0.00  0.00    +0.231 C 
ATOM     41  H   UNL     1      -9.142  -9.954  10.996  0.00  0.00    +0.145 HD
ATOM     42  H   UNL     1     -10.743  -9.308  10.942  0.00  0.00    +0.145 HD
ENDBRANCH  24  28
BRANCH  24  25
ATOM     25  C   UNL     1      -7.483  -9.572  12.685  0.00  0.00    +0.069 C 
BRANCH  25  27
ATOM      9  N   UNL     1      -5.055 -12.262  12.066  0.00  0.00    -0.360 N 
ATOM     27  C   UNL     1      -6.380 -10.593  12.685  0.00  0.00    -0.020 A 
ATOM     29  C   UNL     1      -5.400 -10.782  13.699  0.00  0.00    +0.003 A 
ATOM     30  C   UNL     1      -6.142 -11.517  11.695  0.00  0.00    +0.087 A 
ATOM     33  C   UNL     1      -4.581 -11.836  13.285  0.00  0.00    +0.047 A 
ATOM     34  C   UNL     1      -5.130 -10.158  14.932  0.00  0.00    +0.010 A 
ATOM     35  C   UNL     1      -3.501 -12.296  14.046  0.00  0.00    +0.026 A 
ATOM     36  C   UNL     1      -4.052 -10.607  15.705  0.00  0.00    +0.001 A 
ATOM     37  C   UNL     1      -3.252 -11.661  15.267  0.00  0.00    +0.002 A 
ATOM     40  H   UNL     1      -4.658 -13.017  11.523  0.00  0.00    +0.165 HD
ENDBRANCH  25  27
ENDBRANCH  24  25
ENDBRANCH   7  24
ENDBRANCH  14  22
BRANCH   8  26
ATOM     26  C   UNL     1     -14.168  -6.770  15.465  0.00  0.00    +0.068 C 
ATOM     31  C   UNL     1     -14.261  -7.268  14.029  0.00  0.00    +0.027 C 
ATOM     32  C   UNL     1     -15.533  -6.771  16.140  0.00  0.00    +0.027 C 
ENDBRANCH   8  26
TORSDOF 7
ENDMDL
MODEL 4
REMARK VINA RESULT:      -6.8     26.911     29.881
REMARK  Name = 7165013
REMARK  9 active torsions:
REMARK  status: ('A' for Active; 'I' for Inactive)
REMARK    1  A    between atoms: N_7  and  C_24
REMARK    2  A    between atoms: N_8  and  C_26
REMARK    3  A    between atoms: C_11  and  C_18
REMARK    4  A    between atoms: C_14  and  C_22
REMARK    5  A    between atoms: C_24  and  C_25
REMARK    6  A    between atoms: C_24  and  C_28
REMARK    7  A    between atoms: C_25  and  C_27
REMARK    8  A    between atoms: C_26  and  C_31
REMARK    9  A    between atoms: C_26  and  C_32
REMARK                            x       y       z     vdW  Elec       q    Type
REMARK                         _______ _______ _______ _____ _____    ______ ____
ROOT
ATOM      1  O   UNL     1      12.797   6.999  21.496  0.00  0.00    -0.275 OA
ATOM      3  O   UNL     1      12.978  13.959  23.746  0.00  0.00    -0.253 OA
ATOM      5  N   UNL     1      13.185   9.265  21.838  0.00  0.00    -0.287 N 
ATOM      6  N   UNL     1      12.413  11.842  22.977  0.00  0.00    -0.282 N 
ATOM      8  N   UNL     1      10.756  13.466  23.403  0.00  0.00    -0.297 N 
ATOM     14  C   UNL     1      14.082  10.429  21.787  0.00  0.00    +0.179 C 
ATOM     18  C   UNL     1      13.506   7.997  21.342  0.00  0.00    +0.219 C 
ATOM     19  C   UNL     1      11.937   9.426  22.587  0.00  0.00    +0.127 C 
ATOM     20  C   UNL     1      13.815  11.411  22.929  0.00  0.00    +0.141 C 
ATOM     21  C   UNL     1      11.407  10.854  22.563  0.00  0.00    +0.128 C 
ATOM     23  C   UNL     1      12.112  13.148  23.403  0.00  0.00    +0.303 C 
ATOM     39  H   UNL     1      10.089  12.835  22.976  0.00  0.00    +0.150 HD
ENDROOT
BRANCH  18  11
ATOM     11  C   UNL     1      14.800   7.870  20.595  0.00  0.00    +0.075 C 
ATOM     12  C   UNL     1      15.963   7.759  21.583  0.00  0.00    +0.013 C 
ATOM     13  C   UNL     1      14.744   6.663  19.657  0.00  0.00    +0.013 C 
ATOM     15  C   UNL     1      17.292   7.534  20.866  0.00  0.00    +0.001 C 
ATOM     16  C   UNL     1      16.076   6.440  18.945  0.00  0.00    +0.001 C 
ATOM     17  C   UNL     1      17.232   6.327  19.934  0.00  0.00    +0.000 C 
ENDBRANCH  18  11
BRANCH  14  22
ATOM      2  O   UNL     1      12.768  11.428  20.057  0.00  0.00    -0.274 OA
ATOM      7  N   UNL     1      15.076  11.297  19.784  0.00  0.00    -0.302 N 
ATOM     22  C   UNL     1      13.883  11.110  20.462  0.00  0.00    +0.236 C 
ATOM     38  H   UNL     1      15.948  11.033  20.227  0.00  0.00    +0.150 HD
BRANCH   7  24
ATOM     24  C   UNL     1      15.156  11.908  18.477  0.00  0.00    +0.163 C 
BRANCH  24  28
ATOM      4  O   UNL     1      17.445  12.668  18.180  0.00  0.00    -0.274 OA
ATOM     10  N   UNL     1      15.882  14.165  18.947  0.00  0.00    -0.328 N 
ATOM     28  C   UNL     1      16.292  12.920  18.524  0.00  0.00    +0.231 C 
ATOM     41  H   UNL     1      14.920  14.364  19.206  0.00  0.00    +0.145 HD
ATOM     42  H   UNL     1      16.538  14.936  19.011  0.00  0.00    +0.145 HD
ENDBRANCH  24  28
BRANCH  24  25
ATOM     25  C   UNL     1      15.400  10.879  17.367  0.00  0.00    +0.069 C 
BRANCH  25  27
ATOM      9  N   UNL     1      12.806  10.827  14.764  0.00  0.00    -0.360 N 
ATOM     27  C   UNL     1      14.206  10.674  16.479  0.00  0.00    -0.020 A 
ATOM     29  C   UNL     1      13.083   9.843  16.747  0.00  0.00    +0.003 A 
ATOM     30  C   UNL     1      14.007  11.266  15.253  0.00  0.00    +0.087 A 
ATOM     33  C   UNL     1      12.219   9.957  15.654  0.00  0.00    +0.047 A 
ATOM     34  C   UNL     1      12.716   9.003  17.816  0.00  0.00    +0.010 A 
ATOM     35  C   UNL     1      11.003   9.269  15.578  0.00  0.00    +0.026 A 
ATOM     36  C   UNL     1      11.502   8.308  17.754  0.00  0.00    +0.001 A 
ATOM     37  C   UNL     1      10.660   8.442  16.651  0.00  0.00    +0.002 A 
ATOM     40  H   UNL     1      12.407  11.103  13.877  0.00  0.00    +0.165 HD
ENDBRANCH  25  27
ENDBRANCH  24  25
ENDBRANCH   7  24
ENDBRANCH  14  22
BRANCH   8  26
ATOM     26  C   UNL     1      10.266  14.765  23.803  0.00  0.00    +0.068 C 
ATOM     31  C   UNL     1       8.880  15.015  23.225  0.00  0.00    +0.027 C 
ATOM     32  C   UNL     1      10.262  14.885  25.321  0.00  0.00    +0.027 C 
ENDBRANCH   8  26
TORSDOF 7
ENDMDL
MODEL 5
REMARK VINA RESULT:      -6.8     24.027     29.099
REMARK  Name = 7165013
REMARK  9 active torsions:
REMARK  status: ('A' for Active; 'I' for Inactive)
REMARK    1  A    between atoms: N_7  and  C_24
REMARK    2  A    between atoms: N_8  and  C_26
REMARK    3  A    between atoms: C_11  and  C_18
REMARK    4  A    between atoms: C_14  and  C_22
REMARK    5  A    between atoms: C_24  and  C_25
REMARK    6  A    between atoms: C_24  and  C_28
REMARK    7  A    between atoms: C_25  and  C_27
REMARK    8  A    between atoms: C_26  and  C_31
REMARK    9  A    between atoms: C_26  and  C_32
REMARK                            x       y       z     vdW  Elec       q    Type
REMARK                         _______ _______ _______ _____ _____    ______ ____
ROOT
ATOM      1  O   UNL     1      16.910   8.795   1.575  0.00  0.00    -0.275 OA
ATOM      3  O   UNL     1      13.217   2.646   0.135  0.00  0.00    -0.253 OA
ATOM      5  N   UNL     1      15.490   6.956   1.538  0.00  0.00    -0.287 N 
ATOM      6  N   UNL     1      14.227   4.737   0.120  0.00  0.00    -0.282 N 
ATOM      8  N   UNL     1      13.104   3.913  -1.784  0.00  0.00    -0.297 N 
ATOM     14  C   UNL     1      14.693   5.944   2.246  0.00  0.00    +0.179 C 
ATOM     18  C   UNL     1      16.147   8.022   2.161  0.00  0.00    +0.219 C 
ATOM     19  C   UNL     1      15.717   6.735   0.109  0.00  0.00    +0.127 C 
ATOM     20  C   UNL     1      14.678   4.604   1.509  0.00  0.00    +0.141 C 
ATOM     21  C   UNL     1      14.575   5.987  -0.568  0.00  0.00    +0.128 C 
ATOM     23  C   UNL     1      13.497   3.687  -0.468  0.00  0.00    +0.303 C 
ATOM     39  H   UNL     1      13.216   4.831  -2.196  0.00  0.00    +0.150 HD
ENDROOT
BRANCH  18  11
ATOM     11  C   UNL     1      15.901   8.206   3.629  0.00  0.00    +0.075 C 
ATOM     12  C   UNL     1      17.231   8.183   4.386  0.00  0.00    +0.013 C 
ATOM     13  C   UNL     1      15.140   9.509   3.872  0.00  0.00    +0.013 C 
ATOM     15  C   UNL     1      17.036   8.459   5.875  0.00  0.00    +0.001 C 
ATOM     16  C   UNL     1      14.951   9.783   5.361  0.00  0.00    +0.001 C 
ATOM     17  C   UNL     1      16.279   9.762   6.112  0.00  0.00    +0.000 C 
ENDBRANCH  18  11
BRANCH  14  22
ATOM      2  O   UNL     1      13.003   7.628   2.089  0.00  0.00    -0.274 OA
ATOM      7  N   UNL     1      12.422   5.524   2.897  0.00  0.00    -0.302 N 
ATOM     22  C   UNL     1      13.292   6.472   2.387  0.00  0.00    +0.236 C 
ATOM     38  H   UNL     1      12.757   4.583   3.072  0.00  0.00    +0.150 HD
BRANCH   7  24
ATOM     24  C   UNL     1      11.024   5.787   3.149  0.00  0.00    +0.163 C 
BRANCH  24  28
ATOM      4  O   UNL     1      10.106   4.306   1.454  0.00  0.00    -0.274 OA
ATOM     10  N   UNL     1       9.737   6.564   1.256  0.00  0.00    -0.328 N 
ATOM     28  C   UNL     1      10.267   5.451   1.872  0.00  0.00    +0.231 C 
ATOM     41  H   UNL     1       9.860   7.502   1.625  0.00  0.00    +0.145 HD
ATOM     42  H   UNL     1       9.197   6.480   0.402  0.00  0.00    +0.145 HD
ENDBRANCH  24  28
BRANCH  24  25
ATOM     25  C   UNL     1      10.480   4.966   4.325  0.00  0.00    +0.069 C 
BRANCH  25  27
ATOM      9  N   UNL     1       9.423   7.572   6.692  0.00  0.00    -0.360 N 
ATOM     27  C   UNL     1      10.037   5.816   5.481  0.00  0.00    -0.020 A 
ATOM     29  C   UNL     1       9.777   5.373   6.809  0.00  0.00    +0.003 A 
ATOM     30  C   UNL     1       9.811   7.172   5.442  0.00  0.00    +0.087 A 
ATOM     33  C   UNL     1       9.394   6.495   7.547  0.00  0.00    +0.047 A 
ATOM     34  C   UNL     1       9.831   4.122   7.454  0.00  0.00    +0.010 A 
ATOM     35  C   UNL     1       9.060   6.427   8.905  0.00  0.00    +0.026 A 
ATOM     36  C   UNL     1       9.500   4.038   8.812  0.00  0.00    +0.001 A 
ATOM     37  C   UNL     1       9.122   5.175   9.524  0.00  0.00    +0.002 A 
ATOM     40  H   UNL     1       9.193   8.522   6.951  0.00  0.00    +0.165 HD
ENDBRANCH  25  27
ENDBRANCH  24  25
ENDBRANCH   7  24
ENDBRANCH  14  22
BRANCH   8  26
ATOM     26  C   UNL     1      12.340   2.945  -2.539  0.00  0.00    +0.068 C 
ATOM     31  C   UNL     1      10.850   3.246  -2.442  0.00  0.00    +0.027 C 
ATOM     32  C   UNL     1      12.805   2.921  -3.989  0.00  0.00    +0.027 C 
ENDBRANCH   8  26
TORSDOF 7
ENDMDL
MODEL 6
REMARK VINA RESULT:      -6.7     22.982     25.327
REMARK  Name = 7165013
REMARK  9 active torsions:
REMARK  status: ('A' for Active; 'I' for Inactive)
REMARK    1  A    between atoms: N_7  and  C_24
REMARK    2  A    between atoms: N_8  and  C_26
REMARK    3  A    between atoms: C_11  and  C_18
REMARK    4  A    between atoms: C_14  and  C_22
REMARK    5  A    between atoms: C_24  and  C_25
REMARK    6  A    between atoms: C_24  and  C_28
REMARK    7  A    between atoms: C_25  and  C_27
REMARK    8  A    between atoms: C_26  and  C_31
REMARK    9  A    between atoms: C_26  and  C_32
REMARK                            x       y       z     vdW  Elec       q    Type
REMARK                         _______ _______ _______ _____ _____    ______ ____
ROOT
ATOM      1  O   UNL     1      11.509  -5.934  35.514  0.00  0.00    -0.275 OA
ATOM      3  O   UNL     1       5.035  -3.210  37.563  0.00  0.00    -0.253 OA
ATOM      5  N   UNL     1       9.278  -5.512  36.010  0.00  0.00    -0.287 N 
ATOM      6  N   UNL     1       7.222  -3.977  37.404  0.00  0.00    -0.282 N 
ATOM      8  N   UNL     1       6.427  -2.958  39.378  0.00  0.00    -0.297 N 
ATOM     14  C   UNL     1       7.848  -5.708  35.730  0.00  0.00    +0.179 C 
ATOM     18  C   UNL     1      10.313  -6.190  35.357  0.00  0.00    +0.219 C 
ATOM     19  C   UNL     1       9.627  -4.433  36.936  0.00  0.00    +0.127 C 
ATOM     20  C   UNL     1       7.026  -4.454  36.031  0.00  0.00    +0.141 C 
ATOM     21  C   UNL     1       8.555  -4.178  37.987  0.00  0.00    +0.128 C 
ATOM     23  C   UNL     1       6.147  -3.367  38.078  0.00  0.00    +0.303 C 
ATOM     39  H   UNL     1       7.295  -3.236  39.820  0.00  0.00    +0.150 HD
ENDROOT
BRANCH  18  11
ATOM     11  C   UNL     1       9.914  -7.279  34.406  0.00  0.00    +0.075 C 
ATOM     12  C   UNL     1      10.631  -7.090  33.067  0.00  0.00    +0.013 C 
ATOM     13  C   UNL     1      10.222  -8.646  35.019  0.00  0.00    +0.013 C 
ATOM     15  C   UNL     1      10.326  -8.230  32.098  0.00  0.00    +0.001 C 
ATOM     16  C   UNL     1       9.918  -9.782  34.045  0.00  0.00    +0.001 C 
ATOM     17  C   UNL     1      10.638  -9.591  32.714  0.00  0.00    +0.000 C 
ENDBRANCH  18  11
BRANCH  14  22
ATOM      2  O   UNL     1       8.083  -7.396  37.408  0.00  0.00    -0.274 OA
ATOM      7  N   UNL     1       6.065  -7.223  36.260  0.00  0.00    -0.302 N 
ATOM     22  C   UNL     1       7.364  -6.858  36.569  0.00  0.00    +0.236 C 
ATOM     38  H   UNL     1       5.545  -6.684  35.577  0.00  0.00    +0.150 HD
BRANCH   7  24
ATOM     24  C   UNL     1       5.374  -8.314  36.908  0.00  0.00    +0.163 C 
BRANCH  24  28
ATOM      4  O   UNL     1       4.252  -8.328  39.064  0.00  0.00    -0.274 OA
ATOM     10  N   UNL     1       4.224  -6.395  37.823  0.00  0.00    -0.328 N 
ATOM     28  C   UNL     1       4.553  -7.715  38.041  0.00  0.00    +0.231 C 
ATOM     41  H   UNL     1       4.499  -5.896  36.983  0.00  0.00    +0.145 HD
ATOM     42  H   UNL     1       3.689  -5.872  38.507  0.00  0.00    +0.145 HD
ENDBRANCH  24  28
BRANCH  24  25
ATOM     25  C   UNL     1       4.469  -9.085  35.940  0.00  0.00    +0.069 C 
BRANCH  25  27
ATOM      9  N   UNL     1       6.264 -11.546  33.883  0.00  0.00    -0.360 N 
ATOM     27  C   UNL     1       5.236  -9.872  34.916  0.00  0.00    -0.020 A 
ATOM     29  C   UNL     1       5.749  -9.385  33.682  0.00  0.00    +0.003 A 
ATOM     30  C   UNL     1       5.569 -11.204  35.011  0.00  0.00    +0.087 A 
ATOM     33  C   UNL     1       6.390 -10.456  33.053  0.00  0.00    +0.047 A 
ATOM     34  C   UNL     1       5.731  -8.133  33.037  0.00  0.00    +0.010 A 
ATOM     35  C   UNL     1       7.015 -10.335  31.807  0.00  0.00    +0.026 A 
ATOM     36  C   UNL     1       6.352  -7.997  31.790  0.00  0.00    +0.001 A 
ATOM     37  C   UNL     1       6.983  -9.083  31.186  0.00  0.00    +0.002 A 
ATOM     40  H   UNL     1       6.633 -12.467  33.688  0.00  0.00    +0.165 HD
ENDBRANCH  25  27
ENDBRANCH  24  25
ENDBRANCH   7  24
ENDBRANCH  14  22
BRANCH   8  26
ATOM     26  C   UNL     1       5.439  -2.322  40.219  0.00  0.00    +0.068 C 
ATOM     31  C   UNL     1       4.752  -3.350  41.109  0.00  0.00    +0.027 C 
ATOM     32  C   UNL     1       6.081  -1.216  41.047  0.00  0.00    +0.027 C 
ENDBRANCH   8  26
TORSDOF 7
ENDMDL
MODEL 7
REMARK VINA RESULT:      -6.6     25.582     29.723
REMARK  Name = 7165013
REMARK  9 active torsions:
REMARK  status: ('A' for Active; 'I' for Inactive)
REMARK    1  A    between atoms: N_7  and  C_24
REMARK    2  A    between atoms: N_8  and  C_26
REMARK    3  A    between atoms: C_11  and  C_18
REMARK    4  A    between atoms: C_14  and  C_22
REMARK    5  A    between atoms: C_24  and  C_25
REMARK    6  A    between atoms: C_24  and  C_28
REMARK    7  A    between atoms: C_25  and  C_27
REMARK    8  A    between atoms: C_26  and  C_31
REMARK    9  A    between atoms: C_26  and  C_32
REMARK                            x       y       z     vdW  Elec       q    Type
REMARK                         _______ _______ _______ _____ _____    ______ ____
ROOT
ATOM      1  O   UNL     1      11.500   9.257   5.739  0.00  0.00    -0.275 OA
ATOM      3  O   UNL     1      18.140   8.191   2.856  0.00  0.00    -0.253 OA
ATOM      5  N   UNL     1      13.421   8.473   4.691  0.00  0.00    -0.287 N 
ATOM      6  N   UNL     1      16.027   8.944   3.460  0.00  0.00    -0.282 N 
ATOM      8  N   UNL     1      17.392  10.190   1.994  0.00  0.00    -0.297 N 
ATOM     14  C   UNL     1      14.302   7.362   4.306  0.00  0.00    +0.179 C 
ATOM     18  C   UNL     1      12.177   8.318   5.313  0.00  0.00    +0.219 C 
ATOM     19  C   UNL     1      13.958   9.826   4.534  0.00  0.00    +0.127 C 
ATOM     20  C   UNL     1      15.776   7.770   4.304  0.00  0.00    +0.141 C 
ATOM     21  C   UNL     1      14.953   9.944   3.387  0.00  0.00    +0.128 C 
ATOM     23  C   UNL     1      17.253   9.047   2.777  0.00  0.00    +0.303 C 
ATOM     39  H   UNL     1      16.594  10.792   1.831  0.00  0.00    +0.150 HD
ENDROOT
BRANCH  18  11
ATOM     11  C   UNL     1      11.668   6.916   5.468  0.00  0.00    +0.075 C 
ATOM     12  C   UNL     1      10.944   6.770   6.809  0.00  0.00    +0.013 C 
ATOM     13  C   UNL     1      10.753   6.559   4.296  0.00  0.00    +0.013 C 
ATOM     15  C   UNL     1      10.328   5.382   6.969  0.00  0.00    +0.001 C 
ATOM     16  C   UNL     1      10.137   5.173   4.462  0.00  0.00    +0.001 C 
ATOM     17  C   UNL     1       9.414   5.034   5.798  0.00  0.00    +0.000 C 
ENDBRANCH  18  11
BRANCH  14  22
ATOM      2  O   UNL     1      13.344   7.648   2.134  0.00  0.00    -0.274 OA
ATOM      7  N   UNL     1      14.185   5.560   2.726  0.00  0.00    -0.302 N 
ATOM     22  C   UNL     1      13.892   6.897   2.936  0.00  0.00    +0.236 C 
ATOM     38  H   UNL     1      14.677   5.039   3.442  0.00  0.00    +0.150 HD
BRANCH   7  24
ATOM     24  C   UNL     1      13.871   4.865   1.499  0.00  0.00    +0.163 C 
BRANCH  24  28
ATOM      4  O   UNL     1      15.588   3.958   0.038  0.00  0.00    -0.274 OA
ATOM     10  N   UNL     1      15.560   3.301   2.239  0.00  0.00    -0.328 N 
ATOM     28  C   UNL     1      15.074   3.999   1.154  0.00  0.00    +0.231 C 
ATOM     41  H   UNL     1      15.138   3.363   3.160  0.00  0.00    +0.145 HD
ATOM     42  H   UNL     1      16.369   2.697   2.150  0.00  0.00    +0.145 HD
ENDBRANCH  24  28
BRANCH  24  25
ATOM     25  C   UNL     1      12.609   4.002   1.626  0.00  0.00    +0.069 C 
BRANCH  25  27
ATOM      9  N   UNL     1       9.828   5.018  -0.553  0.00  0.00    -0.360 N 
ATOM     27  C   UNL     1      11.607   4.260   0.537  0.00  0.00    -0.020 A 
ATOM     29  C   UNL     1      11.650   3.753  -0.792  0.00  0.00    +0.003 A 
ATOM     30  C   UNL     1      10.476   5.033   0.653  0.00  0.00    +0.087 A 
ATOM     33  C   UNL     1      10.522   4.244  -1.454  0.00  0.00    +0.047 A 
ATOM     34  C   UNL     1      12.542   2.921  -1.497  0.00  0.00    +0.010 A 
ATOM     35  C   UNL     1      10.242   3.944  -2.792  0.00  0.00    +0.026 A 
ATOM     36  C   UNL     1      12.274   2.612  -2.836  0.00  0.00    +0.001 A 
ATOM     37  C   UNL     1      11.141   3.116  -3.471  0.00  0.00    +0.002 A 
ATOM     40  H   UNL     1       8.964   5.504  -0.752  0.00  0.00    +0.165 HD
ENDBRANCH  25  27
ENDBRANCH  24  25
ENDBRANCH   7  24
ENDBRANCH  14  22
BRANCH   8  26
ATOM     26  C   UNL     1      18.582  10.455   1.217  0.00  0.00    +0.068 C 
ATOM     31  C   UNL     1      18.314  10.234  -0.266  0.00  0.00    +0.027 C 
ATOM     32  C   UNL     1      19.082  11.869   1.483  0.00  0.00    +0.027 C 
ENDBRANCH   8  26
TORSDOF 7
ENDMDL
MODEL 8
REMARK VINA RESULT:      -6.6     27.991     30.364
REMARK  Name = 7165013
REMARK  9 active torsions:
REMARK  status: ('A' for Active; 'I' for Inactive)
REMARK    1  A    between atoms: N_7  and  C_24
REMARK    2  A    between atoms: N_8  and  C_26
REMARK    3  A    between atoms: C_11  and  C_18
REMARK    4  A    between atoms: C_14  and  C_22
REMARK    5  A    between atoms: C_24  and  C_25
REMARK    6  A    between atoms: C_24  and  C_28
REMARK    7  A    between atoms: C_25  and  C_27
REMARK    8  A    between atoms: C_26  and  C_31
REMARK    9  A    between atoms: C_26  and  C_32
REMARK                            x       y       z     vdW  Elec       q    Type
REMARK                         _______ _______ _______ _____ _____    ______ ____
ROOT
ATOM      1  O   UNL     1      19.447  -2.112  -5.651  0.00  0.00    -0.275 OA
ATOM      3  O   UNL     1      19.358  -5.221   0.972  0.00  0.00    -0.253 OA
ATOM      5  N   UNL     1      19.128  -3.440  -3.771  0.00  0.00    -0.287 N 
ATOM      6  N   UNL     1      19.901  -4.286  -1.084  0.00  0.00    -0.282 N 
ATOM      8  N   UNL     1      21.579  -4.914   0.450  0.00  0.00    -0.297 N 
ATOM     14  C   UNL     1      18.292  -4.357  -2.982  0.00  0.00    +0.179 C 
ATOM     18  C   UNL     1      18.800  -2.972  -5.048  0.00  0.00    +0.219 C 
ATOM     19  C   UNL     1      20.305  -2.882  -3.103  0.00  0.00    +0.127 C 
ATOM     20  C   UNL     1      18.492  -4.168  -1.478  0.00  0.00    +0.141 C 
ATOM     21  C   UNL     1      20.897  -3.816  -2.056  0.00  0.00    +0.128 C 
ATOM     23  C   UNL     1      20.217  -4.833   0.173  0.00  0.00    +0.303 C 
ATOM     39  H   UNL     1      22.256  -4.730  -0.281  0.00  0.00    +0.150 HD
ENDROOT
BRANCH  18  11
ATOM     11  C   UNL     1      17.579  -3.558  -5.691  0.00  0.00    +0.075 C 
ATOM     12  C   UNL     1      16.774  -2.454  -6.382  0.00  0.00    +0.013 C 
ATOM     13  C   UNL     1      17.984  -4.656  -6.676  0.00  0.00    +0.013 C 
ATOM     15  C   UNL     1      15.570  -3.019  -7.131  0.00  0.00    +0.001 C 
ATOM     16  C   UNL     1      16.777  -5.215  -7.424  0.00  0.00    +0.001 C 
ATOM     17  C   UNL     1      15.979  -4.112  -8.113  0.00  0.00    +0.000 C 
ENDBRANCH  18  11
BRANCH  14  22
ATOM      2  O   UNL     1      19.622  -6.013  -4.079  0.00  0.00    -0.274 OA
ATOM      7  N   UNL     1      17.743  -6.690  -2.883  0.00  0.00    -0.302 N 
ATOM     22  C   UNL     1      18.646  -5.764  -3.378  0.00  0.00    +0.236 C 
ATOM     38  H   UNL     1      16.991  -6.380  -2.279  0.00  0.00    +0.150 HD
BRANCH   7  24
ATOM     24  C   UNL     1      17.845  -8.108  -3.140  0.00  0.00    +0.163 C 
BRANCH  24  28
ATOM      4  O   UNL     1      19.387  -9.731  -2.193  0.00  0.00    -0.274 OA
ATOM     10  N   UNL     1      18.774  -7.923  -0.916  0.00  0.00    -0.328 N 
ATOM     28  C   UNL     1      18.735  -8.698  -2.055  0.00  0.00    +0.231 C 
ATOM     41  H   UNL     1      18.247  -7.059  -0.826  0.00  0.00    +0.145 HD
ATOM     42  H   UNL     1      19.340  -8.194  -0.120  0.00  0.00    +0.145 HD
ENDBRANCH  24  28
BRANCH  24  25
ATOM     25  C   UNL     1      16.476  -8.799  -3.143  0.00  0.00    +0.069 C 
BRANCH  25  27
ATOM      9  N   UNL     1      14.911  -8.970  -6.465  0.00  0.00    -0.360 N 
ATOM     27  C   UNL     1      15.725  -8.614  -4.431  0.00  0.00    -0.020 A 
ATOM     29  C   UNL     1      14.913  -7.501  -4.787  0.00  0.00    +0.003 A 
ATOM     30  C   UNL     1      15.705  -9.500  -5.483  0.00  0.00    +0.087 A 
ATOM     33  C   UNL     1      14.414  -7.751  -6.068  0.00  0.00    +0.047 A 
ATOM     34  C   UNL     1      14.552  -6.302  -4.141  0.00  0.00    +0.010 A 
ATOM     35  C   UNL     1      13.570  -6.857  -6.737  0.00  0.00    +0.026 A 
ATOM     36  C   UNL     1      13.708  -5.399  -4.797  0.00  0.00    +0.001 A 
ATOM     37  C   UNL     1      13.226  -5.674  -6.076  0.00  0.00    +0.002 A 
ATOM     40  H   UNL     1      14.719  -9.411  -7.354  0.00  0.00    +0.165 HD
ENDBRANCH  25  27
ENDBRANCH  24  25
ENDBRANCH   7  24
ENDBRANCH  14  22
BRANCH   8  26
ATOM     26  C   UNL     1      22.086  -5.457   1.690  0.00  0.00    +0.068 C 
ATOM     31  C   UNL     1      23.456  -6.086   1.478  0.00  0.00    +0.027 C 
ATOM     32  C   UNL     1      22.134  -4.375   2.760  0.00  0.00    +0.027 C 
ENDBRANCH   8  26
TORSDOF 7
ENDMDL
MODEL 9
REMARK VINA RESULT:      -6.6     27.602     31.409
REMARK  Name = 7165013
REMARK  9 active torsions:
REMARK  status: ('A' for Active; 'I' for Inactive)
REMARK    1  A    between atoms: N_7  and  C_24
REMARK    2  A    between atoms: N_8  and  C_26
REMARK    3  A    between atoms: C_11  and  C_18
REMARK    4  A    between atoms: C_14  and  C_22
REMARK    5  A    between atoms: C_24  and  C_25
REMARK    6  A    between atoms: C_24  and  C_28
REMARK    7  A    between atoms: C_25  and  C_27
REMARK    8  A    between atoms: C_26  and  C_31
REMARK    9  A    between atoms: C_26  and  C_32
REMARK                            x       y       z     vdW  Elec       q    Type
REMARK                         _______ _______ _______ _____ _____    ______ ____
ROOT
ATOM      1  O   UNL     1      15.343   6.203  18.356  0.00  0.00    -0.275 OA
ATOM      3  O   UNL     1      19.429  10.263  22.867  0.00  0.00    -0.253 OA
ATOM      5  N   UNL     1      16.211   7.737  19.871  0.00  0.00    -0.287 N 
ATOM      6  N   UNL     1      18.297   8.582  21.732  0.00  0.00    -0.282 N 
ATOM      8  N   UNL     1      19.783   8.076  23.493  0.00  0.00    -0.297 N 
ATOM     14  C   UNL     1      16.204   9.076  20.479  0.00  0.00    +0.179 C 
ATOM     18  C   UNL     1      15.262   7.282  18.949  0.00  0.00    +0.219 C 
ATOM     19  C   UNL     1      17.372   6.891  20.152  0.00  0.00    +0.127 C 
ATOM     20  C   UNL     1      17.610   9.542  20.860  0.00  0.00    +0.141 C 
ATOM     21  C   UNL     1      17.992   7.162  21.517  0.00  0.00    +0.128 C 
ATOM     23  C   UNL     1      19.190   9.062  22.708  0.00  0.00    +0.303 C 
ATOM     39  H   UNL     1      19.454   7.120  23.439  0.00  0.00    +0.150 HD
ENDROOT
BRANCH  18  11
ATOM     11  C   UNL     1      14.095   8.184  18.677  0.00  0.00    +0.075 C 
ATOM     12  C   UNL     1      13.918   8.365  17.168  0.00  0.00    +0.013 C 
ATOM     13  C   UNL     1      12.833   7.615  19.326  0.00  0.00    +0.013 C 
ATOM     15  C   UNL     1      12.683   9.202  16.842  0.00  0.00    +0.001 C 
ATOM     16  C   UNL     1      11.601   8.453  18.994  0.00  0.00    +0.001 C 
ATOM     17  C   UNL     1      11.427   8.627  17.489  0.00  0.00    +0.000 C 
ENDBRANCH  18  11
BRANCH  14  22
ATOM      2  O   UNL     1      14.856   7.972  22.117  0.00  0.00    -0.274 OA
ATOM      7  N   UNL     1      15.115  10.282  22.243  0.00  0.00    -0.302 N 
ATOM     22  C   UNL     1      15.327   9.027  21.699  0.00  0.00    +0.236 C 
ATOM     38  H   UNL     1      15.585  11.085  21.843  0.00  0.00    +0.150 HD
BRANCH   7  24
ATOM     24  C   UNL     1      14.289  10.510  23.407  0.00  0.00    +0.163 C 
BRANCH  24  28
ATOM      4  O   UNL     1      14.617  11.876  25.391  0.00  0.00    -0.274 OA
ATOM     10  N   UNL     1      16.277  11.828  23.804  0.00  0.00    -0.328 N 
ATOM     28  C   UNL     1      15.042  11.479  24.308  0.00  0.00    +0.231 C 
ATOM     41  H   UNL     1      16.624  11.473  22.918  0.00  0.00    +0.145 HD
ATOM     42  H   UNL     1      16.888  12.457  24.313  0.00  0.00    +0.145 HD
ENDBRANCH  24  28
BRANCH  24  25
ATOM     25  C   UNL     1      12.913  11.078  23.041  0.00  0.00    +0.069 C 
BRANCH  25  27
ATOM      9  N   UNL     1      13.006  14.561  21.867  0.00  0.00    -0.360 N 
ATOM     27  C   UNL     1      12.992  12.384  22.303  0.00  0.00    -0.020 A 
ATOM     29  C   UNL     1      13.191  12.557  20.904  0.00  0.00    +0.003 A 
ATOM     30  C   UNL     1      12.881  13.634  22.867  0.00  0.00    +0.087 A 
ATOM     33  C   UNL     1      13.195  13.933  20.658  0.00  0.00    +0.047 A 
ATOM     34  C   UNL     1      13.368  11.674  19.821  0.00  0.00    +0.010 A 
ATOM     35  C   UNL     1      13.369  14.470  19.377  0.00  0.00    +0.026 A 
ATOM     36  C   UNL     1      13.543  12.197  18.534  0.00  0.00    +0.001 A 
ATOM     37  C   UNL     1      13.543  13.574  18.319  0.00  0.00    +0.002 A 
ATOM     40  H   UNL     1      12.963  15.562  21.998  0.00  0.00    +0.165 HD
ENDBRANCH  25  27
ENDBRANCH  24  25
ENDBRANCH   7  24
ENDBRANCH  14  22
BRANCH   8  26
ATOM     26  C   UNL     1      20.719   8.388  24.549  0.00  0.00    +0.068 C 
ATOM     31  C   UNL     1      20.402   7.580  25.800  0.00  0.00    +0.027 C 
ATOM     32  C   UNL     1      22.147   8.142  24.080  0.00  0.00    +0.027 C 
ENDBRANCH   8  26
TORSDOF 7
ENDMDL
MODEL 10
REMARK VINA RESULT:      -6.5     19.976     22.769
REMARK  Name = 7165013
REMARK  9 active torsions:
REMARK  status: ('A' for Active; 'I' for Inactive)
REMARK    1  A    between atoms: N_7  and  C_24
REMARK    2  A    between atoms: N_8  and  C_26
REMARK    3  A    between atoms: C_11  and  C_18
REMARK    4  A    between atoms: C_14  and  C_22
REMARK    5  A    between atoms: C_24  and  C_25
REMARK    6  A    between atoms: C_24  and  C_28
REMARK    7  A    between atoms: C_25  and  C_27
REMARK    8  A    between atoms: C_26  and  C_31
REMARK    9  A    between atoms: C_26  and  C_32
REMARK                            x       y       z     vdW  Elec       q    Type
REMARK                         _______ _______ _______ _____ _____    ______ ____
ROOT
ATOM      1  O   UNL     1       9.183 -12.476  31.028  0.00  0.00    -0.275 OA
ATOM      3  O   UNL     1       6.864  -5.982  33.473  0.00  0.00    -0.253 OA
ATOM      5  N   UNL     1       8.048 -10.674  31.959  0.00  0.00    -0.287 N 
ATOM      6  N   UNL     1       8.011  -7.945  32.999  0.00  0.00    -0.282 N 
ATOM      8  N   UNL     1       8.977  -6.264  34.343  0.00  0.00    -0.297 N 
ATOM     14  C   UNL     1       6.789 -10.000  32.306  0.00  0.00    +0.179 C 
ATOM     18  C   UNL     1       8.133 -11.965  31.427  0.00  0.00    +0.219 C 
ATOM     19  C   UNL     1       9.271  -9.875  32.050  0.00  0.00    +0.127 C 
ATOM     20  C   UNL     1       6.902  -8.478  32.199  0.00  0.00    +0.141 C 
ATOM     21  C   UNL     1       9.201  -8.797  33.125  0.00  0.00    +0.128 C 
ATOM     23  C   UNL     1       7.878  -6.677  33.595  0.00  0.00    +0.303 C 
ATOM     39  H   UNL     1       9.725  -6.916  34.547  0.00  0.00    +0.150 HD
ENDROOT
BRANCH  18  11
ATOM     11  C   UNL     1       6.856 -12.746  31.336  0.00  0.00    +0.075 C 
ATOM     12  C   UNL     1       6.317 -12.697  29.904  0.00  0.00    +0.013 C 
ATOM     13  C   UNL     1       7.090 -14.185  31.798  0.00  0.00    +0.013 C 
ATOM     15  C   UNL     1       5.066 -13.557  29.744  0.00  0.00    +0.001 C 
ATOM     16  C   UNL     1       5.837 -15.041  31.633  0.00  0.00    +0.001 C 
ATOM     17  C   UNL     1       5.306 -14.992  30.203  0.00  0.00    +0.000 C 
ENDBRANCH  18  11
BRANCH  14  22
ATOM      2  O   UNL     1       7.020 -11.284  34.309  0.00  0.00    -0.274 OA
ATOM      7  N   UNL     1       5.353  -9.663  34.198  0.00  0.00    -0.302 N 
ATOM     22  C   UNL     1       6.423 -10.394  33.710  0.00  0.00    +0.236 C 
ATOM     38  H   UNL     1       4.957  -8.920  33.634  0.00  0.00    +0.150 HD
BRANCH   7  24
ATOM     24  C   UNL     1       4.792  -9.864  35.515  0.00  0.00    +0.163 C 
BRANCH  24  28
ATOM      4  O   UNL     1       6.304  -8.158  36.358  0.00  0.00    -0.274 OA
ATOM     10  N   UNL     1       4.123  -8.149  37.081  0.00  0.00    -0.328 N 
ATOM     28  C   UNL     1       5.180  -8.657  36.357  0.00  0.00    +0.231 C 
ATOM     41  H   UNL     1       3.195  -8.559  37.052  0.00  0.00    +0.145 HD
ATOM     42  H   UNL     1       4.242  -7.335  37.674  0.00  0.00    +0.145 HD
ENDBRANCH  24  28
BRANCH  24  25
ATOM     25  C   UNL     1       3.268 -10.025  35.479  0.00  0.00    +0.069 C 
BRANCH  25  27
ATOM      9  N   UNL     1       2.068 -13.167  36.963  0.00  0.00    -0.360 N 
ATOM     27  C   UNL     1       2.814 -11.415  35.821  0.00  0.00    -0.020 A 
ATOM     29  C   UNL     1       2.739 -12.526  34.935  0.00  0.00    +0.003 A 
ATOM     30  C   UNL     1       2.395 -11.841  37.061  0.00  0.00    +0.087 A 
ATOM     33  C   UNL     1       2.267 -13.612  35.677  0.00  0.00    +0.047 A 
ATOM     34  C   UNL     1       3.027 -12.712  33.568  0.00  0.00    +0.010 A 
ATOM     35  C   UNL     1       2.070 -14.879  35.117  0.00  0.00    +0.026 A 
ATOM     36  C   UNL     1       2.834 -13.975  32.995  0.00  0.00    +0.001 A 
ATOM     37  C   UNL     1       2.363 -15.040  33.760  0.00  0.00    +0.002 A 
ATOM     40  H   UNL     1       1.729 -13.737  37.726  0.00  0.00    +0.165 HD
ENDBRANCH  25  27
ENDBRANCH  24  25
ENDBRANCH   7  24
ENDBRANCH  14  22
BRANCH   8  26
ATOM     26  C   UNL     1       9.011  -4.994  35.031  0.00  0.00    +0.068 C 
ATOM     31  C   UNL     1       8.241  -5.074  36.342  0.00  0.00    +0.027 C 
ATOM     32  C   UNL     1      10.451  -4.556  35.262  0.00  0.00    +0.027 C 
ENDBRANCH   8  26
TORSDOF 7
ENDMDL
