REMARK  Name = 71693615
REMARK  6 active torsions:
REMARK  status: ('A' for Active; 'I' for Inactive)
REMARK    1  A    between atoms: O_2  and  C_10
REMARK    2  A    between atoms: N_5  and  C_13
REMARK    3  A    between atoms: N_6  and  C_18
REMARK    4  A    between atoms: C_7  and  C_10
REMARK    5  A    between atoms: C_8  and  C_9
REMARK    6  A    between atoms: C_19  and  C_20
REMARK                            x       y       z     vdW  Elec       q    Type
REMARK                         _______ _______ _______ _____ _____    ______ ____
ROOT
ATOM      1  O   UNL     1       1.819  -1.604   0.314  0.00  0.00    -0.361 OA
ATOM      3  O   UNL     1       5.349  -1.119   0.257  0.00  0.00    -0.273 OA
ATOM      5  N   UNL     1       3.659   0.363  -0.359  0.00  0.00    -0.295 N 
ATOM      7  C   UNL     1       2.208   0.605  -0.547  0.00  0.00    +0.134 C 
ATOM      8  C   UNL     1       1.370  -0.252   0.421  0.00  0.00    +0.171 C 
ATOM     11  C   UNL     1       3.125  -1.738   0.821  0.00  0.00    +0.256 C 
ATOM     12  C   UNL     1       4.155  -0.818   0.196  0.00  0.00    +0.242 C 
ATOM     13  C   UNL     1       4.597   1.285  -0.995  0.00  0.00    +0.132 C 
ENDROOT
BRANCH   8   9
ATOM      9  C   UNL     1      -0.115  -0.255   0.124  0.00  0.00    -0.017 A 
ATOM     14  C   UNL     1      -1.024   0.130   1.111  0.00  0.00    +0.008 A 
ATOM     15  C   UNL     1      -0.575  -0.641  -1.135  0.00  0.00    +0.008 A 
ATOM     16  C   UNL     1      -2.392   0.127   0.839  0.00  0.00    +0.023 A 
ATOM     17  C   UNL     1      -1.943  -0.643  -1.407  0.00  0.00    +0.023 A 
ATOM     18  C   UNL     1      -2.851  -0.260  -0.420  0.00  0.00    +0.033 A 
BRANCH  18   6
ATOM      4  O   UNL     1      -5.194   0.470   1.324  0.00  0.00    -0.276 OA
ATOM      6  N   UNL     1      -4.220  -0.262  -0.694  0.00  0.00    -0.286 N 
ATOM     19  C   UNL     1      -5.273   0.087   0.162  0.00  0.00    +0.214 C 
ATOM     20  C   UNL     1      -6.613  -0.051  -0.517  0.00  0.00    +0.109 C 
ATOM     22  H   UNL     1      -4.474  -0.557  -1.634  0.00  0.00    +0.155 HD
ENDBRANCH  18   6
ENDBRANCH   8   9
BRANCH   7  10
ATOM     10  C   UNL     1       1.836   2.089  -0.414  0.00  0.00    +0.181 C 
BRANCH  10   2
ATOM      2  O   UNL     1       2.083   2.487   0.919  0.00  0.00    -0.393 OA
ATOM     21  H   UNL     1       1.834   3.424   0.990  0.00  0.00    +0.209 HD
ENDBRANCH  10   2
ENDBRANCH   7  10
TORSDOF 4
