MODEL 1
REMARK VINA RESULT:      -6.8      0.000      0.000
REMARK  Name = 45783722
REMARK  6 active torsions:
REMARK  status: ('A' for Active; 'I' for Inactive)
REMARK    1  A    between atoms: O_2  and  C_25
REMARK    2  A    between atoms: O_2  and  C_27
REMARK    3  A    between atoms: N_8  and  C_23
REMARK    4  A    between atoms: C_10  and  C_14
REMARK    5  A    between atoms: C_16  and  C_17
REMARK    6  A    between atoms: C_23  and  C_25
REMARK                            x       y       z     vdW  Elec       q    Type
REMARK                         _______ _______ _______ _____ _____    ______ ____
ROOT
ATOM      1  O   UNL     1      12.780   7.413  17.283  0.00  0.00    -0.336 OA
ATOM      4  N   UNL     1      14.188   8.906  18.180  0.00  0.00    -0.190 NA
ATOM      7  N   UNL     1      12.961   8.409  16.315  0.00  0.00    -0.056 NA
ATOM     14  C   UNL     1      13.537   7.783  18.349  0.00  0.00    +0.248 A 
ATOM     16  C   UNL     1      13.803   9.254  16.919  0.00  0.00    +0.205 A 
ENDROOT
BRANCH  14  10
ATOM      3  N   UNL     1      14.615   7.086  20.500  0.00  0.00    -0.288 N 
ATOM      5  N   UNL     1      16.223   6.144  19.116  0.00  0.00    -0.223 NA
ATOM      6  N   UNL     1      16.744   6.789  21.378  0.00  0.00    -0.223 NA
ATOM     10  C   UNL     1      13.515   6.853  19.551  0.00  0.00    +0.165 C 
ATOM     11  C   UNL     1      12.254   7.058  20.409  0.00  0.00    +0.034 C 
ATOM     12  C   UNL     1      12.687   8.061  21.464  0.00  0.00    +0.021 C 
ATOM     13  C   UNL     1      14.130   7.663  21.757  0.00  0.00    +0.109 C 
ATOM     15  C   UNL     1      15.916   6.654  20.324  0.00  0.00    +0.218 A 
ATOM     18  C   UNL     1      18.006   6.359  21.171  0.00  0.00    +0.116 A 
ATOM     19  C   UNL     1      17.500   5.733  18.977  0.00  0.00    +0.116 A 
ATOM     21  C   UNL     1      18.444   5.818  19.980  0.00  0.00    +0.039 A 
ENDBRANCH  14  10
BRANCH  16  17
ATOM      8  N   UNL     1      13.479  11.811  18.112  0.00  0.00    -0.326 N 
ATOM      9  N   UNL     1      14.564  12.852  16.284  0.00  0.00    -0.240 NA
ATOM     17  C   UNL     1      14.278  10.451  16.288  0.00  0.00    +0.062 A 
ATOM     20  C   UNL     1      14.127  11.706  16.855  0.00  0.00    +0.130 A 
ATOM     22  C   UNL     1      14.916  10.366  15.056  0.00  0.00    +0.016 A 
ATOM     24  C   UNL     1      15.378  11.522  14.437  0.00  0.00    +0.020 A 
ATOM     26  C   UNL     1      15.179  12.729  15.087  0.00  0.00    +0.113 A 
ATOM     28  H   UNL     1      12.853  11.051  18.359  0.00  0.00    +0.148 HD
BRANCH   8  23
ATOM     23  C   UNL     1      13.279  13.059  18.772  0.00  0.00    +0.131 C 
BRANCH  23  25
ATOM     25  C   UNL     1      13.275  12.854  20.279  0.00  0.00    +0.178 C 
BRANCH  25   2
ATOM      2  O   UNL     1      13.795  11.566  20.583  0.00  0.00    -0.381 OA
ATOM     27  C   UNL     1      14.232  11.488  21.933  0.00  0.00    +0.194 C 
ENDBRANCH  25   2
ENDBRANCH  23  25
ENDBRANCH   8  23
ENDBRANCH  16  17
TORSDOF 5
ENDMDL
MODEL 2
REMARK VINA RESULT:      -6.5      2.379      5.745
REMARK  Name = 45783722
REMARK  6 active torsions:
REMARK  status: ('A' for Active; 'I' for Inactive)
REMARK    1  A    between atoms: O_2  and  C_25
REMARK    2  A    between atoms: O_2  and  C_27
REMARK    3  A    between atoms: N_8  and  C_23
REMARK    4  A    between atoms: C_10  and  C_14
REMARK    5  A    between atoms: C_16  and  C_17
REMARK    6  A    between atoms: C_23  and  C_25
REMARK                            x       y       z     vdW  Elec       q    Type
REMARK                         _______ _______ _______ _____ _____    ______ ____
ROOT
ATOM      1  O   UNL     1      15.618   6.010  18.203  0.00  0.00    -0.336 OA
ATOM      4  N   UNL     1      15.768   7.772  19.578  0.00  0.00    -0.190 NA
ATOM      7  N   UNL     1      16.795   5.830  18.940  0.00  0.00    -0.056 NA
ATOM     14  C   UNL     1      15.075   7.176  18.641  0.00  0.00    +0.248 A 
ATOM     16  C   UNL     1      16.815   6.910  19.728  0.00  0.00    +0.205 A 
ENDROOT
BRANCH  14  10
ATOM      3  N   UNL     1      12.932   8.457  18.845  0.00  0.00    -0.288 N 
ATOM      5  N   UNL     1      12.298   6.715  20.241  0.00  0.00    -0.223 NA
ATOM      6  N   UNL     1      11.299   8.899  20.436  0.00  0.00    -0.223 NA
ATOM     10  C   UNL     1      13.770   7.602  17.990  0.00  0.00    +0.165 C 
ATOM     11  C   UNL     1      14.010   8.471  16.743  0.00  0.00    +0.034 C 
ATOM     12  C   UNL     1      13.960   9.895  17.272  0.00  0.00    +0.021 C 
ATOM     13  C   UNL     1      12.876   9.833  18.344  0.00  0.00    +0.109 C 
ATOM     15  C   UNL     1      12.142   8.004  19.885  0.00  0.00    +0.218 A 
ATOM     18  C   UNL     1      10.544   8.423  21.448  0.00  0.00    +0.116 A 
ATOM     19  C   UNL     1      11.513   6.305  21.259  0.00  0.00    +0.116 A 
ATOM     21  C   UNL     1      10.609   7.123  21.906  0.00  0.00    +0.039 A 
ENDBRANCH  14  10
BRANCH  16  17
ATOM      8  N   UNL     1      17.004   9.354  21.164  0.00  0.00    -0.326 N 
ATOM      9  N   UNL     1      18.950   8.600  22.280  0.00  0.00    -0.240 NA
ATOM     17  C   UNL     1      17.864   7.155  20.675  0.00  0.00    +0.062 A 
ATOM     20  C   UNL     1      17.972   8.341  21.383  0.00  0.00    +0.130 A 
ATOM     22  C   UNL     1      18.821   6.172  20.901  0.00  0.00    +0.016 A 
ATOM     24  C   UNL     1      19.842   6.402  21.817  0.00  0.00    +0.020 A 
ATOM     26  C   UNL     1      19.862   7.622  22.474  0.00  0.00    +0.113 A 
ATOM     28  H   UNL     1      16.514   9.321  20.275  0.00  0.00    +0.148 HD
BRANCH   8  23
ATOM     23  C   UNL     1      17.033  10.605  21.846  0.00  0.00    +0.131 C 
BRANCH  23  25
ATOM     25  C   UNL     1      15.810  11.429  21.474  0.00  0.00    +0.178 C 
BRANCH  25   2
ATOM      2  O   UNL     1      15.589  11.340  20.072  0.00  0.00    -0.381 OA
ATOM     27  C   UNL     1      16.235  12.398  19.376  0.00  0.00    +0.194 C 
ENDBRANCH  25   2
ENDBRANCH  23  25
ENDBRANCH   8  23
ENDBRANCH  16  17
TORSDOF 5
ENDMDL
MODEL 3
REMARK VINA RESULT:      -6.3      2.812      3.824
REMARK  Name = 45783722
REMARK  6 active torsions:
REMARK  status: ('A' for Active; 'I' for Inactive)
REMARK    1  A    between atoms: O_2  and  C_25
REMARK    2  A    between atoms: O_2  and  C_27
REMARK    3  A    between atoms: N_8  and  C_23
REMARK    4  A    between atoms: C_10  and  C_14
REMARK    5  A    between atoms: C_16  and  C_17
REMARK    6  A    between atoms: C_23  and  C_25
REMARK                            x       y       z     vdW  Elec       q    Type
REMARK                         _______ _______ _______ _____ _____    ______ ____
ROOT
ATOM      1  O   UNL     1      12.643   8.239  16.343  0.00  0.00    -0.336 OA
ATOM      4  N   UNL     1      13.747   9.894  17.373  0.00  0.00    -0.190 NA
ATOM      7  N   UNL     1      13.114   9.084  15.329  0.00  0.00    -0.056 NA
ATOM     14  C   UNL     1      13.060   8.789  17.514  0.00  0.00    +0.248 A 
ATOM     16  C   UNL     1      13.753  10.036  16.016  0.00  0.00    +0.205 A 
ENDROOT
BRANCH  14  10
ATOM      3  N   UNL     1      13.618   8.247  19.895  0.00  0.00    -0.288 N 
ATOM      5  N   UNL     1      15.254   6.893  18.956  0.00  0.00    -0.223 NA
ATOM      6  N   UNL     1      15.483   7.764  21.191  0.00  0.00    -0.223 NA
ATOM     10  C   UNL     1      12.674   8.050  18.784  0.00  0.00    +0.165 C 
ATOM     11  C   UNL     1      11.338   8.557  19.357  0.00  0.00    +0.034 C 
ATOM     12  C   UNL     1      11.750   9.623  20.359  0.00  0.00    +0.021 C 
ATOM     13  C   UNL     1      13.033   9.059  20.964  0.00  0.00    +0.109 C 
ATOM     15  C   UNL     1      14.838   7.607  20.019  0.00  0.00    +0.218 A 
ATOM     18  C   UNL     1      16.670   7.126  21.278  0.00  0.00    +0.116 A 
ATOM     19  C   UNL     1      16.447   6.282  19.110  0.00  0.00    +0.116 A 
ATOM     21  C   UNL     1      17.206   6.365  20.260  0.00  0.00    +0.039 A 
ENDBRANCH  14  10
BRANCH  16  17
ATOM      8  N   UNL     1      12.483  11.570  13.990  0.00  0.00    -0.326 N 
ATOM      9  N   UNL     1      14.398  12.942  13.765  0.00  0.00    -0.240 NA
ATOM     17  C   UNL     1      14.409  11.140  15.376  0.00  0.00    +0.062 A 
ATOM     20  C   UNL     1      13.805  11.898  14.386  0.00  0.00    +0.130 A 
ATOM     22  C   UNL     1      15.705  11.474  15.752  0.00  0.00    +0.016 A 
ATOM     24  C   UNL     1      16.348  12.542  15.136  0.00  0.00    +0.020 A 
ATOM     26  C   UNL     1      15.657  13.238  14.158  0.00  0.00    +0.113 A 
ATOM     28  H   UNL     1      12.184  10.617  14.170  0.00  0.00    +0.148 HD
BRANCH   8  23
ATOM     23  C   UNL     1      11.781  12.293  12.982  0.00  0.00    +0.131 C 
BRANCH  23  25
ATOM     25  C   UNL     1      10.309  11.913  13.000  0.00  0.00    +0.178 C 
BRANCH  25   2
ATOM      2  O   UNL     1       9.648  12.531  11.903  0.00  0.00    -0.381 OA
ATOM     27  C   UNL     1       8.797  13.584  12.335  0.00  0.00    +0.194 C 
ENDBRANCH  25   2
ENDBRANCH  23  25
ENDBRANCH   8  23
ENDBRANCH  16  17
TORSDOF 5
ENDMDL
MODEL 4
REMARK VINA RESULT:      -6.1      2.818      6.146
REMARK  Name = 45783722
REMARK  6 active torsions:
REMARK  status: ('A' for Active; 'I' for Inactive)
REMARK    1  A    between atoms: O_2  and  C_25
REMARK    2  A    between atoms: O_2  and  C_27
REMARK    3  A    between atoms: N_8  and  C_23
REMARK    4  A    between atoms: C_10  and  C_14
REMARK    5  A    between atoms: C_16  and  C_17
REMARK    6  A    between atoms: C_23  and  C_25
REMARK                            x       y       z     vdW  Elec       q    Type
REMARK                         _______ _______ _______ _____ _____    ______ ____
ROOT
ATOM      1  O   UNL     1      14.206   7.009  19.913  0.00  0.00    -0.336 OA
ATOM      4  N   UNL     1      15.569   8.524  20.843  0.00  0.00    -0.190 NA
ATOM      7  N   UNL     1      15.482   6.431  19.923  0.00  0.00    -0.056 NA
ATOM     14  C   UNL     1      14.346   8.240  20.472  0.00  0.00    +0.248 A 
ATOM     16  C   UNL     1      16.230   7.385  20.486  0.00  0.00    +0.205 A 
ENDROOT
BRANCH  14  10
ATOM      3  N   UNL     1      11.975   8.595  19.746  0.00  0.00    -0.288 N 
ATOM      5  N   UNL     1      12.939   9.314  17.761  0.00  0.00    -0.223 NA
ATOM      6  N   UNL     1      10.691   8.446  17.817  0.00  0.00    -0.223 NA
ATOM     10  C   UNL     1      13.086   9.081  20.580  0.00  0.00    +0.165 C 
ATOM     11  C   UNL     1      12.502   9.055  22.003  0.00  0.00    +0.034 C 
ATOM     12  C   UNL     1      11.486   7.926  21.962  0.00  0.00    +0.021 C 
ATOM     13  C   UNL     1      10.892   8.038  20.561  0.00  0.00    +0.109 C 
ATOM     15  C   UNL     1      11.864   8.794  18.383  0.00  0.00    +0.218 A 
ATOM     18  C   UNL     1      10.617   8.653  16.486  0.00  0.00    +0.116 A 
ATOM     19  C   UNL     1      12.796   9.495  16.431  0.00  0.00    +0.116 A 
ATOM     21  C   UNL     1      11.648   9.179  15.734  0.00  0.00    +0.039 A 
ENDBRANCH  14  10
BRANCH  16  17
ATOM      8  N   UNL     1      17.778   9.386  21.779  0.00  0.00    -0.326 N 
ATOM      9  N   UNL     1      19.739   8.079  21.552  0.00  0.00    -0.240 NA
ATOM     17  C   UNL     1      17.639   7.231  20.705  0.00  0.00    +0.062 A 
ATOM     20  C   UNL     1      18.409   8.197  21.333  0.00  0.00    +0.130 A 
ATOM     22  C   UNL     1      18.274   6.071  20.274  0.00  0.00    +0.016 A 
ATOM     24  C   UNL     1      19.640   5.915  20.482  0.00  0.00    +0.020 A 
ATOM     26  C   UNL     1      20.320   6.939  21.120  0.00  0.00    +0.113 A 
ATOM     28  H   UNL     1      16.910   9.633  21.315  0.00  0.00    +0.148 HD
BRANCH   8  23
ATOM     23  C   UNL     1      18.488  10.433  22.435  0.00  0.00    +0.131 C 
BRANCH  23  25
ATOM     25  C   UNL     1      18.827  11.533  21.442  0.00  0.00    +0.178 C 
BRANCH  25   2
ATOM      2  O   UNL     1      20.231  11.550  21.217  0.00  0.00    -0.381 OA
ATOM     27  C   UNL     1      20.950  11.743  22.428  0.00  0.00    +0.194 C 
ENDBRANCH  25   2
ENDBRANCH  23  25
ENDBRANCH   8  23
ENDBRANCH  16  17
TORSDOF 5
ENDMDL
MODEL 5
REMARK VINA RESULT:      -6.0     26.567     29.218
REMARK  Name = 45783722
REMARK  6 active torsions:
REMARK  status: ('A' for Active; 'I' for Inactive)
REMARK    1  A    between atoms: O_2  and  C_25
REMARK    2  A    between atoms: O_2  and  C_27
REMARK    3  A    between atoms: N_8  and  C_23
REMARK    4  A    between atoms: C_10  and  C_14
REMARK    5  A    between atoms: C_16  and  C_17
REMARK    6  A    between atoms: C_23  and  C_25
REMARK                            x       y       z     vdW  Elec       q    Type
REMARK                         _______ _______ _______ _____ _____    ______ ____
ROOT
ATOM      1  O   UNL     1      -6.840 -11.613  16.500  0.00  0.00    -0.336 OA
ATOM      4  N   UNL     1      -5.133 -10.180  16.725  0.00  0.00    -0.190 NA
ATOM      7  N   UNL     1      -6.039 -11.780  15.364  0.00  0.00    -0.056 NA
ATOM     14  C   UNL     1      -6.235 -10.653  17.249  0.00  0.00    +0.248 A 
ATOM     16  C   UNL     1      -5.053 -10.901  15.569  0.00  0.00    +0.205 A 
ENDROOT
BRANCH  14  10
ATOM      3  N   UNL     1      -8.371 -10.509  18.549  0.00  0.00    -0.288 N 
ATOM      5  N   UNL     1      -8.810  -8.690  17.175  0.00  0.00    -0.223 NA
ATOM      6  N   UNL     1     -10.595  -9.935  18.208  0.00  0.00    -0.223 NA
ATOM     10  C   UNL     1      -6.917 -10.283  18.555  0.00  0.00    +0.165 C 
ATOM     11  C   UNL     1      -6.426 -11.156  19.724  0.00  0.00    +0.034 C 
ATOM     12  C   UNL     1      -7.426 -12.299  19.774  0.00  0.00    +0.021 C 
ATOM     13  C   UNL     1      -8.748 -11.624  19.421  0.00  0.00    +0.109 C 
ATOM     15  C   UNL     1      -9.298  -9.675  17.952  0.00  0.00    +0.218 A 
ATOM     18  C   UNL     1     -11.472  -9.103  17.609  0.00  0.00    +0.116 A 
ATOM     19  C   UNL     1      -9.741  -7.895  16.608  0.00  0.00    +0.116 A 
ATOM     21  C   UNL     1     -11.099  -8.057  16.791  0.00  0.00    +0.039 A 
ENDBRANCH  14  10
BRANCH  16  17
ATOM      8  N   UNL     1      -5.510 -10.529  12.790  0.00  0.00    -0.326 N 
ATOM      9  N   UNL     1      -3.184 -10.365  12.383  0.00  0.00    -0.240 NA
ATOM     17  C   UNL     1      -3.976 -10.719  14.640  0.00  0.00    +0.062 A 
ATOM     20  C   UNL     1      -4.180 -10.538  13.282  0.00  0.00    +0.130 A 
ATOM     22  C   UNL     1      -2.666 -10.725  15.106  0.00  0.00    +0.016 A 
ATOM     24  C   UNL     1      -1.615 -10.551  14.212  0.00  0.00    +0.020 A 
ATOM     26  C   UNL     1      -1.925 -10.377  12.873  0.00  0.00    +0.113 A 
ATOM     28  H   UNL     1      -6.203 -11.002  13.362  0.00  0.00    +0.148 HD
BRANCH   8  23
ATOM     23  C   UNL     1      -5.818 -10.348  11.410  0.00  0.00    +0.131 C 
BRANCH  23  25
ATOM     25  C   UNL     1      -6.254  -8.914  11.158  0.00  0.00    +0.178 C 
BRANCH  25   2
ATOM      2  O   UNL     1      -5.147  -8.160  10.681  0.00  0.00    -0.381 OA
ATOM     27  C   UNL     1      -4.617  -8.716   9.485  0.00  0.00    +0.194 C 
ENDBRANCH  25   2
ENDBRANCH  23  25
ENDBRANCH   8  23
ENDBRANCH  16  17
TORSDOF 5
ENDMDL
MODEL 6
REMARK VINA RESULT:      -5.6     26.540     29.106
REMARK  Name = 45783722
REMARK  6 active torsions:
REMARK  status: ('A' for Active; 'I' for Inactive)
REMARK    1  A    between atoms: O_2  and  C_25
REMARK    2  A    between atoms: O_2  and  C_27
REMARK    3  A    between atoms: N_8  and  C_23
REMARK    4  A    between atoms: C_10  and  C_14
REMARK    5  A    between atoms: C_16  and  C_17
REMARK    6  A    between atoms: C_23  and  C_25
REMARK                            x       y       z     vdW  Elec       q    Type
REMARK                         _______ _______ _______ _____ _____    ______ ____
ROOT
ATOM      1  O   UNL     1      -7.513 -10.677  14.707  0.00  0.00    -0.336 OA
ATOM      4  N   UNL     1      -5.445  -9.816  14.703  0.00  0.00    -0.190 NA
ATOM      7  N   UNL     1      -7.117 -10.620  13.365  0.00  0.00    -0.056 NA
ATOM     14  C   UNL     1      -6.471 -10.185  15.428  0.00  0.00    +0.248 A 
ATOM     16  C   UNL     1      -5.888 -10.101  13.444  0.00  0.00    +0.205 A 
ENDROOT
BRANCH  14  10
ATOM      3  N   UNL     1      -8.012 -10.481  17.380  0.00  0.00    -0.288 N 
ATOM      5  N   UNL     1      -8.922  -8.469  16.666  0.00  0.00    -0.223 NA
ATOM      6  N   UNL     1     -10.218 -10.040  17.954  0.00  0.00    -0.223 NA
ATOM     10  C   UNL     1      -6.651 -10.141  16.936  0.00  0.00    +0.165 C 
ATOM     11  C   UNL     1      -5.772 -11.183  17.648  0.00  0.00    +0.034 C 
ATOM     12  C   UNL     1      -6.680 -12.393  17.791  0.00  0.00    +0.021 C 
ATOM     13  C   UNL     1      -8.048 -11.775  18.067  0.00  0.00    +0.109 C 
ATOM     15  C   UNL     1      -9.097  -9.626  17.331  0.00  0.00    +0.218 A 
ATOM     18  C   UNL     1     -11.257  -9.181  17.886  0.00  0.00    +0.116 A 
ATOM     19  C   UNL     1     -10.000  -7.658  16.637  0.00  0.00    +0.116 A 
ATOM     21  C   UNL     1     -11.205  -7.966  17.236  0.00  0.00    +0.039 A 
ENDBRANCH  14  10
BRANCH  16  17
ATOM      8  N   UNL     1      -3.509 -11.567  12.935  0.00  0.00    -0.326 N 
ATOM      9  N   UNL     1      -3.132 -10.349  10.941  0.00  0.00    -0.240 NA
ATOM     17  C   UNL     1      -5.079  -9.855  12.286  0.00  0.00    +0.062 A 
ATOM     20  C   UNL     1      -3.915 -10.560  12.023  0.00  0.00    +0.130 A 
ATOM     22  C   UNL     1      -5.463  -8.871  11.382  0.00  0.00    +0.016 A 
ATOM     24  C   UNL     1      -4.683  -8.626  10.258  0.00  0.00    +0.020 A 
ATOM     26  C   UNL     1      -3.537  -9.386  10.085  0.00  0.00    +0.113 A 
ATOM     28  H   UNL     1      -3.863 -11.482  13.883  0.00  0.00    +0.148 HD
BRANCH   8  23
ATOM     23  C   UNL     1      -2.329 -12.343  12.747  0.00  0.00    +0.131 C 
BRANCH  23  25
ATOM     25  C   UNL     1      -1.538 -12.410  14.044  0.00  0.00    +0.178 C 
BRANCH  25   2
ATOM      2  O   UNL     1      -2.252 -11.729  15.069  0.00  0.00    -0.381 OA
ATOM     27  C   UNL     1      -1.412 -10.823  15.772  0.00  0.00    +0.194 C 
ENDBRANCH  25   2
ENDBRANCH  23  25
ENDBRANCH   8  23
ENDBRANCH  16  17
TORSDOF 5
ENDMDL
MODEL 7
REMARK VINA RESULT:      -5.5     14.279     17.338
REMARK  Name = 45783722
REMARK  6 active torsions:
REMARK  status: ('A' for Active; 'I' for Inactive)
REMARK    1  A    between atoms: O_2  and  C_25
REMARK    2  A    between atoms: O_2  and  C_27
REMARK    3  A    between atoms: N_8  and  C_23
REMARK    4  A    between atoms: C_10  and  C_14
REMARK    5  A    between atoms: C_16  and  C_17
REMARK    6  A    between atoms: C_23  and  C_25
REMARK                            x       y       z     vdW  Elec       q    Type
REMARK                         _______ _______ _______ _____ _____    ______ ____
ROOT
ATOM      1  O   UNL     1      11.369   7.013   4.216  0.00  0.00    -0.336 OA
ATOM      4  N   UNL     1      10.476   5.638   2.690  0.00  0.00    -0.190 NA
ATOM      7  N   UNL     1      12.432   6.578   3.415  0.00  0.00    -0.056 NA
ATOM     14  C   UNL     1      10.254   6.413   3.722  0.00  0.00    +0.248 A 
ATOM     16  C   UNL     1      11.825   5.770   2.539  0.00  0.00    +0.205 A 
ENDROOT
BRANCH  14  10
ATOM      3  N   UNL     1       9.106   7.058   5.852  0.00  0.00    -0.288 N 
ATOM      5  N   UNL     1       9.544   4.865   6.476  0.00  0.00    -0.223 NA
ATOM      6  N   UNL     1       9.239   6.597   8.124  0.00  0.00    -0.223 NA
ATOM     10  C   UNL     1       8.946   6.728   4.427  0.00  0.00    +0.165 C 
ATOM     11  C   UNL     1       8.270   7.981   3.844  0.00  0.00    +0.034 C 
ATOM     12  C   UNL     1       8.769   9.112   4.728  0.00  0.00    +0.021 C 
ATOM     13  C   UNL     1       8.835   8.474   6.112  0.00  0.00    +0.109 C 
ATOM     15  C   UNL     1       9.304   6.133   6.861  0.00  0.00    +0.218 A 
ATOM     18  C   UNL     1       9.438   5.668   9.083  0.00  0.00    +0.116 A 
ATOM     19  C   UNL     1       9.734   3.989   7.485  0.00  0.00    +0.116 A 
ATOM     21  C   UNL     1       9.692   4.338   8.820  0.00  0.00    +0.039 A 
ENDBRANCH  14  10
BRANCH  16  17
ATOM      8  N   UNL     1      11.137   6.054  -0.203  0.00  0.00    -0.326 N 
ATOM      9  N   UNL     1      12.870   4.572  -0.837  0.00  0.00    -0.240 NA
ATOM     17  C   UNL     1      12.539   5.083   1.502  0.00  0.00    +0.062 A 
ATOM     20  C   UNL     1      12.216   5.208   0.161  0.00  0.00    +0.130 A 
ATOM     22  C   UNL     1      13.599   4.250   1.841  0.00  0.00    +0.016 A 
ATOM     24  C   UNL     1      14.295   3.578   0.842  0.00  0.00    +0.020 A 
ATOM     26  C   UNL     1      13.895   3.772  -0.470  0.00  0.00    +0.113 A 
ATOM     28  H   UNL     1      10.444   6.231   0.518  0.00  0.00    +0.148 HD
BRANCH   8  23
ATOM     23  C   UNL     1      10.733   6.246  -1.556  0.00  0.00    +0.131 C 
BRANCH  23  25
ATOM     25  C   UNL     1       9.346   5.664  -1.772  0.00  0.00    +0.178 C 
BRANCH  25   2
ATOM      2  O   UNL     1       9.462   4.318  -2.216  0.00  0.00    -0.381 OA
ATOM     27  C   UNL     1      10.235   4.227  -3.405  0.00  0.00    +0.194 C 
ENDBRANCH  25   2
ENDBRANCH  23  25
ENDBRANCH   8  23
ENDBRANCH  16  17
TORSDOF 5
ENDMDL
MODEL 8
REMARK VINA RESULT:      -5.4      9.526     13.364
REMARK  Name = 45783722
REMARK  6 active torsions:
REMARK  status: ('A' for Active; 'I' for Inactive)
REMARK    1  A    between atoms: O_2  and  C_25
REMARK    2  A    between atoms: O_2  and  C_27
REMARK    3  A    between atoms: N_8  and  C_23
REMARK    4  A    between atoms: C_10  and  C_14
REMARK    5  A    between atoms: C_16  and  C_17
REMARK    6  A    between atoms: C_23  and  C_25
REMARK                            x       y       z     vdW  Elec       q    Type
REMARK                         _______ _______ _______ _____ _____    ______ ____
ROOT
ATOM      1  O   UNL     1       8.908   9.819   6.635  0.00  0.00    -0.336 OA
ATOM      4  N   UNL     1      10.455   8.810   7.902  0.00  0.00    -0.190 NA
ATOM      7  N   UNL     1       8.533   8.472   6.708  0.00  0.00    -0.056 NA
ATOM     14  C   UNL     1      10.049   9.932   7.365  0.00  0.00    +0.248 A 
ATOM     16  C   UNL     1       9.495   7.942   7.471  0.00  0.00    +0.205 A 
ENDROOT
BRANCH  14  10
ATOM      3  N   UNL     1      11.605  11.484   8.567  0.00  0.00    -0.288 N 
ATOM      5  N   UNL     1       9.929  11.542  10.172  0.00  0.00    -0.223 NA
ATOM      6  N   UNL     1      12.224  12.007  10.743  0.00  0.00    -0.223 NA
ATOM     10  C   UNL     1      10.666  11.318   7.446  0.00  0.00    +0.165 C 
ATOM     11  C   UNL     1      11.527  11.634   6.210  0.00  0.00    +0.034 C 
ATOM     12  C   UNL     1      12.929  11.221   6.624  0.00  0.00    +0.021 C 
ATOM     13  C   UNL     1      12.988  11.606   8.099  0.00  0.00    +0.109 C 
ATOM     15  C   UNL     1      11.237  11.687   9.884  0.00  0.00    +0.218 A 
ATOM     18  C   UNL     1      11.829  12.197  12.020  0.00  0.00    +0.116 A 
ATOM     19  C   UNL     1       9.604  11.746  11.466  0.00  0.00    +0.116 A 
ATOM     21  C   UNL     1      10.522  12.078  12.442  0.00  0.00    +0.039 A 
ENDBRANCH  14  10
BRANCH  16  17
ATOM      8  N   UNL     1       9.995   5.916   5.543  0.00  0.00    -0.326 N 
ATOM      9  N   UNL     1       9.797   4.233   7.195  0.00  0.00    -0.240 NA
ATOM     17  C   UNL     1       9.523   6.551   7.821  0.00  0.00    +0.062 A 
ATOM     20  C   UNL     1       9.765   5.550   6.894  0.00  0.00    +0.130 A 
ATOM     22  C   UNL     1       9.299   6.176   9.141  0.00  0.00    +0.016 A 
ATOM     24  C   UNL     1       9.324   4.830   9.489  0.00  0.00    +0.020 A 
ATOM     26  C   UNL     1       9.575   3.906   8.487  0.00  0.00    +0.113 A 
ATOM     28  H   UNL     1       9.625   6.816   5.253  0.00  0.00    +0.148 HD
BRANCH   8  23
ATOM     23  C   UNL     1      10.253   4.958   4.521  0.00  0.00    +0.131 C 
BRANCH  23  25
ATOM     25  C   UNL     1      11.343   5.468   3.593  0.00  0.00    +0.178 C 
BRANCH  25   2
ATOM      2  O   UNL     1      12.031   6.544   4.218  0.00  0.00    -0.381 OA
ATOM     27  C   UNL     1      12.694   7.362   3.263  0.00  0.00    +0.194 C 
ENDBRANCH  25   2
ENDBRANCH  23  25
ENDBRANCH   8  23
ENDBRANCH  16  17
TORSDOF 5
ENDMDL
MODEL 9
REMARK VINA RESULT:      -5.4      1.565      1.813
REMARK  Name = 45783722
REMARK  6 active torsions:
REMARK  status: ('A' for Active; 'I' for Inactive)
REMARK    1  A    between atoms: O_2  and  C_25
REMARK    2  A    between atoms: O_2  and  C_27
REMARK    3  A    between atoms: N_8  and  C_23
REMARK    4  A    between atoms: C_10  and  C_14
REMARK    5  A    between atoms: C_16  and  C_17
REMARK    6  A    between atoms: C_23  and  C_25
REMARK                            x       y       z     vdW  Elec       q    Type
REMARK                         _______ _______ _______ _____ _____    ______ ____
ROOT
ATOM      1  O   UNL     1      12.429   8.629  18.295  0.00  0.00    -0.336 OA
ATOM      4  N   UNL     1      14.377   9.718  18.479  0.00  0.00    -0.190 NA
ATOM      7  N   UNL     1      12.546   9.415  17.142  0.00  0.00    -0.056 NA
ATOM     14  C   UNL     1      13.548   8.867  19.028  0.00  0.00    +0.248 A 
ATOM     16  C   UNL     1      13.721  10.027  17.324  0.00  0.00    +0.205 A 
ENDROOT
BRANCH  14  10
ATOM      3  N   UNL     1      15.015   8.155  20.929  0.00  0.00    -0.288 N 
ATOM      5  N   UNL     1      15.895   6.664  19.383  0.00  0.00    -0.223 NA
ATOM      6  N   UNL     1      17.182   7.399  21.283  0.00  0.00    -0.223 NA
ATOM     10  C   UNL     1      13.665   8.121  20.347  0.00  0.00    +0.165 C 
ATOM     11  C   UNL     1      12.788   8.754  21.441  0.00  0.00    +0.034 C 
ATOM     12  C   UNL     1      13.725   9.718  22.150  0.00  0.00    +0.021 C 
ATOM     13  C   UNL     1      15.061   8.981  22.139  0.00  0.00    +0.109 C 
ATOM     15  C   UNL     1      16.076   7.372  20.514  0.00  0.00    +0.218 A 
ATOM     18  C   UNL     1      18.198   6.624  20.848  0.00  0.00    +0.116 A 
ATOM     19  C   UNL     1      16.949   5.911  19.006  0.00  0.00    +0.116 A 
ATOM     21  C   UNL     1      18.137   5.852  19.706  0.00  0.00    +0.039 A 
ENDBRANCH  14  10
BRANCH  16  17
ATOM      8  N   UNL     1      13.625  12.837  17.734  0.00  0.00    -0.326 N 
ATOM      9  N   UNL     1      14.729  13.220  15.675  0.00  0.00    -0.240 NA
ATOM     17  C   UNL     1      14.264  10.952  16.373  0.00  0.00    +0.062 A 
ATOM     20  C   UNL     1      14.226  12.325  16.555  0.00  0.00    +0.130 A 
ATOM     22  C   UNL     1      14.857  10.467  15.212  0.00  0.00    +0.016 A 
ATOM     24  C   UNL     1      15.385  11.357  14.284  0.00  0.00    +0.020 A 
ATOM     26  C   UNL     1      15.297  12.711  14.560  0.00  0.00    +0.113 A 
ATOM     28  H   UNL     1      12.952  12.232  18.193  0.00  0.00    +0.148 HD
BRANCH   8  23
ATOM     23  C   UNL     1      13.539  14.233  18.009  0.00  0.00    +0.131 C 
BRANCH  23  25
ATOM     25  C   UNL     1      14.466  14.594  19.158  0.00  0.00    +0.178 C 
BRANCH  25   2
ATOM      2  O   UNL     1      15.415  15.557  18.717  0.00  0.00    -0.381 OA
ATOM     27  C   UNL     1      16.608  14.937  18.257  0.00  0.00    +0.194 C 
ENDBRANCH  25   2
ENDBRANCH  23  25
ENDBRANCH   8  23
ENDBRANCH  16  17
TORSDOF 5
ENDMDL
MODEL 10
REMARK VINA RESULT:      -5.3     26.620     28.842
REMARK  Name = 45783722
REMARK  6 active torsions:
REMARK  status: ('A' for Active; 'I' for Inactive)
REMARK    1  A    between atoms: O_2  and  C_25
REMARK    2  A    between atoms: O_2  and  C_27
REMARK    3  A    between atoms: N_8  and  C_23
REMARK    4  A    between atoms: C_10  and  C_14
REMARK    5  A    between atoms: C_16  and  C_17
REMARK    6  A    between atoms: C_23  and  C_25
REMARK                            x       y       z     vdW  Elec       q    Type
REMARK                         _______ _______ _______ _____ _____    ______ ____
ROOT
ATOM      1  O   UNL     1      -7.595 -12.335  13.470  0.00  0.00    -0.336 OA
ATOM      4  N   UNL     1      -6.651 -10.316  13.685  0.00  0.00    -0.190 NA
ATOM      7  N   UNL     1      -6.828 -12.140  12.316  0.00  0.00    -0.056 NA
ATOM     14  C   UNL     1      -7.436 -11.215  14.223  0.00  0.00    +0.248 A 
ATOM     16  C   UNL     1      -6.303 -10.927  12.516  0.00  0.00    +0.205 A 
ENDROOT
BRANCH  14  10
ATOM      3  N   UNL     1      -7.389 -10.607  16.652  0.00  0.00    -0.288 N 
ATOM      5  N   UNL     1      -6.017 -12.469  16.849  0.00  0.00    -0.223 NA
ATOM      6  N   UNL     1      -5.915 -10.667  18.446  0.00  0.00    -0.223 NA
ATOM     10  C   UNL     1      -8.177 -11.178  15.548  0.00  0.00    +0.165 C 
ATOM     11  C   UNL     1      -9.416 -10.268  15.486  0.00  0.00    +0.034 C 
ATOM     12  C   UNL     1      -8.908  -8.923  15.979  0.00  0.00    +0.021 C 
ATOM     13  C   UNL     1      -7.909  -9.302  17.068  0.00  0.00    +0.109 C 
ATOM     15  C   UNL     1      -6.398 -11.277  17.346  0.00  0.00    +0.218 A 
ATOM     18  C   UNL     1      -4.949 -11.348  19.097  0.00  0.00    +0.116 A 
ATOM     19  C   UNL     1      -5.048 -13.096  17.549  0.00  0.00    +0.116 A 
ATOM     21  C   UNL     1      -4.472 -12.577  18.691  0.00  0.00    +0.039 A 
ENDBRANCH  14  10
BRANCH  16  17
ATOM      8  N   UNL     1      -3.515 -10.656  12.995  0.00  0.00    -0.326 N 
ATOM      9  N   UNL     1      -3.218  -9.570  10.913  0.00  0.00    -0.240 NA
ATOM     17  C   UNL     1      -5.427 -10.299  11.569  0.00  0.00    +0.062 A 
ATOM     20  C   UNL     1      -4.066 -10.158  11.787  0.00  0.00    +0.130 A 
ATOM     22  C   UNL     1      -5.951  -9.805  10.380  0.00  0.00    +0.016 A 
ATOM     24  C   UNL     1      -5.109  -9.194   9.457  0.00  0.00    +0.020 A 
ATOM     26  C   UNL     1      -3.763  -9.103   9.768  0.00  0.00    +0.113 A 
ATOM     28  H   UNL     1      -4.159 -10.756  13.774  0.00  0.00    +0.148 HD
BRANCH   8  23
ATOM     23  C   UNL     1      -2.128 -10.557  13.306  0.00  0.00    +0.131 C 
BRANCH  23  25
ATOM     25  C   UNL     1      -1.711 -11.716  14.197  0.00  0.00    +0.178 C 
BRANCH  25   2
ATOM      2  O   UNL     1      -2.525 -11.732  15.363  0.00  0.00    -0.381 OA
ATOM     27  C   UNL     1      -2.174 -10.683  16.257  0.00  0.00    +0.194 C 
ENDBRANCH  25   2
ENDBRANCH  23  25
ENDBRANCH   8  23
ENDBRANCH  16  17
TORSDOF 5
ENDMDL
