REMARK  Name = 26743586
REMARK  6 active torsions:
REMARK  status: ('A' for Active; 'I' for Inactive)
REMARK    1  A    between atoms: O_1  and  C_9
REMARK    2  A    between atoms: N_3  and  C_11
REMARK    3  A    between atoms: N_4  and  C_20
REMARK    4  A    between atoms: C_7  and  C_12
REMARK    5  A    between atoms: C_11  and  C_13
REMARK    6  A    between atoms: C_18  and  C_23
REMARK                            x       y       z     vdW  Elec       q    Type
REMARK                         _______ _______ _______ _____ _____    ______ ____
ROOT
ATOM      3  N   UNL     1       2.846   0.250   0.230  0.00  0.00    -0.285 NA
ATOM      7  C   UNL     1       2.646  -0.945  -0.616  0.00  0.00    +0.149 C 
ATOM      8  C   UNL     1       3.503  -2.042   0.044  0.00  0.00    +0.061 C 
ATOM      9  C   UNL     1       4.181  -1.357   1.224  0.00  0.00    +0.130 C 
ATOM     10  C   UNL     1       4.168   0.110   0.837  0.00  0.00    +0.116 C 
ENDROOT
BRANCH   7  12
ATOM      2  O   UNL     1       0.830  -1.993  -1.871  0.00  0.00    -0.336 OA
ATOM      5  N   UNL     1       0.201  -1.129   0.097  0.00  0.00    -0.190 NA
ATOM      6  N   UNL     1      -0.543  -2.243  -1.757  0.00  0.00    -0.056 NA
ATOM     12  C   UNL     1       1.188  -1.335  -0.738  0.00  0.00    +0.245 A 
ATOM     18  C   UNL     1      -0.841  -1.704  -0.571  0.00  0.00    +0.202 A 
BRANCH  18  23
ATOM     23  C   UNL     1      -2.167  -1.724  -0.025  0.00  0.00    +0.022 A 
ATOM     24  C   UNL     1      -2.417  -1.146   1.220  0.00  0.00    +0.012 A 
ATOM     25  C   UNL     1      -3.207  -2.320  -0.738  0.00  0.00    +0.012 A 
ATOM     26  C   UNL     1      -3.706  -1.165   1.751  0.00  0.00    +0.001 A 
ATOM     27  C   UNL     1      -4.496  -2.339  -0.206  0.00  0.00    +0.001 A 
ATOM     28  C   UNL     1      -4.746  -1.762   1.038  0.00  0.00    +0.000 A 
ENDBRANCH  18  23
ENDBRANCH   7  12
BRANCH   9   1
ATOM      1  O   UNL     1       5.498  -1.843   1.397  0.00  0.00    -0.390 OA
ATOM     29  H   UNL     1       5.437  -2.799   1.566  0.00  0.00    +0.210 HD
ENDBRANCH   9   1
BRANCH   3  11
ATOM     11  C   UNL     1       2.709   1.502  -0.503  0.00  0.00    +0.122 C 
BRANCH  11  13
ATOM      4  N   UNL     1      -0.657   2.396  -1.689  0.00  0.00    -0.349 N 
ATOM     13  C   UNL     1       1.265   1.875  -0.710  0.00  0.00    -0.008 A 
ATOM     14  C   UNL     1       0.292   2.088   0.306  0.00  0.00    +0.004 A 
ATOM     15  C   UNL     1       0.652   2.072  -1.925  0.00  0.00    +0.091 A 
ATOM     16  C   UNL     1      -0.905   2.413  -0.335  0.00  0.00    +0.049 A 
ATOM     17  C   UNL     1       0.315   2.034   1.714  0.00  0.00    +0.010 A 
ATOM     19  C   UNL     1      -2.086   2.689   0.364  0.00  0.00    +0.026 A 
ATOM     20  C   UNL     1      -1.627   2.680  -2.725  0.00  0.00    +0.149 C 
ATOM     21  C   UNL     1      -0.859   2.308   2.427  0.00  0.00    +0.001 A 
ATOM     22  C   UNL     1      -2.039   2.630   1.760  0.00  0.00    +0.002 A 
ENDBRANCH  11  13
ENDBRANCH   3  11
TORSDOF 5
