MODEL 1
REMARK VINA RESULT:      -7.9      0.000      0.000
REMARK  Name = 11887644
REMARK  6 active torsions:
REMARK  status: ('A' for Active; 'I' for Inactive)
REMARK    1  A    between atoms: O_4  and  C_17
REMARK    2  A    between atoms: O_4  and  C_23
REMARK    3  A    between atoms: O_5  and  C_22
REMARK    4  A    between atoms: O_5  and  C_26
REMARK    5  A    between atoms: N_8  and  C_16
REMARK    6  A    between atoms: C_14  and  C_17
REMARK                            x       y       z     vdW  Elec       q    Type
REMARK                         _______ _______ _______ _____ _____    ______ ____
ROOT
ATOM      1  O   UNL     1      -9.040  -8.824  15.787  0.00  0.00    -0.273 OA
ATOM      2  O   UNL     1     -10.481  -6.083  15.618  0.00  0.00    -0.272 OA
ATOM      3  O   UNL     1      -9.084 -11.087  19.910  0.00  0.00    -0.252 OA
ATOM      6  N   UNL     1     -11.591  -8.021  16.224  0.00  0.00    -0.285 N 
ATOM      7  N   UNL     1     -10.933 -10.031  19.154  0.00  0.00    -0.293 N 
ATOM      8  N   UNL     1      -8.964  -9.989  17.828  0.00  0.00    -0.193 N 
ATOM      9  C   UNL     1     -11.660  -9.238  18.208  0.00  0.00    +0.105 C 
ATOM     10  C   UNL     1     -10.761  -8.338  17.388  0.00  0.00    +0.183 C 
ATOM     11  C   UNL     1     -12.410 -10.042  17.147  0.00  0.00    +0.043 C 
ATOM     12  C   UNL     1     -12.676  -8.993  16.074  0.00  0.00    +0.110 C 
ATOM     13  C   UNL     1      -9.510  -9.065  16.901  0.00  0.00    +0.250 C 
ATOM     14  C   UNL     1     -11.409  -6.879  15.461  0.00  0.00    +0.254 C 
ATOM     15  C   UNL     1      -9.619 -10.431  19.011  0.00  0.00    +0.313 C 
ATOM     35  H   UNL     1     -11.425 -10.341  19.987  0.00  0.00    +0.151 HD
ENDROOT
BRANCH   8  16
ATOM     16  C   UNL     1      -7.654 -10.536  17.540  0.00  0.00    +0.046 A 
ATOM     18  C   UNL     1      -6.523  -9.895  18.029  0.00  0.00    +0.027 A 
ATOM     19  C   UNL     1      -7.547 -11.691  16.779  0.00  0.00    +0.027 A 
ATOM     20  C   UNL     1      -5.261 -10.422  17.751  0.00  0.00    +0.048 A 
ATOM     21  C   UNL     1      -6.285 -12.218  16.501  0.00  0.00    +0.048 A 
ATOM     22  C   UNL     1      -5.142 -11.583  16.987  0.00  0.00    +0.129 A 
BRANCH  22   5
ATOM      5  O   UNL     1      -3.911 -12.095  16.715  0.00  0.00    -0.456 OA
BRANCH   5  26
ATOM     26  C   UNL     1      -3.095 -11.384  15.849  0.00  0.00    +0.128 A 
ATOM     30  C   UNL     1      -1.950 -10.784  16.341  0.00  0.00    +0.046 A 
ATOM     31  C   UNL     1      -3.447 -11.292  14.514  0.00  0.00    +0.046 A 
ATOM     32  C   UNL     1      -1.130 -10.069  15.470  0.00  0.00    +0.004 A 
ATOM     33  C   UNL     1      -2.627 -10.576  13.644  0.00  0.00    +0.004 A 
ATOM     34  C   UNL     1      -1.468  -9.965  14.121  0.00  0.00    +0.000 A 
ENDBRANCH   5  26
ENDBRANCH  22   5
ENDBRANCH   8  16
BRANCH  14  17
ATOM     17  C   UNL     1     -12.437  -6.650  14.381  0.00  0.00    +0.324 C 
BRANCH  17   4
ATOM      4  O   UNL     1     -12.960  -5.360  14.592  0.00  0.00    -0.483 OA
BRANCH   4  23
ATOM     23  C   UNL     1     -13.265  -4.613  13.476  0.00  0.00    +0.121 A 
ATOM     24  C   UNL     1     -14.580  -4.240  13.244  0.00  0.00    +0.045 A 
ATOM     25  C   UNL     1     -12.251  -4.247  12.604  0.00  0.00    +0.045 A 
ATOM     27  C   UNL     1     -14.889  -3.483  12.113  0.00  0.00    +0.004 A 
ATOM     28  C   UNL     1     -12.559  -3.491  11.473  0.00  0.00    +0.004 A 
ATOM     29  C   UNL     1     -13.878  -3.109  11.228  0.00  0.00    +0.000 A 
ENDBRANCH   4  23
ENDBRANCH  17   4
ENDBRANCH  14  17
TORSDOF 6
ENDMDL
MODEL 2
REMARK VINA RESULT:      -7.5      5.618     11.667
REMARK  Name = 11887644
REMARK  6 active torsions:
REMARK  status: ('A' for Active; 'I' for Inactive)
REMARK    1  A    between atoms: O_4  and  C_17
REMARK    2  A    between atoms: O_4  and  C_23
REMARK    3  A    between atoms: O_5  and  C_22
REMARK    4  A    between atoms: O_5  and  C_26
REMARK    5  A    between atoms: N_8  and  C_16
REMARK    6  A    between atoms: C_14  and  C_17
REMARK                            x       y       z     vdW  Elec       q    Type
REMARK                         _______ _______ _______ _____ _____    ______ ____
ROOT
ATOM      1  O   UNL     1      -6.684  -8.595   9.935  0.00  0.00    -0.273 OA
ATOM      2  O   UNL     1      -3.668  -8.698  10.649  0.00  0.00    -0.272 OA
ATOM      3  O   UNL     1      -7.870  -8.509   5.384  0.00  0.00    -0.252 OA
ATOM      6  N   UNL     1      -4.683 -10.329   9.359  0.00  0.00    -0.285 N 
ATOM      7  N   UNL     1      -6.204  -9.848   6.116  0.00  0.00    -0.293 N 
ATOM      8  N   UNL     1      -7.357  -8.488   7.684  0.00  0.00    -0.193 N 
ATOM      9  C   UNL     1      -5.341 -10.384   7.126  0.00  0.00    +0.105 C 
ATOM     10  C   UNL     1      -5.150  -9.440   8.294  0.00  0.00    +0.183 C 
ATOM     11  C   UNL     1      -5.854 -11.661   7.790  0.00  0.00    +0.043 C 
ATOM     12  C   UNL     1      -5.017 -11.724   9.062  0.00  0.00    +0.110 C 
ATOM     13  C   UNL     1      -6.465  -8.806   8.740  0.00  0.00    +0.250 C 
ATOM     14  C   UNL     1      -3.928  -9.883  10.431  0.00  0.00    +0.254 C 
ATOM     15  C   UNL     1      -7.208  -8.926   6.340  0.00  0.00    +0.313 C 
ATOM     35  H   UNL     1      -6.083 -10.183   5.165  0.00  0.00    +0.151 HD
ENDROOT
BRANCH   8  16
ATOM     16  C   UNL     1      -8.511  -7.671   8.002  0.00  0.00    +0.046 A 
ATOM     18  C   UNL     1      -9.740  -8.279   8.218  0.00  0.00    +0.027 A 
ATOM     19  C   UNL     1      -8.372  -6.293   8.085  0.00  0.00    +0.027 A 
ATOM     20  C   UNL     1     -10.852  -7.492   8.524  0.00  0.00    +0.048 A 
ATOM     21  C   UNL     1      -9.483  -5.506   8.391  0.00  0.00    +0.048 A 
ATOM     22  C   UNL     1     -10.723  -6.106   8.610  0.00  0.00    +0.129 A 
BRANCH  22   5
ATOM      5  O   UNL     1     -11.807  -5.340   8.906  0.00  0.00    -0.456 OA
BRANCH   5  26
ATOM     26  C   UNL     1     -12.013  -5.001  10.234  0.00  0.00    +0.128 A 
ATOM     30  C   UNL     1     -11.892  -3.678  10.619  0.00  0.00    +0.046 A 
ATOM     31  C   UNL     1     -12.334  -5.995  11.140  0.00  0.00    +0.046 A 
ATOM     32  C   UNL     1     -12.099  -3.338  11.955  0.00  0.00    +0.004 A 
ATOM     33  C   UNL     1     -12.540  -5.654  12.477  0.00  0.00    +0.004 A 
ATOM     34  C   UNL     1     -12.423  -4.326  12.884  0.00  0.00    +0.000 A 
ENDBRANCH   5  26
ENDBRANCH  22   5
ENDBRANCH   8  16
BRANCH  14  17
ATOM     17  C   UNL     1      -3.425 -10.958  11.363  0.00  0.00    +0.324 C 
BRANCH  17   4
ATOM      4  O   UNL     1      -4.157 -10.829  12.558  0.00  0.00    -0.483 OA
BRANCH   4  23
ATOM     23  C   UNL     1      -3.440 -10.721  13.729  0.00  0.00    +0.121 A 
ATOM     24  C   UNL     1      -4.077 -10.937  14.941  0.00  0.00    +0.045 A 
ATOM     25  C   UNL     1      -2.093 -10.396  13.674  0.00  0.00    +0.045 A 
ATOM     27  C   UNL     1      -3.350 -10.826  16.126  0.00  0.00    +0.004 A 
ATOM     28  C   UNL     1      -1.366 -10.285  14.859  0.00  0.00    +0.004 A 
ATOM     29  C   UNL     1      -1.995 -10.500  16.086  0.00  0.00    +0.000 A 
ENDBRANCH   4  23
ENDBRANCH  17   4
ENDBRANCH  14  17
TORSDOF 6
ENDMDL
MODEL 3
REMARK VINA RESULT:      -7.4      1.654      2.197
REMARK  Name = 11887644
REMARK  6 active torsions:
REMARK  status: ('A' for Active; 'I' for Inactive)
REMARK    1  A    between atoms: O_4  and  C_17
REMARK    2  A    between atoms: O_4  and  C_23
REMARK    3  A    between atoms: O_5  and  C_22
REMARK    4  A    between atoms: O_5  and  C_26
REMARK    5  A    between atoms: N_8  and  C_16
REMARK    6  A    between atoms: C_14  and  C_17
REMARK                            x       y       z     vdW  Elec       q    Type
REMARK                         _______ _______ _______ _____ _____    ______ ____
ROOT
ATOM      1  O   UNL     1      -9.388  -8.450  15.274  0.00  0.00    -0.273 OA
ATOM      2  O   UNL     1     -10.846  -5.802  15.965  0.00  0.00    -0.272 OA
ATOM      3  O   UNL     1      -7.752 -11.059  18.830  0.00  0.00    -0.252 OA
ATOM      6  N   UNL     1     -11.581  -7.851  16.749  0.00  0.00    -0.285 N 
ATOM      7  N   UNL     1      -9.775 -10.061  18.966  0.00  0.00    -0.293 N 
ATOM      8  N   UNL     1      -8.488  -9.780  16.992  0.00  0.00    -0.193 N 
ATOM      9  C   UNL     1     -10.835  -9.237  18.465  0.00  0.00    +0.105 C 
ATOM     10  C   UNL     1     -10.353  -8.214  17.459  0.00  0.00    +0.183 C 
ATOM     11  C   UNL     1     -11.922  -9.993  17.702  0.00  0.00    +0.043 C 
ATOM     12  C   UNL     1     -12.613  -8.873  16.932  0.00  0.00    +0.110 C 
ATOM     13  C   UNL     1      -9.376  -8.816  16.452  0.00  0.00    +0.250 C 
ATOM     14  C   UNL     1     -11.741  -6.639  16.099  0.00  0.00    +0.254 C 
ATOM     15  C   UNL     1      -8.614 -10.362  18.283  0.00  0.00    +0.313 C 
ATOM     35  H   UNL     1      -9.892 -10.472  19.888  0.00  0.00    +0.151 HD
ENDROOT
BRANCH   8  16
ATOM     16  C   UNL     1      -7.383 -10.215  16.162  0.00  0.00    +0.046 A 
ATOM     18  C   UNL     1      -6.145  -9.600  16.292  0.00  0.00    +0.027 A 
ATOM     19  C   UNL     1      -7.577 -11.241  15.247  0.00  0.00    +0.027 A 
ATOM     20  C   UNL     1      -5.081 -10.019  15.493  0.00  0.00    +0.048 A 
ATOM     21  C   UNL     1      -6.513 -11.660  14.448  0.00  0.00    +0.048 A 
ATOM     22  C   UNL     1      -5.265 -11.049  14.570  0.00  0.00    +0.129 A 
BRANCH  22   5
ATOM      5  O   UNL     1      -4.228 -11.456  13.789  0.00  0.00    -0.456 OA
BRANCH   5  26
ATOM     26  C   UNL     1      -3.939 -10.706  12.661  0.00  0.00    +0.128 A 
ATOM     30  C   UNL     1      -2.633 -10.642  12.211  0.00  0.00    +0.046 A 
ATOM     31  C   UNL     1      -4.965 -10.041  12.013  0.00  0.00    +0.046 A 
ATOM     32  C   UNL     1      -2.342  -9.886  11.075  0.00  0.00    +0.004 A 
ATOM     33  C   UNL     1      -4.673  -9.286  10.878  0.00  0.00    +0.004 A 
ATOM     34  C   UNL     1      -3.362  -9.209  10.409  0.00  0.00    +0.000 A 
ENDBRANCH   5  26
ENDBRANCH  22   5
ENDBRANCH   8  16
BRANCH  14  17
ATOM     17  C   UNL     1     -13.116  -6.383  15.534  0.00  0.00    +0.324 C 
BRANCH  17   4
ATOM      4  O   UNL     1     -13.002  -6.492  14.135  0.00  0.00    -0.483 OA
BRANCH   4  23
ATOM     23  C   UNL     1     -13.288  -5.370  13.389  0.00  0.00    +0.121 A 
ATOM     24  C   UNL     1     -12.251  -4.655  12.809  0.00  0.00    +0.045 A 
ATOM     25  C   UNL     1     -14.608  -4.975  13.232  0.00  0.00    +0.045 A 
ATOM     27  C   UNL     1     -12.541  -3.519  12.054  0.00  0.00    +0.004 A 
ATOM     28  C   UNL     1     -14.898  -3.838  12.477  0.00  0.00    +0.004 A 
ATOM     29  C   UNL     1     -13.864  -3.110  11.888  0.00  0.00    +0.000 A 
ENDBRANCH   4  23
ENDBRANCH  17   4
ENDBRANCH  14  17
TORSDOF 6
ENDMDL
MODEL 4
REMARK VINA RESULT:      -7.4     16.642     18.513
REMARK  Name = 11887644
REMARK  6 active torsions:
REMARK  status: ('A' for Active; 'I' for Inactive)
REMARK    1  A    between atoms: O_4  and  C_17
REMARK    2  A    between atoms: O_4  and  C_23
REMARK    3  A    between atoms: O_5  and  C_22
REMARK    4  A    between atoms: O_5  and  C_26
REMARK    5  A    between atoms: N_8  and  C_16
REMARK    6  A    between atoms: C_14  and  C_17
REMARK                            x       y       z     vdW  Elec       q    Type
REMARK                         _______ _______ _______ _____ _____    ______ ____
ROOT
ATOM      1  O   UNL     1     -15.093   4.772  23.900  0.00  0.00    -0.273 OA
ATOM      2  O   UNL     1     -15.763   1.978  25.066  0.00  0.00    -0.272 OA
ATOM      3  O   UNL     1     -16.683   5.803  19.595  0.00  0.00    -0.252 OA
ATOM      6  N   UNL     1     -17.411   3.468  24.421  0.00  0.00    -0.285 N 
ATOM      7  N   UNL     1     -17.987   4.697  21.072  0.00  0.00    -0.293 N 
ATOM      8  N   UNL     1     -15.800   5.341  21.730  0.00  0.00    -0.193 N 
ATOM      9  C   UNL     1     -18.251   4.078  22.337  0.00  0.00    +0.105 C 
ATOM     10  C   UNL     1     -16.992   3.594  23.024  0.00  0.00    +0.183 C 
ATOM     11  C   UNL     1     -18.884   5.001  23.377  0.00  0.00    +0.043 C 
ATOM     12  C   UNL     1     -18.622   4.250  24.678  0.00  0.00    +0.110 C 
ATOM     13  C   UNL     1     -15.867   4.623  22.951  0.00  0.00    +0.250 C 
ATOM     14  C   UNL     1     -16.784   2.620  25.319  0.00  0.00    +0.254 C 
ATOM     15  C   UNL     1     -16.810   5.333  20.730  0.00  0.00    +0.313 C 
ATOM     35  H   UNL     1     -18.728   4.684  20.377  0.00  0.00    +0.151 HD
ENDROOT
BRANCH   8  16
ATOM     16  C   UNL     1     -14.625   6.155  21.493  0.00  0.00    +0.046 A 
ATOM     18  C   UNL     1     -14.768   7.521  21.291  0.00  0.00    +0.027 A 
ATOM     19  C   UNL     1     -13.372   5.558  21.470  0.00  0.00    +0.027 A 
ATOM     20  C   UNL     1     -13.636   8.305  21.062  0.00  0.00    +0.048 A 
ATOM     21  C   UNL     1     -12.240   6.342  21.241  0.00  0.00    +0.048 A 
ATOM     22  C   UNL     1     -12.373   7.715  21.037  0.00  0.00    +0.129 A 
BRANCH  22   5
ATOM      5  O   UNL     1     -11.270   8.479  20.812  0.00  0.00    -0.456 OA
BRANCH   5  26
ATOM     26  C   UNL     1     -10.933   8.751  19.496  0.00  0.00    +0.128 A 
ATOM     30  C   UNL     1     -11.078   7.759  18.544  0.00  0.00    +0.046 A 
ATOM     31  C   UNL     1     -10.459  10.009  19.168  0.00  0.00    +0.046 A 
ATOM     32  C   UNL     1     -10.739   8.032  17.219  0.00  0.00    +0.004 A 
ATOM     33  C   UNL     1     -10.120  10.282  17.843  0.00  0.00    +0.004 A 
ATOM     34  C   UNL     1     -10.260   9.294  16.869  0.00  0.00    +0.000 A 
ENDBRANCH   5  26
ENDBRANCH  22   5
ENDBRANCH   8  16
BRANCH  14  17
ATOM     17  C   UNL     1     -17.429   2.522  26.679  0.00  0.00    +0.324 C 
BRANCH  17   4
ATOM      4  O   UNL     1     -16.648   3.301  27.552  0.00  0.00    -0.483 OA
BRANCH   4  23
ATOM     23  C   UNL     1     -15.940   2.636  28.529  0.00  0.00    +0.121 A 
ATOM     24  C   UNL     1     -15.019   3.333  29.296  0.00  0.00    +0.045 A 
ATOM     25  C   UNL     1     -16.159   1.281  28.725  0.00  0.00    +0.045 A 
ATOM     27  C   UNL     1     -14.302   2.659  30.285  0.00  0.00    +0.004 A 
ATOM     28  C   UNL     1     -15.441   0.607  29.713  0.00  0.00    +0.004 A 
ATOM     29  C   UNL     1     -14.512   1.296  30.493  0.00  0.00    +0.000 A 
ENDBRANCH   4  23
ENDBRANCH  17   4
ENDBRANCH  14  17
TORSDOF 6
ENDMDL
MODEL 5
REMARK VINA RESULT:      -7.1     27.160     30.208
REMARK  Name = 11887644
REMARK  6 active torsions:
REMARK  status: ('A' for Active; 'I' for Inactive)
REMARK    1  A    between atoms: O_4  and  C_17
REMARK    2  A    between atoms: O_4  and  C_23
REMARK    3  A    between atoms: O_5  and  C_22
REMARK    4  A    between atoms: O_5  and  C_26
REMARK    5  A    between atoms: N_8  and  C_16
REMARK    6  A    between atoms: C_14  and  C_17
REMARK                            x       y       z     vdW  Elec       q    Type
REMARK                         _______ _______ _______ _____ _____    ______ ____
ROOT
ATOM      1  O   UNL     1      12.453  10.731  20.117  0.00  0.00    -0.273 OA
ATOM      2  O   UNL     1      13.042  11.419  23.083  0.00  0.00    -0.272 OA
ATOM      3  O   UNL     1      14.110   6.668  18.425  0.00  0.00    -0.252 OA
ATOM      6  N   UNL     1      11.900   9.503  22.468  0.00  0.00    -0.285 N 
ATOM      7  N   UNL     1      13.212   6.774  20.496  0.00  0.00    -0.293 N 
ATOM      8  N   UNL     1      13.299   8.747  19.179  0.00  0.00    -0.193 N 
ATOM      9  C   UNL     1      12.606   7.463  21.596  0.00  0.00    +0.105 C 
ATOM     10  C   UNL     1      12.955   8.935  21.627  0.00  0.00    +0.183 C 
ATOM     11  C   UNL     1      11.078   7.467  21.581  0.00  0.00    +0.043 C 
ATOM     12  C   UNL     1      10.748   8.602  22.544  0.00  0.00    +0.110 C 
ATOM     13  C   UNL     1      12.865   9.576  20.244  0.00  0.00    +0.250 C 
ATOM     14  C   UNL     1      12.056  10.685  23.173  0.00  0.00    +0.254 C 
ATOM     15  C   UNL     1      13.561   7.355  19.292  0.00  0.00    +0.313 C 
ATOM     35  H   UNL     1      13.383   5.778  20.598  0.00  0.00    +0.151 HD
ENDROOT
BRANCH   8  16
ATOM     16  C   UNL     1      13.469   9.361  17.877  0.00  0.00    +0.046 A 
ATOM     18  C   UNL     1      12.474   9.221  16.919  0.00  0.00    +0.027 A 
ATOM     19  C   UNL     1      14.625  10.079  17.606  0.00  0.00    +0.027 A 
ATOM     20  C   UNL     1      12.639   9.811  15.665  0.00  0.00    +0.048 A 
ATOM     21  C   UNL     1      14.790  10.670  16.352  0.00  0.00    +0.048 A 
ATOM     22  C   UNL     1      13.797  10.535  15.382  0.00  0.00    +0.129 A 
BRANCH  22   5
ATOM      5  O   UNL     1      13.959  11.109  14.159  0.00  0.00    -0.456 OA
BRANCH   5  26
ATOM     26  C   UNL     1      13.254  12.273  13.896  0.00  0.00    +0.128 A 
ATOM     30  C   UNL     1      12.144  12.218  13.073  0.00  0.00    +0.046 A 
ATOM     31  C   UNL     1      13.680  13.460  14.464  0.00  0.00    +0.046 A 
ATOM     32  C   UNL     1      11.436  13.390  12.809  0.00  0.00    +0.004 A 
ATOM     33  C   UNL     1      12.971  14.632  14.199  0.00  0.00    +0.004 A 
ATOM     34  C   UNL     1      11.849  14.596  13.372  0.00  0.00    +0.000 A 
ENDBRANCH   5  26
ENDBRANCH  22   5
ENDBRANCH   8  16
BRANCH  14  17
ATOM     17  C   UNL     1      10.914  11.051  24.088  0.00  0.00    +0.324 C 
BRANCH  17   4
ATOM      4  O   UNL     1      11.490  11.481  25.298  0.00  0.00    -0.483 OA
BRANCH   4  23
ATOM     23  C   UNL     1      11.573  12.839  25.510  0.00  0.00    +0.121 A 
ATOM     24  C   UNL     1      10.496  13.648  25.183  0.00  0.00    +0.045 A 
ATOM     25  C   UNL     1      12.735  13.374  26.047  0.00  0.00    +0.045 A 
ATOM     27  C   UNL     1      10.581  15.024  25.398  0.00  0.00    +0.004 A 
ATOM     28  C   UNL     1      12.821  14.750  26.261  0.00  0.00    +0.004 A 
ATOM     29  C   UNL     1      11.744  15.575  25.937  0.00  0.00    +0.000 A 
ENDBRANCH   4  23
ENDBRANCH  17   4
ENDBRANCH  14  17
TORSDOF 6
ENDMDL
MODEL 6
REMARK VINA RESULT:      -7.1     26.905     30.700
REMARK  Name = 11887644
REMARK  6 active torsions:
REMARK  status: ('A' for Active; 'I' for Inactive)
REMARK    1  A    between atoms: O_4  and  C_17
REMARK    2  A    between atoms: O_4  and  C_23
REMARK    3  A    between atoms: O_5  and  C_22
REMARK    4  A    between atoms: O_5  and  C_26
REMARK    5  A    between atoms: N_8  and  C_16
REMARK    6  A    between atoms: C_14  and  C_17
REMARK                            x       y       z     vdW  Elec       q    Type
REMARK                         _______ _______ _______ _____ _____    ______ ____
ROOT
ATOM      1  O   UNL     1      13.269   6.806   3.411  0.00  0.00    -0.273 OA
ATOM      2  O   UNL     1      11.224   6.482   1.102  0.00  0.00    -0.272 OA
ATOM      3  O   UNL     1      11.948   9.259   7.200  0.00  0.00    -0.252 OA
ATOM      6  N   UNL     1      10.779   5.749   3.252  0.00  0.00    -0.285 N 
ATOM      7  N   UNL     1      10.520   7.819   6.203  0.00  0.00    -0.293 N 
ATOM      8  N   UNL     1      12.706   8.070   5.312  0.00  0.00    -0.193 N 
ATOM      9  C   UNL     1      10.154   6.867   5.196  0.00  0.00    +0.105 C 
ATOM     10  C   UNL     1      10.934   7.046   3.912  0.00  0.00    +0.183 C 
ATOM     11  C   UNL     1      10.425   5.410   5.569  0.00  0.00    +0.043 C 
ATOM     12  C   UNL     1      10.384   4.717   4.212  0.00  0.00    +0.110 C 
ATOM     13  C   UNL     1      12.421   7.279   4.171  0.00  0.00    +0.250 C 
ATOM     14  C   UNL     1      10.887   5.587   1.880  0.00  0.00    +0.254 C 
ATOM     15  C   UNL     1      11.756   8.427   6.307  0.00  0.00    +0.313 C 
ATOM     35  H   UNL     1       9.826   8.052   6.907  0.00  0.00    +0.151 HD
ENDROOT
BRANCH   8  16
ATOM     16  C   UNL     1      14.069   8.532   5.487  0.00  0.00    +0.046 A 
ATOM     18  C   UNL     1      14.959   7.772   6.233  0.00  0.00    +0.027 A 
ATOM     19  C   UNL     1      14.465   9.728   4.906  0.00  0.00    +0.027 A 
ATOM     20  C   UNL     1      16.271   8.217   6.401  0.00  0.00    +0.048 A 
ATOM     21  C   UNL     1      15.777  10.174   5.073  0.00  0.00    +0.048 A 
ATOM     22  C   UNL     1      16.679   9.418   5.821  0.00  0.00    +0.129 A 
BRANCH  22   5
ATOM      5  O   UNL     1      17.958   9.853   5.987  0.00  0.00    -0.456 OA
BRANCH   5  26
ATOM     26  C   UNL     1      18.981   8.950   5.749  0.00  0.00    +0.128 A 
ATOM     30  C   UNL     1      19.882   8.670   6.761  0.00  0.00    +0.046 A 
ATOM     31  C   UNL     1      19.075   8.350   4.506  0.00  0.00    +0.046 A 
ATOM     32  C   UNL     1      20.911   7.761   6.521  0.00  0.00    +0.004 A 
ATOM     33  C   UNL     1      20.105   7.441   4.267  0.00  0.00    +0.004 A 
ATOM     34  C   UNL     1      21.023   7.147   5.274  0.00  0.00    +0.000 A 
ENDBRANCH   5  26
ENDBRANCH  22   5
ENDBRANCH   8  16
BRANCH  14  17
ATOM     17  C   UNL     1      10.569   4.207   1.363  0.00  0.00    +0.324 C 
BRANCH  17   4
ATOM      4  O   UNL     1      11.673   3.394   1.681  0.00  0.00    -0.483 OA
BRANCH   4  23
ATOM     23  C   UNL     1      12.828   3.585   0.956  0.00  0.00    +0.121 A 
ATOM     24  C   UNL     1      14.044   3.656   1.617  0.00  0.00    +0.045 A 
ATOM     25  C   UNL     1      12.753   3.704  -0.424  0.00  0.00    +0.045 A 
ATOM     27  C   UNL     1      15.214   3.851   0.882  0.00  0.00    +0.004 A 
ATOM     28  C   UNL     1      13.922   3.899  -1.159  0.00  0.00    +0.004 A 
ATOM     29  C   UNL     1      15.153   3.972  -0.506  0.00  0.00    +0.000 A 
ENDBRANCH   4  23
ENDBRANCH  17   4
ENDBRANCH  14  17
TORSDOF 6
ENDMDL
MODEL 7
REMARK VINA RESULT:      -6.8     25.878     28.522
REMARK  Name = 11887644
REMARK  6 active torsions:
REMARK  status: ('A' for Active; 'I' for Inactive)
REMARK    1  A    between atoms: O_4  and  C_17
REMARK    2  A    between atoms: O_4  and  C_23
REMARK    3  A    between atoms: O_5  and  C_22
REMARK    4  A    between atoms: O_5  and  C_26
REMARK    5  A    between atoms: N_8  and  C_16
REMARK    6  A    between atoms: C_14  and  C_17
REMARK                            x       y       z     vdW  Elec       q    Type
REMARK                         _______ _______ _______ _____ _____    ______ ____
ROOT
ATOM      1  O   UNL     1      11.436   8.494   4.653  0.00  0.00    -0.273 OA
ATOM      2  O   UNL     1      12.722   9.696   7.206  0.00  0.00    -0.272 OA
ATOM      3  O   UNL     1      10.257   3.941   4.712  0.00  0.00    -0.252 OA
ATOM      6  N   UNL     1      10.626   8.716   7.229  0.00  0.00    -0.285 N 
ATOM      7  N   UNL     1       9.879   5.254   6.512  0.00  0.00    -0.293 N 
ATOM      8  N   UNL     1      10.875   6.211   4.581  0.00  0.00    -0.193 N 
ATOM      9  C   UNL     1       9.929   6.495   7.227  0.00  0.00    +0.105 C 
ATOM     10  C   UNL     1      11.047   7.398   6.752  0.00  0.00    +0.183 C 
ATOM     11  C   UNL     1       8.685   7.369   7.072  0.00  0.00    +0.043 C 
ATOM     12  C   UNL     1       9.191   8.734   7.522  0.00  0.00    +0.110 C 
ATOM     13  C   UNL     1      11.139   7.445   5.228  0.00  0.00    +0.250 C 
ATOM     14  C   UNL     1      11.519   9.748   7.467  0.00  0.00    +0.254 C 
ATOM     15  C   UNL     1      10.320   5.067   5.217  0.00  0.00    +0.313 C 
ATOM     35  H   UNL     1       9.471   4.453   6.985  0.00  0.00    +0.151 HD
ENDROOT
BRANCH   8  16
ATOM     16  C   UNL     1      11.176   6.116   3.167  0.00  0.00    +0.046 A 
ATOM     18  C   UNL     1      12.482   5.884   2.759  0.00  0.00    +0.027 A 
ATOM     19  C   UNL     1      10.154   6.260   2.239  0.00  0.00    +0.027 A 
ATOM     20  C   UNL     1      12.772   5.793   1.397  0.00  0.00    +0.048 A 
ATOM     21  C   UNL     1      10.443   6.169   0.877  0.00  0.00    +0.048 A 
ATOM     22  C   UNL     1      11.752   5.936   0.457  0.00  0.00    +0.129 A 
BRANCH  22   5
ATOM      5  O   UNL     1      12.035   5.850  -0.872  0.00  0.00    -0.456 OA
BRANCH   5  26
ATOM     26  C   UNL     1      11.673   4.687  -1.533  0.00  0.00    +0.128 A 
ATOM     30  C   UNL     1      12.419   3.539  -1.336  0.00  0.00    +0.046 A 
ATOM     31  C   UNL     1      10.573   4.704  -2.372  0.00  0.00    +0.046 A 
ATOM     32  C   UNL     1      12.054   2.369  -2.001  0.00  0.00    +0.004 A 
ATOM     33  C   UNL     1      10.210   3.534  -3.038  0.00  0.00    +0.004 A 
ATOM     34  C   UNL     1      10.950   2.367  -2.852  0.00  0.00    +0.000 A 
ENDBRANCH   5  26
ENDBRANCH  22   5
ENDBRANCH   8  16
BRANCH  14  17
ATOM     17  C   UNL     1      10.924  10.992   8.078  0.00  0.00    +0.324 C 
BRANCH  17   4
ATOM      4  O   UNL     1      11.430  11.078   9.389  0.00  0.00    -0.483 OA
BRANCH   4  23
ATOM     23  C   UNL     1      10.583  11.559  10.362  0.00  0.00    +0.121 A 
ATOM     24  C   UNL     1       9.216  11.569  10.133  0.00  0.00    +0.045 A 
ATOM     25  C   UNL     1      11.114  12.028  11.555  0.00  0.00    +0.045 A 
ATOM     27  C   UNL     1       8.359  12.058  11.120  0.00  0.00    +0.004 A 
ATOM     28  C   UNL     1      10.258  12.517  12.541  0.00  0.00    +0.004 A 
ATOM     29  C   UNL     1       8.880  12.532  12.324  0.00  0.00    +0.000 A 
ENDBRANCH   4  23
ENDBRANCH  17   4
ENDBRANCH  14  17
TORSDOF 6
ENDMDL
MODEL 8
REMARK VINA RESULT:      -6.7     16.430     18.726
REMARK  Name = 11887644
REMARK  6 active torsions:
REMARK  status: ('A' for Active; 'I' for Inactive)
REMARK    1  A    between atoms: O_4  and  C_17
REMARK    2  A    between atoms: O_4  and  C_23
REMARK    3  A    between atoms: O_5  and  C_22
REMARK    4  A    between atoms: O_5  and  C_26
REMARK    5  A    between atoms: N_8  and  C_16
REMARK    6  A    between atoms: C_14  and  C_17
REMARK                            x       y       z     vdW  Elec       q    Type
REMARK                         _______ _______ _______ _____ _____    ______ ____
ROOT
ATOM      1  O   UNL     1     -16.096   3.589  25.962  0.00  0.00    -0.273 OA
ATOM      2  O   UNL     1     -16.971   5.870  24.053  0.00  0.00    -0.272 OA
ATOM      3  O   UNL     1     -19.422   0.713  27.632  0.00  0.00    -0.252 OA
ATOM      6  N   UNL     1     -17.371   3.643  23.572  0.00  0.00    -0.285 N 
ATOM      7  N   UNL     1     -19.457   1.388  25.476  0.00  0.00    -0.293 N 
ATOM      8  N   UNL     1     -17.706   2.147  26.888  0.00  0.00    -0.193 N 
ATOM      9  C   UNL     1     -18.954   2.125  24.355  0.00  0.00    +0.105 C 
ATOM     10  C   UNL     1     -18.163   3.348  24.767  0.00  0.00    +0.183 C 
ATOM     11  C   UNL     1     -17.971   1.354  23.476  0.00  0.00    +0.043 C 
ATOM     12  C   UNL     1     -17.288   2.472  22.697  0.00  0.00    +0.110 C 
ATOM     13  C   UNL     1     -17.204   3.050  25.918  0.00  0.00    +0.250 C 
ATOM     14  C   UNL     1     -16.881   4.907  23.289  0.00  0.00    +0.254 C 
ATOM     15  C   UNL     1     -18.880   1.360  26.730  0.00  0.00    +0.313 C 
ATOM     35  H   UNL     1     -20.293   0.828  25.336  0.00  0.00    +0.151 HD
ENDROOT
BRANCH   8  16
ATOM     16  C   UNL     1     -16.960   2.002  28.121  0.00  0.00    +0.046 A 
ATOM     18  C   UNL     1     -17.148   2.919  29.147  0.00  0.00    +0.027 A 
ATOM     19  C   UNL     1     -16.066   0.949  28.260  0.00  0.00    +0.027 A 
ATOM     20  C   UNL     1     -16.429   2.779  30.335  0.00  0.00    +0.048 A 
ATOM     21  C   UNL     1     -15.347   0.810  29.448  0.00  0.00    +0.048 A 
ATOM     22  C   UNL     1     -15.528   1.725  30.484  0.00  0.00    +0.129 A 
BRANCH  22   5
ATOM      5  O   UNL     1     -14.825   1.591  31.642  0.00  0.00    -0.456 OA
BRANCH   5  26
ATOM     26  C   UNL     1     -14.541   2.741  32.360  0.00  0.00    +0.128 A 
ATOM     30  C   UNL     1     -15.022   2.867  33.650  0.00  0.00    +0.046 A 
ATOM     31  C   UNL     1     -13.782   3.734  31.767  0.00  0.00    +0.046 A 
ATOM     32  C   UNL     1     -14.735   4.025  34.372  0.00  0.00    +0.004 A 
ATOM     33  C   UNL     1     -13.497   4.893  32.489  0.00  0.00    +0.004 A 
ATOM     34  C   UNL     1     -13.973   5.038  33.791  0.00  0.00    +0.000 A 
ENDBRANCH   5  26
ENDBRANCH  22   5
ENDBRANCH   8  16
BRANCH  14  17
ATOM     17  C   UNL     1     -16.199   5.055  21.952  0.00  0.00    +0.324 C 
BRANCH  17   4
ATOM      4  O   UNL     1     -14.814   5.021  22.202  0.00  0.00    -0.483 OA
BRANCH   4  23
ATOM     23  C   UNL     1     -14.030   5.937  21.535  0.00  0.00    +0.121 A 
ATOM     24  C   UNL     1     -14.634   6.931  20.782  0.00  0.00    +0.045 A 
ATOM     25  C   UNL     1     -12.649   5.845  21.629  0.00  0.00    +0.045 A 
ATOM     27  C   UNL     1     -13.839   7.857  20.106  0.00  0.00    +0.004 A 
ATOM     28  C   UNL     1     -11.854   6.771  20.953  0.00  0.00    +0.004 A 
ATOM     29  C   UNL     1     -12.449   7.777  20.192  0.00  0.00    +0.000 A 
ENDBRANCH   4  23
ENDBRANCH  17   4
ENDBRANCH  14  17
TORSDOF 6
ENDMDL
MODEL 9
REMARK VINA RESULT:      -6.7     26.405     30.615
REMARK  Name = 11887644
REMARK  6 active torsions:
REMARK  status: ('A' for Active; 'I' for Inactive)
REMARK    1  A    between atoms: O_4  and  C_17
REMARK    2  A    between atoms: O_4  and  C_23
REMARK    3  A    between atoms: O_5  and  C_22
REMARK    4  A    between atoms: O_5  and  C_26
REMARK    5  A    between atoms: N_8  and  C_16
REMARK    6  A    between atoms: C_14  and  C_17
REMARK                            x       y       z     vdW  Elec       q    Type
REMARK                         _______ _______ _______ _____ _____    ______ ____
ROOT
ATOM      1  O   UNL     1      13.036   7.239   3.817  0.00  0.00    -0.273 OA
ATOM      2  O   UNL     1      15.478   7.408   5.721  0.00  0.00    -0.272 OA
ATOM      3  O   UNL     1       9.177   5.043   5.370  0.00  0.00    -0.252 OA
ATOM      6  N   UNL     1      13.412   8.282   6.290  0.00  0.00    -0.285 N 
ATOM      7  N   UNL     1      10.351   6.414   6.730  0.00  0.00    -0.293 N 
ATOM      8  N   UNL     1      11.091   6.105   4.496  0.00  0.00    -0.193 N 
ATOM      9  C   UNL     1      11.438   7.296   7.033  0.00  0.00    +0.105 C 
ATOM     10  C   UNL     1      12.659   7.032   6.178  0.00  0.00    +0.183 C 
ATOM     11  C   UNL     1      11.148   8.774   6.779  0.00  0.00    +0.043 C 
ATOM     12  C   UNL     1      12.548   9.376   6.737  0.00  0.00    +0.110 C 
ATOM     13  C   UNL     1      12.298   6.818   4.710  0.00  0.00    +0.250 C 
ATOM     14  C   UNL     1      14.783   8.353   6.099  0.00  0.00    +0.254 C 
ATOM     15  C   UNL     1      10.133   5.814   5.505  0.00  0.00    +0.313 C 
ATOM     35  H   UNL     1       9.675   6.227   7.466  0.00  0.00    +0.151 HD
ENDROOT
BRANCH   8  16
ATOM     16  C   UNL     1      10.806   5.656   3.148  0.00  0.00    +0.046 A 
ATOM     18  C   UNL     1      10.112   6.490   2.281  0.00  0.00    +0.027 A 
ATOM     19  C   UNL     1      11.229   4.398   2.743  0.00  0.00    +0.027 A 
ATOM     20  C   UNL     1       9.838   6.057   0.983  0.00  0.00    +0.048 A 
ATOM     21  C   UNL     1      10.954   3.965   1.444  0.00  0.00    +0.048 A 
ATOM     22  C   UNL     1      10.258   4.795   0.566  0.00  0.00    +0.129 A 
BRANCH  22   5
ATOM      5  O   UNL     1       9.988   4.372  -0.700  0.00  0.00    -0.456 OA
BRANCH   5  26
ATOM     26  C   UNL     1      11.062   4.148  -1.546  0.00  0.00    +0.128 A 
ATOM     30  C   UNL     1      11.936   5.185  -1.816  0.00  0.00    +0.046 A 
ATOM     31  C   UNL     1      11.232   2.891  -2.099  0.00  0.00    +0.046 A 
ATOM     32  C   UNL     1      13.016   4.959  -2.668  0.00  0.00    +0.004 A 
ATOM     33  C   UNL     1      12.313   2.666  -2.951  0.00  0.00    +0.004 A 
ATOM     34  C   UNL     1      13.205   3.699  -3.236  0.00  0.00    +0.000 A 
ENDBRANCH   5  26
ENDBRANCH  22   5
ENDBRANCH   8  16
BRANCH  14  17
ATOM     17  C   UNL     1      15.408   9.696   6.381  0.00  0.00    +0.324 C 
BRANCH  17   4
ATOM      4  O   UNL     1      16.554   9.784   5.568  0.00  0.00    -0.483 OA
BRANCH   4  23
ATOM     23  C   UNL     1      17.773   9.871   6.202  0.00  0.00    +0.121 A 
ATOM     24  C   UNL     1      18.158  11.072   6.779  0.00  0.00    +0.045 A 
ATOM     25  C   UNL     1      18.596   8.755   6.251  0.00  0.00    +0.045 A 
ATOM     27  C   UNL     1      19.394  11.159   7.420  0.00  0.00    +0.004 A 
ATOM     28  C   UNL     1      19.832   8.843   6.891  0.00  0.00    +0.004 A 
ATOM     29  C   UNL     1      20.231  10.044   7.476  0.00  0.00    +0.000 A 
ENDBRANCH   4  23
ENDBRANCH  17   4
ENDBRANCH  14  17
TORSDOF 6
ENDMDL
MODEL 10
REMARK VINA RESULT:      -6.7     26.469     29.546
REMARK  Name = 11887644
REMARK  6 active torsions:
REMARK  status: ('A' for Active; 'I' for Inactive)
REMARK    1  A    between atoms: O_4  and  C_17
REMARK    2  A    between atoms: O_4  and  C_23
REMARK    3  A    between atoms: O_5  and  C_22
REMARK    4  A    between atoms: O_5  and  C_26
REMARK    5  A    between atoms: N_8  and  C_16
REMARK    6  A    between atoms: C_14  and  C_17
REMARK                            x       y       z     vdW  Elec       q    Type
REMARK                         _______ _______ _______ _____ _____    ______ ____
ROOT
ATOM      1  O   UNL     1      11.766   8.867   4.587  0.00  0.00    -0.273 OA
ATOM      2  O   UNL     1       9.016  10.101   5.313  0.00  0.00    -0.272 OA
ATOM      3  O   UNL     1      13.889   6.165   7.799  0.00  0.00    -0.252 OA
ATOM      6  N   UNL     1       9.376   7.815   5.312  0.00  0.00    -0.285 N 
ATOM      7  N   UNL     1      11.661   6.012   7.453  0.00  0.00    -0.293 N 
ATOM      8  N   UNL     1      12.920   7.555   6.161  0.00  0.00    -0.193 N 
ATOM      9  C   UNL     1      10.434   6.389   6.818  0.00  0.00    +0.105 C 
ATOM     10  C   UNL     1      10.457   7.810   6.299  0.00  0.00    +0.183 C 
ATOM     11  C   UNL     1      10.081   5.570   5.577  0.00  0.00    +0.043 C 
ATOM     12  C   UNL     1       9.045   6.452   4.891  0.00  0.00    +0.110 C 
ATOM     13  C   UNL     1      11.765   8.137   5.581  0.00  0.00    +0.250 C 
ATOM     14  C   UNL     1       8.706   8.968   4.938  0.00  0.00    +0.254 C 
ATOM     15  C   UNL     1      12.901   6.545   7.162  0.00  0.00    +0.313 C 
ATOM     35  H   UNL     1      11.623   5.282   8.160  0.00  0.00    +0.151 HD
ENDROOT
BRANCH   8  16
ATOM     16  C   UNL     1      14.212   8.008   5.687  0.00  0.00    +0.046 A 
ATOM     18  C   UNL     1      14.795   9.131   6.259  0.00  0.00    +0.027 A 
ATOM     19  C   UNL     1      14.847   7.316   4.666  0.00  0.00    +0.027 A 
ATOM     20  C   UNL     1      16.039   9.568   5.802  0.00  0.00    +0.048 A 
ATOM     21  C   UNL     1      16.091   7.753   4.209  0.00  0.00    +0.048 A 
ATOM     22  C   UNL     1      16.687   8.878   4.777  0.00  0.00    +0.129 A 
BRANCH  22   5
ATOM      5  O   UNL     1      17.899   9.306   4.330  0.00  0.00    -0.456 OA
BRANCH   5  26
ATOM     26  C   UNL     1      19.020   8.602   4.737  0.00  0.00    +0.128 A 
ATOM     30  C   UNL     1      19.449   8.716   6.047  0.00  0.00    +0.046 A 
ATOM     31  C   UNL     1      19.682   7.802   3.823  0.00  0.00    +0.046 A 
ATOM     32  C   UNL     1      20.578   8.008   6.457  0.00  0.00    +0.004 A 
ATOM     33  C   UNL     1      20.811   7.094   4.233  0.00  0.00    +0.004 A 
ATOM     34  C   UNL     1      21.259   7.197   5.550  0.00  0.00    +0.000 A 
ENDBRANCH   5  26
ENDBRANCH  22   5
ENDBRANCH   8  16
BRANCH  14  17
ATOM     17  C   UNL     1       7.536   8.766   4.008  0.00  0.00    +0.324 C 
BRANCH  17   4
ATOM      4  O   UNL     1       7.672   9.717   2.979  0.00  0.00    -0.483 OA
BRANCH   4  23
ATOM     23  C   UNL     1       6.690   9.748   2.014  0.00  0.00    +0.121 A 
ATOM     24  C   UNL     1       7.040   9.608   0.680  0.00  0.00    +0.045 A 
ATOM     25  C   UNL     1       5.367   9.920   2.394  0.00  0.00    +0.045 A 
ATOM     27  C   UNL     1       6.044   9.640  -0.297  0.00  0.00    +0.004 A 
ATOM     28  C   UNL     1       4.372   9.954   1.418  0.00  0.00    +0.004 A 
ATOM     29  C   UNL     1       4.710   9.813   0.072  0.00  0.00    +0.000 A 
ENDBRANCH   4  23
ENDBRANCH  17   4
ENDBRANCH  14  17
TORSDOF 6
ENDMDL
