MODEL 1
REMARK VINA RESULT:      -7.2      0.000      0.000
REMARK  Name = 11886484
REMARK  3 active torsions:
REMARK  status: ('A' for Active; 'I' for Inactive)
REMARK    1  A    between atoms: C_17  and  C_20
REMARK    2  A    between atoms: C_18  and  C_21
REMARK    3  A    between atoms: C_24  and  C_25
REMARK                            x       y       z     vdW  Elec       q    Type
REMARK                         _______ _______ _______ _____ _____    ______ ____
ROOT
ATOM      2  O   UNL     1      -6.683  -9.865  13.922  0.00  0.00    -0.267 OA
ATOM      3  O   UNL     1      -4.813 -14.477  12.524  0.00  0.00    -0.270 OA
ATOM      4  N   UNL     1      -2.998 -13.124  13.118  0.00  0.00    -0.296 N 
ATOM      5  N   UNL     1      -4.438 -10.470  14.093  0.00  0.00    -0.311 N 
ATOM      8  C   UNL     1      -2.967 -10.883  12.036  0.00  0.00    +0.027 C 
ATOM      9  C   UNL     1      -2.025 -11.165  14.292  0.00  0.00    +0.054 C 
ATOM     10  C   UNL     1      -1.819 -10.466  12.949  0.00  0.00    +0.018 C 
ATOM     11  C   UNL     1      -2.972 -12.410  11.842  0.00  0.00    +0.113 C 
ATOM     12  C   UNL     1      -4.284 -10.372  12.633  0.00  0.00    +0.130 C 
ATOM     13  C   UNL     1      -1.983 -12.692  14.092  0.00  0.00    +0.117 C 
ATOM     14  C   UNL     1      -3.349 -10.767  14.916  0.00  0.00    +0.027 A 
ATOM     15  C   UNL     1      -3.487 -10.737  16.251  0.00  0.00    +0.022 A 
ATOM     16  C   UNL     1      -5.707 -10.150  14.618  0.00  0.00    +0.259 A 
ATOM     17  C   UNL     1      -3.961 -14.113  13.333  0.00  0.00    +0.250 C 
ATOM     18  C   UNL     1      -5.839 -10.155  16.118  0.00  0.00    +0.040 A 
ATOM     19  C   UNL     1      -4.752 -10.427  16.855  0.00  0.00    +0.015 A 
ENDROOT
BRANCH  17  20
ATOM      6  N   UNL     1      -4.778 -14.862  16.906  0.00  0.00    -0.243 NA
ATOM      7  N   UNL     1      -3.271 -16.553  16.084  0.00  0.00    -0.243 NA
ATOM     20  C   UNL     1      -3.987 -14.773  14.643  0.00  0.00    +0.073 A 
ATOM     22  C   UNL     1      -4.731 -14.280  15.690  0.00  0.00    +0.127 A 
ATOM     23  C   UNL     1      -3.271 -15.920  14.892  0.00  0.00    +0.127 A 
ATOM     26  C   UNL     1      -4.035 -15.979  17.031  0.00  0.00    +0.221 A 
ENDBRANCH  17  20
BRANCH  18  21
ATOM     21  C   UNL     1      -7.109  -9.859  16.730  0.00  0.00    +0.014 C 
ATOM     24  C   UNL     1      -7.673 -10.648  17.653  0.00  0.00    +0.008 C 
BRANCH  24  25
ATOM      1 CL   UNL     1     -12.932  -9.616  20.272  0.00  0.00    -0.084 Cl
ATOM     25  C   UNL     1      -8.972 -10.393  18.299  0.00  0.00    -0.025 A 
ATOM     27  C   UNL     1      -9.891  -9.567  17.674  0.00  0.00    +0.009 A 
ATOM     28  C   UNL     1      -9.249 -10.986  19.521  0.00  0.00    +0.009 A 
ATOM     29  C   UNL     1     -11.121  -9.326  18.286  0.00  0.00    +0.020 A 
ATOM     30  C   UNL     1     -10.479 -10.745  20.133  0.00  0.00    +0.020 A 
ATOM     31  C   UNL     1     -11.415  -9.914  19.516  0.00  0.00    +0.041 A 
ENDBRANCH  24  25
ENDBRANCH  18  21
TORSDOF 3
ENDMDL
MODEL 2
REMARK VINA RESULT:      -7.0     26.081     30.079
REMARK  Name = 11886484
REMARK  3 active torsions:
REMARK  status: ('A' for Active; 'I' for Inactive)
REMARK    1  A    between atoms: C_17  and  C_20
REMARK    2  A    between atoms: C_18  and  C_21
REMARK    3  A    between atoms: C_24  and  C_25
REMARK                            x       y       z     vdW  Elec       q    Type
REMARK                         _______ _______ _______ _____ _____    ______ ____
ROOT
ATOM      2  O   UNL     1      13.802   6.219   7.643  0.00  0.00    -0.267 OA
ATOM      3  O   UNL     1      10.467   4.167   4.268  0.00  0.00    -0.270 OA
ATOM      4  N   UNL     1       9.591   6.218   4.975  0.00  0.00    -0.296 N 
ATOM      5  N   UNL     1      11.898   7.313   6.859  0.00  0.00    -0.311 N 
ATOM      8  C   UNL     1       9.528   6.532   7.444  0.00  0.00    +0.027 C 
ATOM      9  C   UNL     1       9.849   8.478   5.971  0.00  0.00    +0.054 C 
ATOM     10  C   UNL     1       9.149   7.995   7.241  0.00  0.00    +0.018 C 
ATOM     11  C   UNL     1       9.078   5.688   6.238  0.00  0.00    +0.113 C 
ATOM     12  C   UNL     1      11.042   6.442   7.679  0.00  0.00    +0.130 C 
ATOM     13  C   UNL     1       9.356   7.656   4.765  0.00  0.00    +0.117 C 
ATOM     14  C   UNL     1      11.355   8.350   6.097  0.00  0.00    +0.027 A 
ATOM     15  C   UNL     1      12.164   9.203   5.449  0.00  0.00    +0.022 A 
ATOM     16  C   UNL     1      13.290   7.112   6.964  0.00  0.00    +0.259 A 
ATOM     17  C   UNL     1      10.267   5.368   4.097  0.00  0.00    +0.250 C 
ATOM     18  C   UNL     1      14.170   8.065   6.202  0.00  0.00    +0.040 A 
ATOM     19  C   UNL     1      13.591   9.053   5.505  0.00  0.00    +0.015 A 
ENDROOT
BRANCH  17  20
ATOM      6  N   UNL     1      12.581   7.076   1.706  0.00  0.00    -0.243 NA
ATOM      7  N   UNL     1      10.574   6.452   0.529  0.00  0.00    -0.243 NA
ATOM     20  C   UNL     1      10.809   5.947   2.863  0.00  0.00    +0.073 A 
ATOM     22  C   UNL     1      12.052   6.535   2.822  0.00  0.00    +0.127 A 
ATOM     23  C   UNL     1      10.105   5.929   1.682  0.00  0.00    +0.127 A 
ATOM     26  C   UNL     1      11.799   7.000   0.611  0.00  0.00    +0.221 A 
ENDBRANCH  17  20
BRANCH  18  21
ATOM     21  C   UNL     1      15.602   7.911   6.241  0.00  0.00    +0.014 C 
ATOM     24  C   UNL     1      16.431   8.598   5.444  0.00  0.00    +0.008 C 
BRANCH  24  25
ATOM      1 CL   UNL     1      22.372   8.071   5.436  0.00  0.00    -0.084 Cl
ATOM     25  C   UNL     1      17.897   8.468   5.442  0.00  0.00    -0.025 A 
ATOM     27  C   UNL     1      18.545   8.101   4.273  0.00  0.00    +0.009 A 
ATOM     28  C   UNL     1      18.602   8.716   6.609  0.00  0.00    +0.009 A 
ATOM     29  C   UNL     1      19.934   7.978   4.271  0.00  0.00    +0.020 A 
ATOM     30  C   UNL     1      19.992   8.592   6.607  0.00  0.00    +0.020 A 
ATOM     31  C   UNL     1      20.658   8.224   5.438  0.00  0.00    +0.041 A 
ENDBRANCH  24  25
ENDBRANCH  18  21
TORSDOF 3
ENDMDL
MODEL 3
REMARK VINA RESULT:      -6.9     20.624     22.581
REMARK  Name = 11886484
REMARK  3 active torsions:
REMARK  status: ('A' for Active; 'I' for Inactive)
REMARK    1  A    between atoms: C_17  and  C_20
REMARK    2  A    between atoms: C_18  and  C_21
REMARK    3  A    between atoms: C_24  and  C_25
REMARK                            x       y       z     vdW  Elec       q    Type
REMARK                         _______ _______ _______ _____ _____    ______ ____
ROOT
ATOM      2  O   UNL     1     -12.005  10.064  20.799  0.00  0.00    -0.267 OA
ATOM      3  O   UNL     1     -14.493  12.019  16.711  0.00  0.00    -0.270 OA
ATOM      4  N   UNL     1     -12.309  11.514  16.040  0.00  0.00    -0.296 N 
ATOM      5  N   UNL     1     -11.100  10.182  18.654  0.00  0.00    -0.311 N 
ATOM      8  C   UNL     1     -10.525  12.410  17.526  0.00  0.00    +0.027 C 
ATOM      9  C   UNL     1     -10.163  10.296  16.319  0.00  0.00    +0.054 C 
ATOM     10  C   UNL     1      -9.488  11.594  16.763  0.00  0.00    +0.018 C 
ATOM     11  C   UNL     1     -11.733  12.724  16.625  0.00  0.00    +0.113 C 
ATOM     12  C   UNL     1     -10.932  11.637  18.788  0.00  0.00    +0.130 C 
ATOM     13  C   UNL     1     -11.342  10.622  15.381  0.00  0.00    +0.117 C 
ATOM     14  C   UNL     1     -10.663   9.506  17.513  0.00  0.00    +0.027 A 
ATOM     15  C   UNL     1     -10.721   8.165  17.461  0.00  0.00    +0.022 A 
ATOM     16  C   UNL     1     -11.628   9.500  19.770  0.00  0.00    +0.259 A 
ATOM     17  C   UNL     1     -13.680  11.278  16.161  0.00  0.00    +0.250 C 
ATOM     18  C   UNL     1     -11.709   8.001  19.670  0.00  0.00    +0.040 A 
ATOM     19  C   UNL     1     -11.255   7.408  18.557  0.00  0.00    +0.015 A 
ENDROOT
BRANCH  17  20
ATOM      6  N   UNL     1     -15.178   8.822  13.769  0.00  0.00    -0.243 NA
ATOM      7  N   UNL     1     -14.757   7.707  15.864  0.00  0.00    -0.243 NA
ATOM     20  C   UNL     1     -14.214  10.031  15.604  0.00  0.00    +0.073 A 
ATOM     22  C   UNL     1     -14.682   9.953  14.313  0.00  0.00    +0.127 A 
ATOM     23  C   UNL     1     -14.273   8.872  16.343  0.00  0.00    +0.127 A 
ATOM     26  C   UNL     1     -15.186   7.753  14.589  0.00  0.00    +0.221 A 
ENDBRANCH  17  20
BRANCH  18  21
ATOM     21  C   UNL     1     -12.257   7.235  20.762  0.00  0.00    +0.014 C 
ATOM     24  C   UNL     1     -13.563   6.957  20.872  0.00  0.00    +0.008 C 
BRANCH  24  25
ATOM      1 CL   UNL     1     -16.023   3.842  25.324  0.00  0.00    -0.084 Cl
ATOM     25  C   UNL     1     -14.169   6.188  21.972  0.00  0.00    -0.025 A 
ATOM     27  C   UNL     1     -13.490   5.100  22.495  0.00  0.00    +0.009 A 
ATOM     28  C   UNL     1     -15.409   6.568  22.462  0.00  0.00    +0.009 A 
ATOM     29  C   UNL     1     -14.066   4.371  23.536  0.00  0.00    +0.020 A 
ATOM     30  C   UNL     1     -15.984   5.839  23.503  0.00  0.00    +0.020 A 
ATOM     31  C   UNL     1     -15.313   4.741  24.040  0.00  0.00    +0.041 A 
ENDBRANCH  24  25
ENDBRANCH  18  21
TORSDOF 3
ENDMDL
MODEL 4
REMARK VINA RESULT:      -6.8     20.855     22.748
REMARK  Name = 11886484
REMARK  3 active torsions:
REMARK  status: ('A' for Active; 'I' for Inactive)
REMARK    1  A    between atoms: C_17  and  C_20
REMARK    2  A    between atoms: C_18  and  C_21
REMARK    3  A    between atoms: C_24  and  C_25
REMARK                            x       y       z     vdW  Elec       q    Type
REMARK                         _______ _______ _______ _____ _____    ______ ____
ROOT
ATOM      2  O   UNL     1       9.458  -9.708  31.885  0.00  0.00    -0.267 OA
ATOM      3  O   UNL     1       8.396  -9.484  36.939  0.00  0.00    -0.270 OA
ATOM      4  N   UNL     1       8.094  -7.339  36.053  0.00  0.00    -0.296 N 
ATOM      5  N   UNL     1       8.624  -7.816  32.961  0.00  0.00    -0.311 N 
ATOM      8  C   UNL     1       9.993  -6.499  34.681  0.00  0.00    +0.027 C 
ATOM      9  C   UNL     1       7.695  -5.798  34.148  0.00  0.00    +0.054 C 
ATOM     10  C   UNL     1       9.142  -5.314  34.240  0.00  0.00    +0.018 C 
ATOM     11  C   UNL     1       9.522  -7.021  36.050  0.00  0.00    +0.113 C 
ATOM     12  C   UNL     1       9.930  -7.583  33.597  0.00  0.00    +0.130 C 
ATOM     13  C   UNL     1       7.220  -6.275  35.534  0.00  0.00    +0.117 C 
ATOM     14  C   UNL     1       7.562  -6.928  33.144  0.00  0.00    +0.027 A 
ATOM     15  C   UNL     1       6.418  -7.097  32.464  0.00  0.00    +0.022 A 
ATOM     16  C   UNL     1       8.535  -8.917  32.085  0.00  0.00    +0.259 A 
ATOM     17  C   UNL     1       7.670  -8.591  36.506  0.00  0.00    +0.250 C 
ATOM     18  C   UNL     1       7.229  -9.099  31.359  0.00  0.00    +0.040 A 
ATOM     19  C   UNL     1       6.254  -8.202  31.561  0.00  0.00    +0.015 A 
ENDROOT
BRANCH  17  20
ATOM      6  N   UNL     1       4.326  -9.668  35.221  0.00  0.00    -0.243 NA
ATOM      7  N   UNL     1       4.087  -8.968  37.514  0.00  0.00    -0.243 NA
ATOM     20  C   UNL     1       6.236  -8.891  36.448  0.00  0.00    +0.073 A 
ATOM     22  C   UNL     1       5.641  -9.380  35.308  0.00  0.00    +0.127 A 
ATOM     23  C   UNL     1       5.410  -8.702  37.531  0.00  0.00    +0.127 A 
ATOM     26  C   UNL     1       3.619  -9.442  36.345  0.00  0.00    +0.221 A 
ENDBRANCH  17  20
BRANCH  18  21
ATOM     21  C   UNL     1       7.053 -10.214  30.462  0.00  0.00    +0.014 C 
ATOM     24  C   UNL     1       6.600 -11.408  30.866  0.00  0.00    +0.008 C 
BRANCH  24  25
ATOM      1 CL   UNL     1       5.838 -16.143  27.319  0.00  0.00    -0.084 Cl
ATOM     25  C   UNL     1       6.413 -12.577  29.990  0.00  0.00    -0.025 A 
ATOM     27  C   UNL     1       7.408 -12.917  29.089  0.00  0.00    +0.009 A 
ATOM     28  C   UNL     1       5.244 -13.314  30.085  0.00  0.00    +0.009 A 
ATOM     29  C   UNL     1       7.230 -14.025  28.260  0.00  0.00    +0.020 A 
ATOM     30  C   UNL     1       5.065 -14.422  29.256  0.00  0.00    +0.020 A 
ATOM     31  C   UNL     1       6.058 -14.777  28.343  0.00  0.00    +0.041 A 
ENDBRANCH  24  25
ENDBRANCH  18  21
TORSDOF 3
ENDMDL
MODEL 5
REMARK VINA RESULT:      -6.8     20.635     23.363
REMARK  Name = 11886484
REMARK  3 active torsions:
REMARK  status: ('A' for Active; 'I' for Inactive)
REMARK    1  A    between atoms: C_17  and  C_20
REMARK    2  A    between atoms: C_18  and  C_21
REMARK    3  A    between atoms: C_24  and  C_25
REMARK                            x       y       z     vdW  Elec       q    Type
REMARK                         _______ _______ _______ _____ _____    ______ ____
ROOT
ATOM      2  O   UNL     1     -13.054  11.789  20.189  0.00  0.00    -0.267 OA
ATOM      3  O   UNL     1     -13.663  12.628  15.124  0.00  0.00    -0.270 OA
ATOM      4  N   UNL     1     -11.378  12.786  15.602  0.00  0.00    -0.296 N 
ATOM      5  N   UNL     1     -11.290  12.053  18.687  0.00  0.00    -0.311 N 
ATOM      8  C   UNL     1     -10.810  14.278  17.511  0.00  0.00    +0.027 C 
ATOM      9  C   UNL     1      -9.407  12.313  17.036  0.00  0.00    +0.054 C 
ATOM     10  C   UNL     1      -9.370  13.780  17.464  0.00  0.00    +0.018 C 
ATOM     11  C   UNL     1     -11.470  14.148  16.127  0.00  0.00    +0.113 C 
ATOM     12  C   UNL     1     -11.569  13.494  18.589  0.00  0.00    +0.130 C 
ATOM     13  C   UNL     1     -10.028  12.200  15.630  0.00  0.00    +0.117 C 
ATOM     14  C   UNL     1     -10.207  11.479  18.017  0.00  0.00    +0.027 A 
ATOM     15  C   UNL     1      -9.903  10.186  18.213  0.00  0.00    +0.022 A 
ATOM     16  C   UNL     1     -12.104  11.310  19.567  0.00  0.00    +0.259 A 
ATOM     17  C   UNL     1     -12.533  12.144  15.149  0.00  0.00    +0.250 C 
ATOM     18  C   UNL     1     -11.757   9.856  19.743  0.00  0.00    +0.040 A 
ATOM     19  C   UNL     1     -10.694   9.368  19.088  0.00  0.00    +0.015 A 
ENDROOT
BRANCH  17  20
ATOM      6  N   UNL     1     -12.043   9.206  12.885  0.00  0.00    -0.243 NA
ATOM      7  N   UNL     1     -12.421   8.404  15.126  0.00  0.00    -0.243 NA
ATOM     20  C   UNL     1     -12.409  10.762  14.675  0.00  0.00    +0.073 A 
ATOM     22  C   UNL     1     -12.163  10.465  13.355  0.00  0.00    +0.127 A 
ATOM     23  C   UNL     1     -12.530   9.688  15.527  0.00  0.00    +0.127 A 
ATOM     26  C   UNL     1     -12.181   8.238  13.813  0.00  0.00    +0.221 A 
ENDBRANCH  17  20
BRANCH  18  21
ATOM     21  C   UNL     1     -12.556   9.025  20.608  0.00  0.00    +0.014 C 
ATOM     24  C   UNL     1     -12.363   7.705  20.731  0.00  0.00    +0.008 C 
BRANCH  24  25
ATOM      1 CL   UNL     1     -15.584   4.100  24.224  0.00  0.00    -0.084 Cl
ATOM     25  C   UNL     1     -13.158   6.815  21.593  0.00  0.00    -0.025 A 
ATOM     27  C   UNL     1     -12.678   5.550  21.890  0.00  0.00    +0.009 A 
ATOM     28  C   UNL     1     -14.371   7.260  22.093  0.00  0.00    +0.009 A 
ATOM     29  C   UNL     1     -13.431   4.707  22.707  0.00  0.00    +0.020 A 
ATOM     30  C   UNL     1     -15.125   6.417  22.910  0.00  0.00    +0.020 A 
ATOM     31  C   UNL     1     -14.655   5.140  23.217  0.00  0.00    +0.041 A 
ENDBRANCH  24  25
ENDBRANCH  18  21
TORSDOF 3
ENDMDL
MODEL 6
REMARK VINA RESULT:      -6.7     26.291     29.042
REMARK  Name = 11886484
REMARK  3 active torsions:
REMARK  status: ('A' for Active; 'I' for Inactive)
REMARK    1  A    between atoms: C_17  and  C_20
REMARK    2  A    between atoms: C_18  and  C_21
REMARK    3  A    between atoms: C_24  and  C_25
REMARK                            x       y       z     vdW  Elec       q    Type
REMARK                         _______ _______ _______ _____ _____    ______ ____
ROOT
ATOM      2  O   UNL     1       8.856   7.656   1.957  0.00  0.00    -0.267 OA
ATOM      3  O   UNL     1      11.734  10.584   5.099  0.00  0.00    -0.270 OA
ATOM      4  N   UNL     1      10.802   8.864   6.384  0.00  0.00    -0.296 N 
ATOM      5  N   UNL     1       9.270   7.153   4.195  0.00  0.00    -0.311 N 
ATOM      8  C   UNL     1       8.345   8.573   6.116  0.00  0.00    +0.027 C 
ATOM      9  C   UNL     1       9.761   6.621   6.607  0.00  0.00    +0.054 C 
ATOM     10  C   UNL     1       8.417   7.279   6.919  0.00  0.00    +0.018 C 
ATOM     11  C   UNL     1       9.498   9.514   6.508  0.00  0.00    +0.113 C 
ATOM     12  C   UNL     1       8.363   8.228   4.621  0.00  0.00    +0.130 C 
ATOM     13  C   UNL     1      10.907   7.553   7.045  0.00  0.00    +0.117 C 
ATOM     14  C   UNL     1       9.887   6.315   5.127  0.00  0.00    +0.027 A 
ATOM     15  C   UNL     1      10.619   5.269   4.712  0.00  0.00    +0.022 A 
ATOM     16  C   UNL     1       9.402   6.949   2.806  0.00  0.00    +0.259 A 
ATOM     17  C   UNL     1      11.816   9.490   5.655  0.00  0.00    +0.250 C 
ATOM     18  C   UNL     1      10.253   5.787   2.370  0.00  0.00    +0.040 A 
ATOM     19  C   UNL     1      10.802   5.007   3.312  0.00  0.00    +0.015 A 
ENDROOT
BRANCH  17  20
ATOM      6  N   UNL     1      14.502   7.265   4.301  0.00  0.00    -0.243 NA
ATOM      7  N   UNL     1      15.305   8.311   6.318  0.00  0.00    -0.243 NA
ATOM     20  C   UNL     1      13.094   8.785   5.512  0.00  0.00    +0.073 A 
ATOM     22  C   UNL     1      13.339   7.929   4.463  0.00  0.00    +0.127 A 
ATOM     23  C   UNL     1      14.117   8.943   6.418  0.00  0.00    +0.127 A 
ATOM     26  C   UNL     1      15.428   7.500   5.251  0.00  0.00    +0.221 A 
ENDBRANCH  17  20
BRANCH  18  21
ATOM     21  C   UNL     1      10.453   5.527   0.967  0.00  0.00    +0.014 C 
ATOM     24  C   UNL     1      10.940   4.369   0.503  0.00  0.00    +0.008 C 
BRANCH  24  25
ATOM      1 CL   UNL     1      11.874   3.119  -5.254  0.00  0.00    -0.084 Cl
ATOM     25  C   UNL     1      11.170   4.061  -0.918  0.00  0.00    -0.025 A 
ATOM     27  C   UNL     1      10.367   4.651  -1.880  0.00  0.00    +0.009 A 
ATOM     28  C   UNL     1      12.187   3.186  -1.267  0.00  0.00    +0.009 A 
ATOM     29  C   UNL     1      10.585   4.359  -3.227  0.00  0.00    +0.020 A 
ATOM     30  C   UNL     1      12.405   2.894  -2.613  0.00  0.00    +0.020 A 
ATOM     31  C   UNL     1      11.605   3.481  -3.593  0.00  0.00    +0.041 A 
ENDBRANCH  24  25
ENDBRANCH  18  21
TORSDOF 3
ENDMDL
MODEL 7
REMARK VINA RESULT:      -6.7     27.279     28.807
REMARK  Name = 11886484
REMARK  3 active torsions:
REMARK  status: ('A' for Active; 'I' for Inactive)
REMARK    1  A    between atoms: C_17  and  C_20
REMARK    2  A    between atoms: C_18  and  C_21
REMARK    3  A    between atoms: C_24  and  C_25
REMARK                            x       y       z     vdW  Elec       q    Type
REMARK                         _______ _______ _______ _____ _____    ______ ____
ROOT
ATOM      2  O   UNL     1      12.280   7.694   2.831  0.00  0.00    -0.267 OA
ATOM      3  O   UNL     1      13.554   6.662  -2.072  0.00  0.00    -0.270 OA
ATOM      4  N   UNL     1      13.885   4.710  -0.825  0.00  0.00    -0.296 N 
ATOM      5  N   UNL     1      12.861   5.575   2.051  0.00  0.00    -0.311 N 
ATOM      8  C   UNL     1      15.228   5.009   1.248  0.00  0.00    +0.027 C 
ATOM      9  C   UNL     1      13.465   3.294   1.171  0.00  0.00    +0.054 C 
ATOM     10  C   UNL     1      14.879   3.587   1.672  0.00  0.00    +0.018 C 
ATOM     11  C   UNL     1      15.172   5.143  -0.284  0.00  0.00    +0.113 C 
ATOM     12  C   UNL     1      14.271   5.983   1.949  0.00  0.00    +0.130 C 
ATOM     13  C   UNL     1      13.432   3.387  -0.367  0.00  0.00    +0.117 C 
ATOM     14  C   UNL     1      12.464   4.268   1.763  0.00  0.00    +0.027 A 
ATOM     15  C   UNL     1      11.194   3.888   1.974  0.00  0.00    +0.022 A 
ATOM     16  C   UNL     1      11.959   6.538   2.548  0.00  0.00    +0.259 A 
ATOM     17  C   UNL     1      13.182   5.555  -1.687  0.00  0.00    +0.250 C 
ATOM     18  C   UNL     1      10.535   6.092   2.746  0.00  0.00    +0.040 A 
ATOM     19  C   UNL     1      10.220   4.818   2.471  0.00  0.00    +0.015 A 
ENDROOT
BRANCH  17  20
ATOM      6  N   UNL     1      10.532   4.059  -3.862  0.00  0.00    -0.243 NA
ATOM      7  N   UNL     1       9.504   4.885  -1.845  0.00  0.00    -0.243 NA
ATOM     20  C   UNL     1      11.872   5.107  -2.171  0.00  0.00    +0.073 A 
ATOM     22  C   UNL     1      11.721   4.484  -3.387  0.00  0.00    +0.127 A 
ATOM     23  C   UNL     1      10.725   5.285  -1.432  0.00  0.00    +0.127 A 
ATOM     26  C   UNL     1       9.480   4.288  -3.051  0.00  0.00    +0.221 A 
ENDBRANCH  17  20
BRANCH  18  21
ATOM     21  C   UNL     1       9.549   7.024   3.230  0.00  0.00    +0.014 C 
ATOM     24  C   UNL     1       8.851   7.832   2.421  0.00  0.00    +0.008 C 
BRANCH  24  25
ATOM      1 CL   UNL     1       4.764  11.777   4.240  0.00  0.00    -0.084 Cl
ATOM     25  C   UNL     1       7.842   8.806   2.870  0.00  0.00    -0.025 A 
ATOM     27  C   UNL     1       7.020   9.412   1.934  0.00  0.00    +0.009 A 
ATOM     28  C   UNL     1       7.733   9.097   4.220  0.00  0.00    +0.009 A 
ATOM     29  C   UNL     1       6.064  10.335   2.359  0.00  0.00    +0.020 A 
ATOM     30  C   UNL     1       6.777  10.019   4.645  0.00  0.00    +0.020 A 
ATOM     31  C   UNL     1       5.943  10.638   3.715  0.00  0.00    +0.041 A 
ENDBRANCH  24  25
ENDBRANCH  18  21
TORSDOF 3
ENDMDL
MODEL 8
REMARK VINA RESULT:      -6.6     24.636     26.429
REMARK  Name = 11886484
REMARK  3 active torsions:
REMARK  status: ('A' for Active; 'I' for Inactive)
REMARK    1  A    between atoms: C_17  and  C_20
REMARK    2  A    between atoms: C_18  and  C_21
REMARK    3  A    between atoms: C_24  and  C_25
REMARK                            x       y       z     vdW  Elec       q    Type
REMARK                         _______ _______ _______ _____ _____    ______ ____
ROOT
ATOM      2  O   UNL     1      18.736  -5.949  28.797  0.00  0.00    -0.267 OA
ATOM      3  O   UNL     1      20.266  -2.772  25.016  0.00  0.00    -0.270 OA
ATOM      4  N   UNL     1      19.974  -4.898  24.084  0.00  0.00    -0.296 N 
ATOM      5  N   UNL     1      18.873  -6.561  26.551  0.00  0.00    -0.311 N 
ATOM      8  C   UNL     1      21.108  -6.742  25.311  0.00  0.00    +0.027 C 
ATOM      9  C   UNL     1      19.003  -7.183  24.115  0.00  0.00    +0.054 C 
ATOM     10  C   UNL     1      20.380  -7.760  24.441  0.00  0.00    +0.018 C 
ATOM     11  C   UNL     1      21.258  -5.405  24.564  0.00  0.00    +0.113 C 
ATOM     12  C   UNL     1      20.341  -6.583  26.631  0.00  0.00    +0.130 C 
ATOM     13  C   UNL     1      19.167  -5.869  23.327  0.00  0.00    +0.117 C 
ATOM     14  C   UNL     1      18.207  -6.926  25.379  0.00  0.00    +0.027 A 
ATOM     15  C   UNL     1      16.867  -7.010  25.365  0.00  0.00    +0.022 A 
ATOM     16  C   UNL     1      18.179  -6.255  27.741  0.00  0.00    +0.259 A 
ATOM     17  C   UNL     1      19.597  -3.587  24.383  0.00  0.00    +0.250 C 
ATOM     18  C   UNL     1      16.677  -6.328  27.685  0.00  0.00    +0.040 A 
ATOM     19  C   UNL     1      16.096  -6.704  26.537  0.00  0.00    +0.015 A 
ENDROOT
BRANCH  17  20
ATOM      6  N   UNL     1      16.931  -1.954  22.328  0.00  0.00    -0.243 NA
ATOM      7  N   UNL     1      15.902  -3.014  24.233  0.00  0.00    -0.243 NA
ATOM     20  C   UNL     1      18.280  -3.130  23.927  0.00  0.00    +0.073 A 
ATOM     22  C   UNL     1      18.126  -2.390  22.777  0.00  0.00    +0.127 A 
ATOM     23  C   UNL     1      17.129  -3.418  24.623  0.00  0.00    +0.127 A 
ATOM     26  C   UNL     1      15.877  -2.298  23.094  0.00  0.00    +0.221 A 
ENDBRANCH  17  20
BRANCH  18  21
ATOM     21  C   UNL     1      15.897  -6.008  28.854  0.00  0.00    +0.014 C 
ATOM     24  C   UNL     1      14.678  -6.517  29.078  0.00  0.00    +0.008 C 
BRANCH  24  25
ATOM      1 CL   UNL     1      11.288  -5.281  33.827  0.00  0.00    -0.084 Cl
ATOM     25  C   UNL     1      13.841  -6.212  30.250  0.00  0.00    -0.025 A 
ATOM     27  C   UNL     1      12.646  -6.890  30.426  0.00  0.00    +0.009 A 
ATOM     28  C   UNL     1      14.266  -5.253  31.156  0.00  0.00    +0.009 A 
ATOM     29  C   UNL     1      11.853  -6.601  31.537  0.00  0.00    +0.020 A 
ATOM     30  C   UNL     1      13.473  -4.964  32.267  0.00  0.00    +0.020 A 
ATOM     31  C   UNL     1      12.267  -5.638  32.457  0.00  0.00    +0.041 A 
ENDBRANCH  24  25
ENDBRANCH  18  21
TORSDOF 3
ENDMDL
MODEL 9
REMARK VINA RESULT:      -6.3     30.960     33.531
REMARK  Name = 11886484
REMARK  3 active torsions:
REMARK  status: ('A' for Active; 'I' for Inactive)
REMARK    1  A    between atoms: C_17  and  C_20
REMARK    2  A    between atoms: C_18  and  C_21
REMARK    3  A    between atoms: C_24  and  C_25
REMARK                            x       y       z     vdW  Elec       q    Type
REMARK                         _______ _______ _______ _____ _____    ______ ____
ROOT
ATOM      2  O   UNL     1      20.078   6.588  23.784  0.00  0.00    -0.267 OA
ATOM      3  O   UNL     1      24.397   9.353  23.133  0.00  0.00    -0.270 OA
ATOM      4  N   UNL     1      24.845   7.161  22.445  0.00  0.00    -0.296 N 
ATOM      5  N   UNL     1      22.013   5.768  22.775  0.00  0.00    -0.311 N 
ATOM      8  C   UNL     1      24.189   5.400  24.077  0.00  0.00    +0.027 C 
ATOM      9  C   UNL     1      24.108   4.922  21.664  0.00  0.00    +0.054 C 
ATOM     10  C   UNL     1      24.470   4.331  23.026  0.00  0.00    +0.018 C 
ATOM     11  C   UNL     1      25.034   6.657  23.805  0.00  0.00    +0.113 C 
ATOM     12  C   UNL     1      22.685   5.704  24.081  0.00  0.00    +0.130 C 
ATOM     13  C   UNL     1      24.992   6.153  21.383  0.00  0.00    +0.117 C 
ATOM     14  C   UNL     1      22.646   5.321  21.613  0.00  0.00    +0.027 A 
ATOM     15  C   UNL     1      21.973   5.280  20.453  0.00  0.00    +0.022 A 
ATOM     16  C   UNL     1      20.672   6.205  22.774  0.00  0.00    +0.259 A 
ATOM     17  C   UNL     1      24.523   8.506  22.250  0.00  0.00    +0.250 C 
ATOM     18  C   UNL     1      19.953   6.178  21.452  0.00  0.00    +0.040 A 
ATOM     19  C   UNL     1      20.608   5.718  20.377  0.00  0.00    +0.015 A 
ENDROOT
BRANCH  17  20
ATOM      6  N   UNL     1      25.110   9.984  18.863  0.00  0.00    -0.243 NA
ATOM      7  N   UNL     1      22.823   9.236  18.997  0.00  0.00    -0.243 NA
ATOM     20  C   UNL     1      24.293   8.964  20.875  0.00  0.00    +0.073 A 
ATOM     22  C   UNL     1      25.287   9.552  20.129  0.00  0.00    +0.127 A 
ATOM     23  C   UNL     1      23.070   8.827  20.259  0.00  0.00    +0.127 A 
ATOM     26  C   UNL     1      23.871   9.797  18.367  0.00  0.00    +0.221 A 
ENDBRANCH  17  20
BRANCH  18  21
ATOM     21  C   UNL     1      18.587   6.630  21.366  0.00  0.00    +0.014 C 
ATOM     24  C   UNL     1      17.759   6.260  20.381  0.00  0.00    +0.008 C 
BRANCH  24  25
ATOM      1 CL   UNL     1      12.095   8.049  19.833  0.00  0.00    -0.084 Cl
ATOM     25  C   UNL     1      16.361   6.702  20.246  0.00  0.00    -0.025 A 
ATOM     27  C   UNL     1      15.651   7.067  21.379  0.00  0.00    +0.009 A 
ATOM     28  C   UNL     1      15.781   6.745  18.988  0.00  0.00    +0.009 A 
ATOM     29  C   UNL     1      14.327   7.486  21.251  0.00  0.00    +0.020 A 
ATOM     30  C   UNL     1      14.457   7.163  18.860  0.00  0.00    +0.020 A 
ATOM     31  C   UNL     1      13.729   7.534  19.991  0.00  0.00    +0.041 A 
ENDBRANCH  24  25
ENDBRANCH  18  21
TORSDOF 3
ENDMDL
MODEL 10
REMARK VINA RESULT:      -6.2     10.754     14.475
REMARK  Name = 11886484
REMARK  3 active torsions:
REMARK  status: ('A' for Active; 'I' for Inactive)
REMARK    1  A    between atoms: C_17  and  C_20
REMARK    2  A    between atoms: C_18  and  C_21
REMARK    3  A    between atoms: C_24  and  C_25
REMARK                            x       y       z     vdW  Elec       q    Type
REMARK                         _______ _______ _______ _____ _____    ______ ____
ROOT
ATOM      2  O   UNL     1     -12.430  -7.885   9.591  0.00  0.00    -0.267 OA
ATOM      3  O   UNL     1     -16.641  -5.127  10.770  0.00  0.00    -0.270 OA
ATOM      4  N   UNL     1     -14.845  -4.233  11.974  0.00  0.00    -0.296 N 
ATOM      5  N   UNL     1     -12.408  -5.974  10.925  0.00  0.00    -0.311 N 
ATOM      8  C   UNL     1     -13.502  -5.902  13.241  0.00  0.00    +0.027 C 
ATOM      9  C   UNL     1     -12.413  -3.889  12.338  0.00  0.00    +0.054 C 
ATOM     10  C   UNL     1     -12.463  -4.828  13.543  0.00  0.00    +0.018 C 
ATOM     11  C   UNL     1     -14.884  -5.265  13.010  0.00  0.00    +0.113 C 
ATOM     12  C   UNL     1     -13.032  -6.718  12.029  0.00  0.00    +0.130 C 
ATOM     13  C   UNL     1     -13.788  -3.222  12.145  0.00  0.00    +0.117 C 
ATOM     14  C   UNL     1     -12.026  -4.639  11.078  0.00  0.00    +0.027 A 
ATOM     15  C   UNL     1     -11.354  -4.015  10.098  0.00  0.00    +0.022 A 
ATOM     16  C   UNL     1     -12.125  -6.702   9.751  0.00  0.00    +0.259 A 
ATOM     17  C   UNL     1     -15.757  -4.284  10.918  0.00  0.00    +0.250 C 
ATOM     18  C   UNL     1     -11.398  -5.967   8.658  0.00  0.00    +0.040 A 
ATOM     19  C   UNL     1     -11.040  -4.693   8.872  0.00  0.00    +0.015 A 
ENDROOT
BRANCH  17  20
ATOM      6  N   UNL     1     -16.291  -1.119   8.997  0.00  0.00    -0.243 NA
ATOM      7  N   UNL     1     -14.730  -2.504   7.792  0.00  0.00    -0.243 NA
ATOM     20  C   UNL     1     -15.656  -3.260   9.873  0.00  0.00    +0.073 A 
ATOM     22  C   UNL     1     -16.361  -2.082   9.939  0.00  0.00    +0.127 A 
ATOM     23  C   UNL     1     -14.848  -3.424   8.772  0.00  0.00    +0.127 A 
ATOM     26  C   UNL     1     -15.468  -1.392   7.965  0.00  0.00    +0.221 A 
ENDBRANCH  17  20
BRANCH  18  21
ATOM     21  C   UNL     1     -11.093  -6.637   7.419  0.00  0.00    +0.014 C 
ATOM     24  C   UNL     1      -9.915  -6.510   6.794  0.00  0.00    +0.008 C 
BRANCH  24  25
ATOM      1 CL   UNL     1      -8.480  -9.171   1.652  0.00  0.00    -0.084 Cl
ATOM     25  C   UNL     1      -9.561  -7.166   5.524  0.00  0.00    -0.025 A 
ATOM     27  C   UNL     1     -10.443  -7.103   4.457  0.00  0.00    +0.009 A 
ATOM     28  C   UNL     1      -8.352  -7.835   5.421  0.00  0.00    +0.009 A 
ATOM     29  C   UNL     1     -10.107  -7.725   3.255  0.00  0.00    +0.020 A 
ATOM     30  C   UNL     1      -8.016  -8.457   4.218  0.00  0.00    +0.020 A 
ATOM     31  C   UNL     1      -8.894  -8.402   3.135  0.00  0.00    +0.041 A 
ENDBRANCH  24  25
ENDBRANCH  18  21
TORSDOF 3
ENDMDL
