MODEL 1
REMARK VINA RESULT:      -6.6      0.000      0.000
REMARK  Name = 56774163
REMARK  11 active torsions:
REMARK  status: ('A' for Active; 'I' for Inactive)
REMARK    1  A    between atoms: O_2  and  C_18
REMARK    2  A    between atoms: O_2  and  C_19
REMARK    3  A    between atoms: N_3  and  C_7
REMARK    4  A    between atoms: N_3  and  C_12
REMARK    5  A    between atoms: C_5  and  C_10
REMARK    6  A    between atoms: C_5  and  C_11
REMARK    7  A    between atoms: C_6  and  C_9
REMARK    8  A    between atoms: C_9  and  C_13
REMARK    9  A    between atoms: C_12  and  C_14
REMARK   10  A    between atoms: C_12  and  C_15
REMARK   11  A    between atoms: C_17  and  C_18
REMARK                            x       y       z     vdW  Elec       q    Type
REMARK                         _______ _______ _______ _____ _____    ______ ____
ROOT
ATOM      1  O   UNL     1      -1.326 -10.934  15.134  0.00  0.00    -0.356 OA
ATOM      4  N   UNL     1      -1.910 -10.729  16.378  0.00  0.00    -0.083 NA
ATOM     13  C   UNL     1      -3.221 -10.881  16.173  0.00  0.00    +0.084 A 
ATOM     16  C   UNL     1      -3.522 -11.180  14.834  0.00  0.00    +0.074 A 
ATOM     17  C   UNL     1      -2.296 -11.202  14.222  0.00  0.00    +0.175 A 
ENDROOT
BRANCH  13   9
ATOM      9  C   UNL     1      -4.185 -10.728  17.327  0.00  0.00    +0.063 C 
BRANCH   9   6
ATOM      5  C   UNL     1      -6.707 -11.004  17.921  0.00  0.00    -0.016 C 
ATOM      6  C   UNL     1      -5.610 -10.879  16.843  0.00  0.00    +0.004 C 
ATOM      7  C   UNL     1      -7.593 -10.126  17.012  0.00  0.00    +0.060 C 
ATOM      8  C   UNL     1      -6.287  -9.559  16.417  0.00  0.00    +0.023 C 
ATOM     10  C   UNL     1      -7.286 -12.396  18.110  0.00  0.00    +0.013 C 
ATOM     11  C   UNL     1      -6.310 -10.442  19.269  0.00  0.00    +0.013 C 
BRANCH   7   3
ATOM      3  N   UNL     1      -8.262  -9.073  17.780  0.00  0.00    -0.311 NA
ATOM     25  H   UNL     1      -7.906  -8.133  17.603  0.00  0.00    +0.122 HD
BRANCH   3  12
ATOM     12  C   UNL     1      -9.696  -9.107  17.495  0.00  0.00    +0.048 C 
ATOM     14  C   UNL     1     -10.223  -7.695  17.260  0.00  0.00    +0.023 C 
ATOM     15  C   UNL     1     -10.427  -9.780  18.652  0.00  0.00    +0.023 C 
ENDBRANCH   3  12
ENDBRANCH   7   3
ENDBRANCH   9   6
ENDBRANCH  13   9
BRANCH  17  18
ATOM     18  C   UNL     1      -1.851 -11.446  12.846  0.00  0.00    +0.306 C 
BRANCH  18   2
ATOM      2  O   UNL     1      -1.984 -10.255  12.063  0.00  0.00    -0.484 OA
BRANCH   2  19
ATOM     19  C   UNL     1      -2.836 -10.320  10.996  0.00  0.00    +0.121 A 
ATOM     20  C   UNL     1      -3.385 -11.545  10.615  0.00  0.00    +0.045 A 
ATOM     21  C   UNL     1      -3.159  -9.161  10.290  0.00  0.00    +0.045 A 
ATOM     22  C   UNL     1      -4.255 -11.610   9.526  0.00  0.00    +0.004 A 
ATOM     23  C   UNL     1      -4.029  -9.226   9.202  0.00  0.00    +0.004 A 
ATOM     24  C   UNL     1      -4.577 -10.452   8.819  0.00  0.00    +0.000 A 
ENDBRANCH   2  19
ENDBRANCH  18   2
ENDBRANCH  17  18
TORSDOF 7
ENDMDL
MODEL 2
REMARK VINA RESULT:      -6.1     19.547     21.910
REMARK  Name = 56774163
REMARK  11 active torsions:
REMARK  status: ('A' for Active; 'I' for Inactive)
REMARK    1  A    between atoms: O_2  and  C_18
REMARK    2  A    between atoms: O_2  and  C_19
REMARK    3  A    between atoms: N_3  and  C_7
REMARK    4  A    between atoms: N_3  and  C_12
REMARK    5  A    between atoms: C_5  and  C_10
REMARK    6  A    between atoms: C_5  and  C_11
REMARK    7  A    between atoms: C_6  and  C_9
REMARK    8  A    between atoms: C_9  and  C_13
REMARK    9  A    between atoms: C_12  and  C_14
REMARK   10  A    between atoms: C_12  and  C_15
REMARK   11  A    between atoms: C_17  and  C_18
REMARK                            x       y       z     vdW  Elec       q    Type
REMARK                         _______ _______ _______ _____ _____    ______ ____
ROOT
ATOM      1  O   UNL     1     -16.286   2.738  23.120  0.00  0.00    -0.356 OA
ATOM      4  N   UNL     1     -15.966   3.889  22.410  0.00  0.00    -0.083 NA
ATOM     13  C   UNL     1     -15.709   4.810  23.343  0.00  0.00    +0.084 A 
ATOM     16  C   UNL     1     -15.849   4.304  24.646  0.00  0.00    +0.074 A 
ATOM     17  C   UNL     1     -16.213   2.997  24.451  0.00  0.00    +0.175 A 
ENDROOT
BRANCH  13   9
ATOM      9  C   UNL     1     -15.317   6.209  22.930  0.00  0.00    +0.063 C 
BRANCH   9   6
ATOM      5  C   UNL     1     -14.331   7.530  20.911  0.00  0.00    -0.016 C 
ATOM      6  C   UNL     1     -14.571   6.178  21.615  0.00  0.00    +0.004 C 
ATOM      7  C   UNL     1     -12.937   6.994  20.522  0.00  0.00    +0.060 C 
ATOM      8  C   UNL     1     -13.037   6.064  21.749  0.00  0.00    +0.023 C 
ATOM     10  C   UNL     1     -15.200   7.801  19.695  0.00  0.00    +0.013 C 
ATOM     11  C   UNL     1     -14.390   8.724  21.841  0.00  0.00    +0.013 C 
BRANCH   7   3
ATOM      3  N   UNL     1     -11.896   7.995  20.768  0.00  0.00    -0.311 NA
ATOM     25  H   UNL     1     -11.355   7.839  21.619  0.00  0.00    +0.122 HD
BRANCH   3  12
ATOM     12  C   UNL     1     -10.989   8.037  19.622  0.00  0.00    +0.048 C 
ATOM     14  C   UNL     1     -10.408   9.439  19.457  0.00  0.00    +0.023 C 
ATOM     15  C   UNL     1     -11.737   7.602  18.366  0.00  0.00    +0.023 C 
ENDBRANCH   3  12
ENDBRANCH   7   3
ENDBRANCH   9   6
ENDBRANCH  13   9
BRANCH  17  18
ATOM     18  C   UNL     1     -16.523   1.883  25.353  0.00  0.00    +0.306 C 
BRANCH  18   2
ATOM      2  O   UNL     1     -17.143   2.369  26.547  0.00  0.00    -0.484 OA
BRANCH   2  19
ATOM     19  C   UNL     1     -16.419   2.251  27.700  0.00  0.00    +0.121 A 
ATOM     20  C   UNL     1     -16.284   1.006  28.315  0.00  0.00    +0.045 A 
ATOM     21  C   UNL     1     -15.813   3.375  28.261  0.00  0.00    +0.045 A 
ATOM     22  C   UNL     1     -15.544   0.886  29.492  0.00  0.00    +0.004 A 
ATOM     23  C   UNL     1     -15.073   3.256  29.437  0.00  0.00    +0.004 A 
ATOM     24  C   UNL     1     -14.939   2.011  30.054  0.00  0.00    +0.000 A 
ENDBRANCH   2  19
ENDBRANCH  18   2
ENDBRANCH  17  18
TORSDOF 7
ENDMDL
MODEL 3
REMARK VINA RESULT:      -6.1      1.463      2.255
REMARK  Name = 56774163
REMARK  11 active torsions:
REMARK  status: ('A' for Active; 'I' for Inactive)
REMARK    1  A    between atoms: O_2  and  C_18
REMARK    2  A    between atoms: O_2  and  C_19
REMARK    3  A    between atoms: N_3  and  C_7
REMARK    4  A    between atoms: N_3  and  C_12
REMARK    5  A    between atoms: C_5  and  C_10
REMARK    6  A    between atoms: C_5  and  C_11
REMARK    7  A    between atoms: C_6  and  C_9
REMARK    8  A    between atoms: C_9  and  C_13
REMARK    9  A    between atoms: C_12  and  C_14
REMARK   10  A    between atoms: C_12  and  C_15
REMARK   11  A    between atoms: C_17  and  C_18
REMARK                            x       y       z     vdW  Elec       q    Type
REMARK                         _______ _______ _______ _____ _____    ______ ____
ROOT
ATOM      1  O   UNL     1      -3.404 -12.312  14.703  0.00  0.00    -0.356 OA
ATOM      4  N   UNL     1      -4.071 -12.594  15.890  0.00  0.00    -0.083 NA
ATOM     13  C   UNL     1      -3.838 -11.538  16.675  0.00  0.00    +0.084 A 
ATOM     16  C   UNL     1      -3.039 -10.569  16.045  0.00  0.00    +0.074 A 
ATOM     17  C   UNL     1      -2.794 -11.104  14.807  0.00  0.00    +0.175 A 
ENDROOT
BRANCH  13   9
ATOM      9  C   UNL     1      -4.420 -11.496  18.069  0.00  0.00    +0.063 C 
BRANCH   9   6
ATOM      5  C   UNL     1      -7.012 -11.538  17.805  0.00  0.00    -0.016 C 
ATOM      6  C   UNL     1      -5.724 -10.731  18.069  0.00  0.00    +0.004 C 
ATOM      7  C   UNL     1      -7.694 -10.652  18.868  0.00  0.00    +0.060 C 
ATOM      8  C   UNL     1      -6.292 -10.430  19.472  0.00  0.00    +0.023 C 
ATOM     10  C   UNL     1      -7.629 -11.358  16.428  0.00  0.00    +0.013 C 
ATOM     11  C   UNL     1      -6.881 -13.016  18.103  0.00  0.00    +0.013 C 
BRANCH   7   3
ATOM      3  N   UNL     1      -8.491 -11.456  19.797  0.00  0.00    -0.311 NA
ATOM     25  H   UNL     1      -8.066 -11.579  20.717  0.00  0.00    +0.122 HD
BRANCH   3  12
ATOM     12  C   UNL     1      -9.810 -10.846  19.953  0.00  0.00    +0.048 C 
ATOM     14  C   UNL     1     -10.871 -11.923  20.162  0.00  0.00    +0.023 C 
ATOM     15  C   UNL     1     -10.125  -9.997  18.726  0.00  0.00    +0.023 C 
ENDBRANCH   3  12
ENDBRANCH   7   3
ENDBRANCH   9   6
ENDBRANCH  13   9
BRANCH  17  18
ATOM     18  C   UNL     1      -2.039 -10.648  13.635  0.00  0.00    +0.306 C 
BRANCH  18   2
ATOM      2  O   UNL     1      -2.177 -11.583  12.561  0.00  0.00    -0.484 OA
BRANCH   2  19
ATOM     19  C   UNL     1      -2.829 -11.138  11.446  0.00  0.00    +0.121 A 
ATOM     20  C   UNL     1      -2.785  -9.786  11.105  0.00  0.00    +0.045 A 
ATOM     21  C   UNL     1      -3.538 -12.036  10.647  0.00  0.00    +0.045 A 
ATOM     22  C   UNL     1      -3.451  -9.332   9.965  0.00  0.00    +0.004 A 
ATOM     23  C   UNL     1      -4.203 -11.582   9.509  0.00  0.00    +0.004 A 
ATOM     24  C   UNL     1      -4.161 -10.230   9.168  0.00  0.00    +0.000 A 
ENDBRANCH   2  19
ENDBRANCH  18   2
ENDBRANCH  17  18
TORSDOF 7
ENDMDL
MODEL 4
REMARK VINA RESULT:      -6.0     22.465     26.074
REMARK  Name = 56774163
REMARK  11 active torsions:
REMARK  status: ('A' for Active; 'I' for Inactive)
REMARK    1  A    between atoms: O_2  and  C_18
REMARK    2  A    between atoms: O_2  and  C_19
REMARK    3  A    between atoms: N_3  and  C_7
REMARK    4  A    between atoms: N_3  and  C_12
REMARK    5  A    between atoms: C_5  and  C_10
REMARK    6  A    between atoms: C_5  and  C_11
REMARK    7  A    between atoms: C_6  and  C_9
REMARK    8  A    between atoms: C_9  and  C_13
REMARK    9  A    between atoms: C_12  and  C_14
REMARK   10  A    between atoms: C_12  and  C_15
REMARK   11  A    between atoms: C_17  and  C_18
REMARK                            x       y       z     vdW  Elec       q    Type
REMARK                         _______ _______ _______ _____ _____    ______ ____
ROOT
ATOM      1  O   UNL     1     -13.946   5.184  35.116  0.00  0.00    -0.356 OA
ATOM      4  N   UNL     1     -13.511   6.503  35.176  0.00  0.00    -0.083 NA
ATOM     13  C   UNL     1     -13.457   6.906  33.903  0.00  0.00    +0.084 A 
ATOM     16  C   UNL     1     -13.842   5.896  33.006  0.00  0.00    +0.074 A 
ATOM     17  C   UNL     1     -14.140   4.834  33.819  0.00  0.00    +0.175 A 
ENDROOT
BRANCH  13   9
ATOM      9  C   UNL     1     -13.018   8.315  33.580  0.00  0.00    +0.063 C 
BRANCH   9   6
ATOM      5  C   UNL     1     -13.202   9.788  31.438  0.00  0.00    -0.016 C 
ATOM      6  C   UNL     1     -12.773   8.459  32.095  0.00  0.00    +0.004 C 
ATOM      7  C   UNL     1     -11.920   9.692  30.584  0.00  0.00    +0.060 C 
ATOM      8  C   UNL     1     -11.323   8.830  31.715  0.00  0.00    +0.023 C 
ATOM     10  C   UNL     1     -14.460   9.725  30.589  0.00  0.00    +0.013 C 
ATOM     11  C   UNL     1     -13.313  10.944  32.409  0.00  0.00    +0.013 C 
BRANCH   7   3
ATOM      3  N   UNL     1     -11.214  10.974  30.540  0.00  0.00    -0.311 NA
ATOM     25  H   UNL     1     -10.271  10.949  30.930  0.00  0.00    +0.122 HD
BRANCH   3  12
ATOM     12  C   UNL     1     -11.150  11.442  29.156  0.00  0.00    +0.048 C 
ATOM     14  C   UNL     1     -12.290  12.417  28.873  0.00  0.00    +0.023 C 
ATOM     15  C   UNL     1     -11.206  10.245  28.213  0.00  0.00    +0.023 C 
ENDBRANCH   3  12
ENDBRANCH   7   3
ENDBRANCH   9   6
ENDBRANCH  13   9
BRANCH  17  18
ATOM     18  C   UNL     1     -14.602   3.464  33.573  0.00  0.00    +0.306 C 
BRANCH  18   2
ATOM      2  O   UNL     1     -13.739   2.808  32.639  0.00  0.00    -0.484 OA
BRANCH   2  19
ATOM     19  C   UNL     1     -14.343   2.193  31.579  0.00  0.00    +0.121 A 
ATOM     20  C   UNL     1     -14.714   0.851  31.670  0.00  0.00    +0.045 A 
ATOM     21  C   UNL     1     -14.591   2.907  30.406  0.00  0.00    +0.045 A 
ATOM     22  C   UNL     1     -15.333   0.223  30.588  0.00  0.00    +0.004 A 
ATOM     23  C   UNL     1     -15.208   2.280  29.324  0.00  0.00    +0.004 A 
ATOM     24  C   UNL     1     -15.579   0.937  29.415  0.00  0.00    +0.000 A 
ENDBRANCH   2  19
ENDBRANCH  18   2
ENDBRANCH  17  18
TORSDOF 7
ENDMDL
MODEL 5
REMARK VINA RESULT:      -5.9      2.877      7.422
REMARK  Name = 56774163
REMARK  11 active torsions:
REMARK  status: ('A' for Active; 'I' for Inactive)
REMARK    1  A    between atoms: O_2  and  C_18
REMARK    2  A    between atoms: O_2  and  C_19
REMARK    3  A    between atoms: N_3  and  C_7
REMARK    4  A    between atoms: N_3  and  C_12
REMARK    5  A    between atoms: C_5  and  C_10
REMARK    6  A    between atoms: C_5  and  C_11
REMARK    7  A    between atoms: C_6  and  C_9
REMARK    8  A    between atoms: C_9  and  C_13
REMARK    9  A    between atoms: C_12  and  C_14
REMARK   10  A    between atoms: C_12  and  C_15
REMARK   11  A    between atoms: C_17  and  C_18
REMARK                            x       y       z     vdW  Elec       q    Type
REMARK                         _______ _______ _______ _____ _____    ______ ____
ROOT
ATOM      1  O   UNL     1      -2.011 -12.130  13.659  0.00  0.00    -0.356 OA
ATOM      4  N   UNL     1      -1.924 -11.808  12.309  0.00  0.00    -0.083 NA
ATOM     13  C   UNL     1      -2.801 -10.816  12.135  0.00  0.00    +0.084 A 
ATOM     16  C   UNL     1      -3.463 -10.472  13.325  0.00  0.00    +0.074 A 
ATOM     17  C   UNL     1      -2.930 -11.327  14.253  0.00  0.00    +0.175 A 
ENDROOT
BRANCH  13   9
ATOM      9  C   UNL     1      -2.979 -10.202  10.765  0.00  0.00    +0.063 C 
BRANCH   9   6
ATOM      5  C   UNL     1      -5.412  -9.417  10.261  0.00  0.00    -0.016 C 
ATOM      6  C   UNL     1      -4.348 -10.534  10.216  0.00  0.00    +0.004 C 
ATOM      7  C   UNL     1      -5.883  -9.915   8.878  0.00  0.00    +0.060 C 
ATOM      8  C   UNL     1      -4.457 -10.470   8.678  0.00  0.00    +0.023 C 
ATOM     10  C   UNL     1      -6.488  -9.575  11.322  0.00  0.00    +0.013 C 
ATOM     11  C   UNL     1      -4.832  -8.021  10.344  0.00  0.00    +0.013 C 
BRANCH   7   3
ATOM      3  N   UNL     1      -6.092  -8.798   7.954  0.00  0.00    -0.311 NA
ATOM     25  H   UNL     1      -5.517  -8.835   7.112  0.00  0.00    +0.122 HD
BRANCH   3  12
ATOM     12  C   UNL     1      -7.502  -8.746   7.573  0.00  0.00    +0.048 C 
ATOM     14  C   UNL     1      -8.207  -7.606   8.305  0.00  0.00    +0.023 C 
ATOM     15  C   UNL     1      -8.161 -10.086   7.882  0.00  0.00    +0.023 C 
ENDBRANCH   3  12
ENDBRANCH   7   3
ENDBRANCH   9   6
ENDBRANCH  13   9
BRANCH  17  18
ATOM     18  C   UNL     1      -3.149 -11.534  15.689  0.00  0.00    +0.306 C 
BRANCH  18   2
ATOM      2  O   UNL     1      -3.488 -10.297  16.322  0.00  0.00    -0.484 OA
BRANCH   2  19
ATOM     19  C   UNL     1      -4.703 -10.246  16.946  0.00  0.00    +0.121 A 
ATOM     20  C   UNL     1      -5.784  -9.624  16.319  0.00  0.00    +0.045 A 
ATOM     21  C   UNL     1      -4.864 -10.816  18.209  0.00  0.00    +0.045 A 
ATOM     22  C   UNL     1      -7.025  -9.573  16.957  0.00  0.00    +0.004 A 
ATOM     23  C   UNL     1      -6.103 -10.765  18.846  0.00  0.00    +0.004 A 
ATOM     24  C   UNL     1      -7.184 -10.142  18.220  0.00  0.00    +0.000 A 
ENDBRANCH   2  19
ENDBRANCH  18   2
ENDBRANCH  17  18
TORSDOF 7
ENDMDL
MODEL 6
REMARK VINA RESULT:      -5.9     23.875     26.606
REMARK  Name = 56774163
REMARK  11 active torsions:
REMARK  status: ('A' for Active; 'I' for Inactive)
REMARK    1  A    between atoms: O_2  and  C_18
REMARK    2  A    between atoms: O_2  and  C_19
REMARK    3  A    between atoms: N_3  and  C_7
REMARK    4  A    between atoms: N_3  and  C_12
REMARK    5  A    between atoms: C_5  and  C_10
REMARK    6  A    between atoms: C_5  and  C_11
REMARK    7  A    between atoms: C_6  and  C_9
REMARK    8  A    between atoms: C_9  and  C_13
REMARK    9  A    between atoms: C_12  and  C_14
REMARK   10  A    between atoms: C_12  and  C_15
REMARK   11  A    between atoms: C_17  and  C_18
REMARK                            x       y       z     vdW  Elec       q    Type
REMARK                         _______ _______ _______ _____ _____    ______ ____
ROOT
ATOM      1  O   UNL     1       0.486   3.231  -4.094  0.00  0.00    -0.356 OA
ATOM      4  N   UNL     1       1.385   4.288  -4.019  0.00  0.00    -0.083 NA
ATOM     13  C   UNL     1       2.364   3.970  -4.871  0.00  0.00    +0.084 A 
ATOM     16  C   UNL     1       2.139   2.738  -5.507  0.00  0.00    +0.074 A 
ATOM     17  C   UNL     1       0.945   2.315  -4.984  0.00  0.00    +0.175 A 
ENDROOT
BRANCH  13   9
ATOM      9  C   UNL     1       3.535   4.907  -5.054  0.00  0.00    +0.063 C 
BRANCH   9   6
ATOM      5  C   UNL     1       4.543   7.029  -3.926  0.00  0.00    -0.016 C 
ATOM      6  C   UNL     1       3.299   6.195  -4.297  0.00  0.00    +0.004 C 
ATOM      7  C   UNL     1       3.704   8.283  -4.248  0.00  0.00    +0.060 C 
ATOM      8  C   UNL     1       2.858   7.385  -5.174  0.00  0.00    +0.023 C 
ATOM     10  C   UNL     1       4.958   6.978  -2.465  0.00  0.00    +0.013 C 
ATOM     11  C   UNL     1       5.750   6.750  -4.796  0.00  0.00    +0.013 C 
BRANCH   7   3
ATOM      3  N   UNL     1       4.460   9.233  -5.067  0.00  0.00    -0.311 NA
ATOM     25  H   UNL     1       4.154   9.286  -6.039  0.00  0.00    +0.122 HD
BRANCH   3  12
ATOM     12  C   UNL     1       4.379  10.562  -4.463  0.00  0.00    +0.048 C 
ATOM     14  C   UNL     1       3.531  10.516  -3.195  0.00  0.00    +0.023 C 
ATOM     15  C   UNL     1       3.799  11.545  -5.474  0.00  0.00    +0.023 C 
ENDBRANCH   3  12
ENDBRANCH   7   3
ENDBRANCH   9   6
ENDBRANCH  13   9
BRANCH  17  18
ATOM     18  C   UNL     1       0.111   1.125  -5.188  0.00  0.00    +0.306 C 
BRANCH  18   2
ATOM      2  O   UNL     1      -0.090   0.894  -6.586  0.00  0.00    -0.484 OA
BRANCH   2  19
ATOM     19  C   UNL     1      -1.185   0.151  -6.928  0.00  0.00    +0.121 A 
ATOM     20  C   UNL     1      -1.320  -1.154  -6.453  0.00  0.00    +0.045 A 
ATOM     21  C   UNL     1      -2.170   0.698  -7.751  0.00  0.00    +0.045 A 
ATOM     22  C   UNL     1      -2.439  -1.911  -6.802  0.00  0.00    +0.004 A 
ATOM     23  C   UNL     1      -3.288  -0.059  -8.101  0.00  0.00    +0.004 A 
ATOM     24  C   UNL     1      -3.422  -1.365  -7.626  0.00  0.00    +0.000 A 
ENDBRANCH   2  19
ENDBRANCH  18   2
ENDBRANCH  17  18
TORSDOF 7
ENDMDL
MODEL 7
REMARK VINA RESULT:      -5.9     23.707     26.602
REMARK  Name = 56774163
REMARK  11 active torsions:
REMARK  status: ('A' for Active; 'I' for Inactive)
REMARK    1  A    between atoms: O_2  and  C_18
REMARK    2  A    between atoms: O_2  and  C_19
REMARK    3  A    between atoms: N_3  and  C_7
REMARK    4  A    between atoms: N_3  and  C_12
REMARK    5  A    between atoms: C_5  and  C_10
REMARK    6  A    between atoms: C_5  and  C_11
REMARK    7  A    between atoms: C_6  and  C_9
REMARK    8  A    between atoms: C_9  and  C_13
REMARK    9  A    between atoms: C_12  and  C_14
REMARK   10  A    between atoms: C_12  and  C_15
REMARK   11  A    between atoms: C_17  and  C_18
REMARK                            x       y       z     vdW  Elec       q    Type
REMARK                         _______ _______ _______ _____ _____    ______ ____
ROOT
ATOM      1  O   UNL     1       0.319   2.766  -3.948  0.00  0.00    -0.356 OA
ATOM      4  N   UNL     1       0.642   4.091  -3.677  0.00  0.00    -0.083 NA
ATOM     13  C   UNL     1       1.273   4.523  -4.773  0.00  0.00    +0.084 A 
ATOM     16  C   UNL     1       1.375   3.526  -5.758  0.00  0.00    +0.074 A 
ATOM     17  C   UNL     1       0.760   2.442  -5.190  0.00  0.00    +0.175 A 
ENDROOT
BRANCH  13   9
ATOM      9  C   UNL     1       1.776   5.946  -4.838  0.00  0.00    +0.063 C 
BRANCH   9   6
ATOM      5  C   UNL     1       3.955   7.326  -5.211  0.00  0.00    -0.016 C 
ATOM      6  C   UNL     1       3.285   5.964  -4.935  0.00  0.00    +0.004 C 
ATOM      7  C   UNL     1       5.063   6.895  -4.227  0.00  0.00    +0.060 C 
ATOM      8  C   UNL     1       4.016   5.967  -3.576  0.00  0.00    +0.023 C 
ATOM     10  C   UNL     1       4.487   7.523  -6.620  0.00  0.00    +0.013 C 
ATOM     11  C   UNL     1       3.102   8.517  -4.830  0.00  0.00    +0.013 C 
BRANCH   7   3
ATOM      3  N   UNL     1       5.390   7.973  -3.291  0.00  0.00    -0.311 NA
ATOM     25  H   UNL     1       5.048   7.824  -2.341  0.00  0.00    +0.122 HD
BRANCH   3  12
ATOM     12  C   UNL     1       6.840   8.158  -3.258  0.00  0.00    +0.048 C 
ATOM     14  C   UNL     1       7.312   8.870  -4.523  0.00  0.00    +0.023 C 
ATOM     15  C   UNL     1       7.522   6.803  -3.105  0.00  0.00    +0.023 C 
ENDBRANCH   3  12
ENDBRANCH   7   3
ENDBRANCH   9   6
ENDBRANCH  13   9
BRANCH  17  18
ATOM     18  C   UNL     1       0.499   1.070  -5.639  0.00  0.00    +0.306 C 
BRANCH  18   2
ATOM      2  O   UNL     1      -0.104   1.079  -6.936  0.00  0.00    -0.484 OA
BRANCH   2  19
ATOM     19  C   UNL     1      -1.185   0.260  -7.110  0.00  0.00    +0.121 A 
ATOM     20  C   UNL     1      -1.241  -0.970  -6.455  0.00  0.00    +0.045 A 
ATOM     21  C   UNL     1      -2.233   0.656  -7.942  0.00  0.00    +0.045 A 
ATOM     22  C   UNL     1      -2.346  -1.805  -6.633  0.00  0.00    +0.004 A 
ATOM     23  C   UNL     1      -3.336  -0.178  -8.120  0.00  0.00    +0.004 A 
ATOM     24  C   UNL     1      -3.393  -1.409  -7.465  0.00  0.00    +0.000 A 
ENDBRANCH   2  19
ENDBRANCH  18   2
ENDBRANCH  17  18
TORSDOF 7
ENDMDL
MODEL 8
REMARK VINA RESULT:      -5.9     19.896     22.000
REMARK  Name = 56774163
REMARK  11 active torsions:
REMARK  status: ('A' for Active; 'I' for Inactive)
REMARK    1  A    between atoms: O_2  and  C_18
REMARK    2  A    between atoms: O_2  and  C_19
REMARK    3  A    between atoms: N_3  and  C_7
REMARK    4  A    between atoms: N_3  and  C_12
REMARK    5  A    between atoms: C_5  and  C_10
REMARK    6  A    between atoms: C_5  and  C_11
REMARK    7  A    between atoms: C_6  and  C_9
REMARK    8  A    between atoms: C_9  and  C_13
REMARK    9  A    between atoms: C_12  and  C_14
REMARK   10  A    between atoms: C_12  and  C_15
REMARK   11  A    between atoms: C_17  and  C_18
REMARK                            x       y       z     vdW  Elec       q    Type
REMARK                         _______ _______ _______ _____ _____    ______ ____
ROOT
ATOM      1  O   UNL     1     -16.408   1.417  25.074  0.00  0.00    -0.356 OA
ATOM      4  N   UNL     1     -16.216   2.442  24.155  0.00  0.00    -0.083 NA
ATOM     13  C   UNL     1     -16.230   3.563  24.882  0.00  0.00    +0.084 A 
ATOM     16  C   UNL     1     -16.425   3.311  26.250  0.00  0.00    +0.074 A 
ATOM     17  C   UNL     1     -16.531   1.946  26.318  0.00  0.00    +0.175 A 
ENDROOT
BRANCH  13   9
ATOM      9  C   UNL     1     -16.046   4.901  24.204  0.00  0.00    +0.063 C 
BRANCH   9   6
ATOM      5  C   UNL     1     -15.403   5.854  21.865  0.00  0.00    -0.016 C 
ATOM      6  C   UNL     1     -15.268   4.734  22.918  0.00  0.00    +0.004 C 
ATOM      7  C   UNL     1     -13.898   5.663  21.580  0.00  0.00    +0.060 C 
ATOM      8  C   UNL     1     -13.775   5.112  23.016  0.00  0.00    +0.023 C 
ATOM     10  C   UNL     1     -16.261   5.520  20.657  0.00  0.00    +0.013 C 
ATOM     11  C   UNL     1     -15.845   7.184  22.438  0.00  0.00    +0.013 C 
BRANCH   7   3
ATOM      3  N   UNL     1     -13.205   6.951  21.504  0.00  0.00    -0.311 NA
ATOM     25  H   UNL     1     -12.461   7.070  22.193  0.00  0.00    +0.122 HD
BRANCH   3  12
ATOM     12  C   UNL     1     -12.649   7.119  20.162  0.00  0.00    +0.048 C 
ATOM     14  C   UNL     1     -11.254   7.732  20.239  0.00  0.00    +0.023 C 
ATOM     15  C   UNL     1     -13.585   7.990  19.330  0.00  0.00    +0.023 C 
ENDBRANCH   3  12
ENDBRANCH   7   3
ENDBRANCH   9   6
ENDBRANCH  13   9
BRANCH  17  18
ATOM     18  C   UNL     1     -16.741   0.996  27.415  0.00  0.00    +0.306 C 
BRANCH  18   2
ATOM      2  O   UNL     1     -16.979   1.697  28.640  0.00  0.00    -0.484 OA
BRANCH   2  19
ATOM     19  C   UNL     1     -15.946   1.727  29.534  0.00  0.00    +0.121 A 
ATOM     20  C   UNL     1     -15.832   2.789  30.432  0.00  0.00    +0.045 A 
ATOM     21  C   UNL     1     -15.007   0.696  29.552  0.00  0.00    +0.045 A 
ATOM     22  C   UNL     1     -14.777   2.819  31.346  0.00  0.00    +0.004 A 
ATOM     23  C   UNL     1     -13.954   0.725  30.465  0.00  0.00    +0.004 A 
ATOM     24  C   UNL     1     -13.838   1.788  31.362  0.00  0.00    +0.000 A 
ENDBRANCH   2  19
ENDBRANCH  18   2
ENDBRANCH  17  18
TORSDOF 7
ENDMDL
MODEL 9
REMARK VINA RESULT:      -5.8     19.457     21.672
REMARK  Name = 56774163
REMARK  11 active torsions:
REMARK  status: ('A' for Active; 'I' for Inactive)
REMARK    1  A    between atoms: O_2  and  C_18
REMARK    2  A    between atoms: O_2  and  C_19
REMARK    3  A    between atoms: N_3  and  C_7
REMARK    4  A    between atoms: N_3  and  C_12
REMARK    5  A    between atoms: C_5  and  C_10
REMARK    6  A    between atoms: C_5  and  C_11
REMARK    7  A    between atoms: C_6  and  C_9
REMARK    8  A    between atoms: C_9  and  C_13
REMARK    9  A    between atoms: C_12  and  C_14
REMARK   10  A    between atoms: C_12  and  C_15
REMARK   11  A    between atoms: C_17  and  C_18
REMARK                            x       y       z     vdW  Elec       q    Type
REMARK                         _______ _______ _______ _____ _____    ______ ____
ROOT
ATOM      1  O   UNL     1     -14.627   7.454  22.346  0.00  0.00    -0.356 OA
ATOM      4  N   UNL     1     -13.538   7.961  21.648  0.00  0.00    -0.083 NA
ATOM     13  C   UNL     1     -12.876   6.885  21.213  0.00  0.00    +0.084 A 
ATOM     16  C   UNL     1     -13.493   5.685  21.601  0.00  0.00    +0.074 A 
ATOM     17  C   UNL     1     -14.590   6.097  22.311  0.00  0.00    +0.175 A 
ENDROOT
BRANCH  13   9
ATOM      9  C   UNL     1     -11.615   7.057  20.399  0.00  0.00    +0.063 C 
BRANCH   9   6
ATOM      5  C   UNL     1     -11.388   9.283  19.063  0.00  0.00    -0.016 C 
ATOM      6  C   UNL     1     -11.908   7.832  19.134  0.00  0.00    +0.004 C 
ATOM      7  C   UNL     1     -11.059   9.012  17.580  0.00  0.00    +0.060 C 
ATOM      8  C   UNL     1     -10.965   7.518  17.954  0.00  0.00    +0.023 C 
ATOM     10  C   UNL     1     -12.440  10.367  19.227  0.00  0.00    +0.013 C 
ATOM     11  C   UNL     1     -10.232   9.566  19.998  0.00  0.00    +0.013 C 
BRANCH   7   3
ATOM      3  N   UNL     1      -9.722   9.501  17.235  0.00  0.00    -0.311 NA
ATOM     25  H   UNL     1      -9.124   8.808  16.785  0.00  0.00    +0.122 HD
BRANCH   3  12
ATOM     12  C   UNL     1      -9.847  10.668  16.363  0.00  0.00    +0.048 C 
ATOM     14  C   UNL     1      -9.711  11.953  17.174  0.00  0.00    +0.023 C 
ATOM     15  C   UNL     1     -11.188  10.618  15.637  0.00  0.00    +0.023 C 
ENDBRANCH   3  12
ENDBRANCH   7   3
ENDBRANCH   9   6
ENDBRANCH  13   9
BRANCH  17  18
ATOM     18  C   UNL     1     -15.675   5.394  23.005  0.00  0.00    +0.306 C 
BRANCH  18   2
ATOM      2  O   UNL     1     -15.654   4.002  22.677  0.00  0.00    -0.484 OA
BRANCH   2  19
ATOM     19  C   UNL     1     -16.303   3.164  23.540  0.00  0.00    +0.121 A 
ATOM     20  C   UNL     1     -15.867   3.048  24.860  0.00  0.00    +0.045 A 
ATOM     21  C   UNL     1     -17.401   2.425  23.101  0.00  0.00    +0.045 A 
ATOM     22  C   UNL     1     -16.531   2.192  25.741  0.00  0.00    +0.004 A 
ATOM     23  C   UNL     1     -18.064   1.569  23.980  0.00  0.00    +0.004 A 
ATOM     24  C   UNL     1     -17.628   1.453  25.301  0.00  0.00    +0.000 A 
ENDBRANCH   2  19
ENDBRANCH  18   2
ENDBRANCH  17  18
TORSDOF 7
ENDMDL
MODEL 10
REMARK VINA RESULT:      -5.8     25.087     28.266
REMARK  Name = 56774163
REMARK  11 active torsions:
REMARK  status: ('A' for Active; 'I' for Inactive)
REMARK    1  A    between atoms: O_2  and  C_18
REMARK    2  A    between atoms: O_2  and  C_19
REMARK    3  A    between atoms: N_3  and  C_7
REMARK    4  A    between atoms: N_3  and  C_12
REMARK    5  A    between atoms: C_5  and  C_10
REMARK    6  A    between atoms: C_5  and  C_11
REMARK    7  A    between atoms: C_6  and  C_9
REMARK    8  A    between atoms: C_9  and  C_13
REMARK    9  A    between atoms: C_12  and  C_14
REMARK   10  A    between atoms: C_12  and  C_15
REMARK   11  A    between atoms: C_17  and  C_18
REMARK                            x       y       z     vdW  Elec       q    Type
REMARK                         _______ _______ _______ _____ _____    ______ ____
ROOT
ATOM      1  O   UNL     1      14.947   9.191   3.387  0.00  0.00    -0.356 OA
ATOM      4  N   UNL     1      13.594   8.879   3.334  0.00  0.00    -0.083 NA
ATOM     13  C   UNL     1      13.545   7.545   3.359  0.00  0.00    +0.084 A 
ATOM     16  C   UNL     1      14.823   6.965   3.428  0.00  0.00    +0.074 A 
ATOM     17  C   UNL     1      15.670   8.043   3.443  0.00  0.00    +0.175 A 
ENDROOT
BRANCH  13   9
ATOM      9  C   UNL     1      12.209   6.840   3.317  0.00  0.00    +0.063 C 
BRANCH   9   6
ATOM      5  C   UNL     1      10.274   6.222   4.949  0.00  0.00    -0.016 C 
ATOM      6  C   UNL     1      11.384   7.208   4.529  0.00  0.00    +0.004 C 
ATOM      7  C   UNL     1      10.658   6.531   6.411  0.00  0.00    +0.060 C 
ATOM      8  C   UNL     1      12.059   6.904   5.883  0.00  0.00    +0.023 C 
ATOM     10  C   UNL     1       8.854   6.656   4.628  0.00  0.00    +0.013 C 
ATOM     11  C   UNL     1      10.488   4.809   4.450  0.00  0.00    +0.013 C 
BRANCH   7   3
ATOM      3  N   UNL     1      10.761   5.303   7.203  0.00  0.00    -0.311 NA
ATOM     25  H   UNL     1      11.716   4.976   7.351  0.00  0.00    +0.122 HD
BRANCH   3  12
ATOM     12  C   UNL     1      10.117   5.511   8.500  0.00  0.00    +0.048 C 
ATOM     14  C   UNL     1       9.498   4.209   8.999  0.00  0.00    +0.023 C 
ATOM     15  C   UNL     1       9.064   6.606   8.373  0.00  0.00    +0.023 C 
ENDBRANCH   3  12
ENDBRANCH   7   3
ENDBRANCH   9   6
ENDBRANCH  13   9
BRANCH  17  18
ATOM     18  C   UNL     1      17.128   8.189   3.504  0.00  0.00    +0.306 C 
BRANCH  18   2
ATOM      2  O   UNL     1      17.529   8.625   4.805  0.00  0.00    -0.484 OA
BRANCH   2  19
ATOM     19  C   UNL     1      18.797   8.294   5.195  0.00  0.00    +0.121 A 
ATOM     20  C   UNL     1      19.234   8.603   6.483  0.00  0.00    +0.045 A 
ATOM     21  C   UNL     1      19.653   7.645   4.305  0.00  0.00    +0.045 A 
ATOM     22  C   UNL     1      20.528   8.264   6.880  0.00  0.00    +0.004 A 
ATOM     23  C   UNL     1      20.946   7.306   4.701  0.00  0.00    +0.004 A 
ATOM     24  C   UNL     1      21.384   7.616   5.990  0.00  0.00    +0.000 A 
ENDBRANCH   2  19
ENDBRANCH  18   2
ENDBRANCH  17  18
TORSDOF 7
ENDMDL
