REMARK  Name = 28959956
REMARK  8 active torsions:
REMARK  status: ('A' for Active; 'I' for Inactive)
REMARK    1  A    between atoms: O_3  and  C_22
REMARK    2  A    between atoms: N_7  and  C_15
REMARK    3  A    between atoms: N_8  and  C_24
REMARK    4  A    between atoms: C_9  and  C_12
REMARK    5  A    between atoms: C_10  and  C_16
REMARK    6  A    between atoms: C_12  and  C_15
REMARK    7  A    between atoms: C_16  and  C_22
REMARK    8  A    between atoms: C_21  and  C_23
REMARK                            x       y       z     vdW  Elec       q    Type
REMARK                         _______ _______ _______ _____ _____    ______ ____
ROOT
ATOM      4  O   UNL     1      -4.107   2.591  -2.100  0.00  0.00    -0.269 OA
ATOM      6  N   UNL     1      -4.081   1.080  -0.314  0.00  0.00    -0.297 N 
ATOM      9  C   UNL     1      -2.944  -0.730   0.954  0.00  0.00    +0.011 C 
ATOM     10  C   UNL     1      -3.925  -1.744   0.310  0.00  0.00    +0.006 C 
ATOM     11  C   UNL     1      -3.594   0.665   1.009  0.00  0.00    +0.112 C 
ATOM     13  C   UNL     1      -4.443  -1.244  -1.049  0.00  0.00    +0.023 C 
ATOM     14  C   UNL     1      -5.032   0.159  -0.934  0.00  0.00    +0.108 C 
ATOM     21  C   UNL     1      -3.706   2.243  -0.990  0.00  0.00    +0.253 C 
ENDROOT
BRANCH  21  23
ATOM      1  S   UNL     1      -1.258   3.476  -1.109  0.00  0.00    -0.092 S 
ATOM     23  C   UNL     1      -2.749   3.143  -0.337  0.00  0.00    +0.074 A 
ATOM     25  C   UNL     1      -2.866   3.800   0.868  0.00  0.00    +0.021 A 
ATOM     28  C   UNL     1      -1.716   4.588   1.161  0.00  0.00    +0.008 A 
ATOM     31  C   UNL     1      -0.764   4.503   0.169  0.00  0.00    +0.046 A 
ENDBRANCH  21  23
BRANCH   9  12
ATOM     12  C   UNL     1      -1.580  -0.655   0.258  0.00  0.00    +0.020 C 
BRANCH  12  15
ATOM     15  C   UNL     1      -0.502  -0.185   1.225  0.00  0.00    +0.085 C 
BRANCH  15   7
ATOM      7  N   UNL     1       0.784  -0.105   0.534  0.00  0.00    -0.299 NA
ATOM      8  N   UNL     1       3.617  -0.356   0.260  0.00  0.00    -0.327 N 
ATOM     17  C   UNL     1       1.409  -1.431   0.454  0.00  0.00    +0.103 C 
ATOM     18  C   UNL     1       1.683   0.828   1.225  0.00  0.00    +0.103 C 
ATOM     19  C   UNL     1       2.730  -1.372  -0.317  0.00  0.00    +0.120 C 
ATOM     20  C   UNL     1       3.012   0.964   0.479  0.00  0.00    +0.120 C 
BRANCH   8  24
ATOM      2  F   UNL     1       9.055  -0.594  -0.707  0.00  0.00    -0.205 F 
ATOM     24  C   UNL     1       4.993  -0.416   0.015  0.00  0.00    +0.030 A 
ATOM     26  C   UNL     1       5.466  -0.964  -1.177  0.00  0.00    +0.026 A 
ATOM     27  C   UNL     1       5.893   0.071   0.964  0.00  0.00    +0.026 A 
ATOM     29  C   UNL     1       6.838  -1.024  -1.422  0.00  0.00    +0.040 A 
ATOM     30  C   UNL     1       7.264   0.011   0.719  0.00  0.00    +0.040 A 
ATOM     32  C   UNL     1       7.737  -0.536  -0.473  0.00  0.00    +0.124 A 
ENDBRANCH   8  24
ENDBRANCH  15   7
ENDBRANCH  12  15
ENDBRANCH   9  12
BRANCH  10  16
ATOM     16  C   UNL     1      -3.336  -3.148   0.179  0.00  0.00    +0.124 C 
BRANCH  16  22
ATOM      5  O   UNL     1      -5.618  -4.000   0.094  0.00  0.00    -0.251 OA
ATOM     22  C   UNL     1      -4.412  -4.194   0.080  0.00  0.00    +0.305 C 
BRANCH  22   3
ATOM      3  O   UNL     1      -3.847  -5.423  -0.029  0.00  0.00    -0.481 OA
ATOM     33  H   UNL     1      -4.522  -6.132  -0.096  0.00  0.00    +0.295 HD
ENDBRANCH  22   3
ENDBRANCH  16  22
ENDBRANCH  10  16
TORSDOF 8
