MODEL 1
REMARK VINA RESULT:      -7.1      0.000      0.000
REMARK  Name = 44716363
REMARK  9 active torsions:
REMARK  status: ('A' for Active; 'I' for Inactive)
REMARK    1  A    between atoms: O_1  and  C_16
REMARK    2  A    between atoms: O_1  and  C_21
REMARK    3  A    between atoms: N_5  and  C_19
REMARK    4  A    between atoms: N_7  and  C_27
REMARK    5  A    between atoms: C_9  and  C_15
REMARK    6  A    between atoms: C_10  and  C_16
REMARK    7  A    between atoms: C_18  and  C_20
REMARK    8  A    between atoms: C_36  and  C_37
REMARK    9  A    between atoms: C_37  and  C_38
REMARK                            x       y       z     vdW  Elec       q    Type
REMARK                         _______ _______ _______ _____ _____    ______ ____
ROOT
ATOM      4  N   UNL     1      13.967   5.220  -1.275  0.00  0.00    -0.296 NA
ATOM      8  C   UNL     1      12.245   3.628  -0.142  0.00  0.00    +0.002 C 
ATOM      9  C   UNL     1      11.653   5.058  -0.281  0.00  0.00    +0.055 C 
ATOM     10  C   UNL     1      14.614   4.488  -0.155  0.00  0.00    +0.095 C 
ATOM     11  C   UNL     1      13.565   3.697   0.657  0.00  0.00    +0.026 C 
ATOM     12  C   UNL     1      12.602   3.154  -1.567  0.00  0.00    +0.019 C 
ATOM     13  C   UNL     1      12.799   5.988  -0.773  0.00  0.00    +0.094 C 
ATOM     14  C   UNL     1      13.476   4.218  -2.252  0.00  0.00    +0.085 C 
ENDROOT
BRANCH   9  15
ATOM      5  N   UNL     1       9.978   6.637   0.785  0.00  0.00    -0.270 N 
ATOM      6  N   UNL     1       9.430   7.016   1.952  0.00  0.00    -0.171 NA
ATOM     15  C   UNL     1      10.905   5.644   0.907  0.00  0.00    +0.044 A 
ATOM     17  C   UNL     1      10.969   5.354   2.247  0.00  0.00    +0.053 A 
ATOM     18  C   UNL     1      10.041   6.228   2.843  0.00  0.00    +0.093 A 
ATOM     19  C   UNL     1       9.556   7.286  -0.435  0.00  0.00    +0.172 C 
BRANCH  18  20
ATOM     20  C   UNL     1       9.727   6.328   4.244  0.00  0.00    +0.003 A 
ATOM     22  C   UNL     1      10.021   5.267   5.101  0.00  0.00    +0.018 A 
ATOM     23  C   UNL     1       9.131   7.483   4.743  0.00  0.00    +0.011 A 
ATOM     24  C   UNL     1       9.722   5.349   6.471  0.00  0.00    -0.017 A 
ATOM     25  C   UNL     1       8.827   7.582   6.100  0.00  0.00    +0.009 A 
ATOM     26  C   UNL     1       9.115   6.524   6.978  0.00  0.00    -0.018 A 
ATOM     28  C   UNL     1      10.010   4.291   7.349  0.00  0.00    +0.008 A 
ATOM     29  C   UNL     1       8.817   6.606   8.348  0.00  0.00    +0.008 A 
ATOM     32  C   UNL     1       9.706   4.390   8.707  0.00  0.00    +0.001 A 
ATOM     33  C   UNL     1       9.110   5.545   9.205  0.00  0.00    +0.001 A 
ENDBRANCH  18  20
ENDBRANCH   9  15
BRANCH  10  16
ATOM     16  C   UNL     1      15.451   5.407   0.737  0.00  0.00    +0.252 C 
BRANCH  16   1
ATOM      1  O   UNL     1      14.913   5.372   2.044  0.00  0.00    -0.449 OA
BRANCH   1  21
ATOM      2  O   UNL     1      15.178   7.631   2.276  0.00  0.00    -0.226 OA
ATOM      7  N   UNL     1      13.739   6.410   3.660  0.00  0.00    -0.251 N 
ATOM     21  C   UNL     1      14.652   6.586   2.639  0.00  0.00    +0.405 C 
ATOM     39  H   UNL     1      13.413   5.459   3.813  0.00  0.00    +0.158 HD
BRANCH   7  27
ATOM     27  C   UNL     1      13.199   7.391   4.523  0.00  0.00    +0.036 A 
ATOM     30  C   UNL     1      12.702   8.584   3.998  0.00  0.00    +0.024 A 
ATOM     31  C   UNL     1      13.165   7.166   5.900  0.00  0.00    +0.024 A 
ATOM     34  C   UNL     1      12.170   9.552   4.850  0.00  0.00    +0.013 A 
ATOM     35  C   UNL     1      12.633   8.135   6.750  0.00  0.00    +0.013 A 
ATOM     36  C   UNL     1      12.136   9.328   6.226  0.00  0.00    +0.017 A 
BRANCH  36  37
ATOM      3  O   UNL     1      11.908  11.538   7.017  0.00  0.00    -0.292 OA
ATOM     37  C   UNL     1      11.582  10.339   7.113  0.00  0.00    +0.160 C 
ATOM     38  C   UNL     1      10.579   9.947   8.193  0.00  0.00    +0.091 C 
ENDBRANCH  36  37
ENDBRANCH   7  27
ENDBRANCH   1  21
ENDBRANCH  16   1
ENDBRANCH  10  16
TORSDOF 7
ENDMDL
MODEL 2
REMARK VINA RESULT:      -7.1     23.817     27.188
REMARK  Name = 44716363
REMARK  9 active torsions:
REMARK  status: ('A' for Active; 'I' for Inactive)
REMARK    1  A    between atoms: O_1  and  C_16
REMARK    2  A    between atoms: O_1  and  C_21
REMARK    3  A    between atoms: N_5  and  C_19
REMARK    4  A    between atoms: N_7  and  C_27
REMARK    5  A    between atoms: C_9  and  C_15
REMARK    6  A    between atoms: C_10  and  C_16
REMARK    7  A    between atoms: C_18  and  C_20
REMARK    8  A    between atoms: C_36  and  C_37
REMARK    9  A    between atoms: C_37  and  C_38
REMARK                            x       y       z     vdW  Elec       q    Type
REMARK                         _______ _______ _______ _____ _____    ______ ____
ROOT
ATOM      4  N   UNL     1      -6.196 -10.342  17.822  0.00  0.00    -0.296 NA
ATOM      8  C   UNL     1      -4.479 -12.129  17.022  0.00  0.00    +0.002 C 
ATOM      9  C   UNL     1      -4.140 -10.740  16.415  0.00  0.00    +0.055 C 
ATOM     10  C   UNL     1      -6.912 -11.536  17.301  0.00  0.00    +0.095 C 
ATOM     11  C   UNL     1      -5.923 -12.517  16.635  0.00  0.00    +0.026 C 
ATOM     12  C   UNL     1      -4.451 -11.964  18.557  0.00  0.00    +0.019 C 
ATOM     13  C   UNL     1      -5.312  -9.780  16.770  0.00  0.00    +0.094 C 
ATOM     14  C   UNL     1      -5.347 -10.779  18.956  0.00  0.00    +0.085 C 
ENDROOT
BRANCH   9  15
ATOM      5  N   UNL     1      -2.472 -10.659  14.505  0.00  0.00    -0.270 N 
ATOM      6  N   UNL     1      -2.351 -10.595  13.169  0.00  0.00    -0.171 NA
ATOM     15  C   UNL     1      -3.764 -10.672  14.943  0.00  0.00    +0.044 A 
ATOM     17  C   UNL     1      -4.542 -10.612  13.814  0.00  0.00    +0.053 A 
ATOM     18  C   UNL     1      -3.620 -10.566  12.751  0.00  0.00    +0.093 A 
ATOM     19  C   UNL     1      -1.279 -10.704  15.319  0.00  0.00    +0.172 C 
BRANCH  18  20
ATOM     20  C   UNL     1      -3.927 -10.494  11.347  0.00  0.00    +0.003 A 
ATOM     22  C   UNL     1      -4.374 -11.630  10.671  0.00  0.00    +0.018 A 
ATOM     23  C   UNL     1      -3.780  -9.290  10.663  0.00  0.00    +0.011 A 
ATOM     24  C   UNL     1      -4.678 -11.576   9.301  0.00  0.00    -0.017 A 
ATOM     25  C   UNL     1      -4.078  -9.218   9.303  0.00  0.00    +0.009 A 
ATOM     26  C   UNL     1      -4.527 -10.351   8.607  0.00  0.00    -0.018 A 
ATOM     28  C   UNL     1      -5.127 -12.710   8.604  0.00  0.00    +0.008 A 
ATOM     29  C   UNL     1      -4.832 -10.297   7.237  0.00  0.00    +0.008 A 
ATOM     32  C   UNL     1      -5.425 -12.637   7.243  0.00  0.00    +0.001 A 
ATOM     33  C   UNL     1      -5.278 -11.433   6.561  0.00  0.00    +0.001 A 
ENDBRANCH  18  20
ENDBRANCH   9  15
BRANCH  10  16
ATOM     16  C   UNL     1      -8.064 -11.164  16.365  0.00  0.00    +0.252 C 
BRANCH  16   1
ATOM      1  O   UNL     1      -7.738 -11.604  15.060  0.00  0.00    -0.449 OA
BRANCH   1  21
ATOM      2  O   UNL     1      -9.105 -10.014  14.149  0.00  0.00    -0.226 OA
ATOM      7  N   UNL     1      -7.549 -11.190  12.856  0.00  0.00    -0.251 N 
ATOM     21  C   UNL     1      -8.218 -10.847  14.014  0.00  0.00    +0.405 C 
ATOM     39  H   UNL     1      -6.839 -11.912  12.943  0.00  0.00    +0.158 HD
BRANCH   7  27
ATOM     27  C   UNL     1      -7.729 -10.659  11.558  0.00  0.00    +0.036 A 
ATOM     30  C   UNL     1      -8.197 -11.477  10.529  0.00  0.00    +0.024 A 
ATOM     31  C   UNL     1      -7.438  -9.319  11.306  0.00  0.00    +0.024 A 
ATOM     34  C   UNL     1      -8.373 -10.954   9.248  0.00  0.00    +0.013 A 
ATOM     35  C   UNL     1      -7.615  -8.797  10.025  0.00  0.00    +0.013 A 
ATOM     36  C   UNL     1      -8.082  -9.614   8.996  0.00  0.00    +0.017 A 
BRANCH  36  37
ATOM      3  O   UNL     1      -8.515  -9.807   6.686  0.00  0.00    -0.292 OA
ATOM     37  C   UNL     1      -8.267  -9.070   7.660  0.00  0.00    +0.160 C 
ATOM     38  C   UNL     1      -8.157  -7.568   7.419  0.00  0.00    +0.091 C 
ENDBRANCH  36  37
ENDBRANCH   7  27
ENDBRANCH   1  21
ENDBRANCH  16   1
ENDBRANCH  10  16
TORSDOF 7
ENDMDL
MODEL 3
REMARK VINA RESULT:      -7.1     23.546     25.702
REMARK  Name = 44716363
REMARK  9 active torsions:
REMARK  status: ('A' for Active; 'I' for Inactive)
REMARK    1  A    between atoms: O_1  and  C_16
REMARK    2  A    between atoms: O_1  and  C_21
REMARK    3  A    between atoms: N_5  and  C_19
REMARK    4  A    between atoms: N_7  and  C_27
REMARK    5  A    between atoms: C_9  and  C_15
REMARK    6  A    between atoms: C_10  and  C_16
REMARK    7  A    between atoms: C_18  and  C_20
REMARK    8  A    between atoms: C_36  and  C_37
REMARK    9  A    between atoms: C_37  and  C_38
REMARK                            x       y       z     vdW  Elec       q    Type
REMARK                         _______ _______ _______ _____ _____    ______ ____
ROOT
ATOM      4  N   UNL     1     -10.239  -8.986   5.440  0.00  0.00    -0.296 NA
ATOM      8  C   UNL     1      -7.887  -8.015   4.888  0.00  0.00    +0.002 C 
ATOM      9  C   UNL     1      -7.791  -9.539   5.177  0.00  0.00    +0.055 C 
ATOM     10  C   UNL     1      -9.985  -7.773   6.261  0.00  0.00    +0.095 C 
ATOM     11  C   UNL     1      -8.523  -7.303   6.102  0.00  0.00    +0.026 C 
ATOM     12  C   UNL     1      -8.861  -7.846   3.703  0.00  0.00    +0.019 C 
ATOM     13  C   UNL     1      -9.185 -10.000   5.692  0.00  0.00    +0.094 C 
ATOM     14  C   UNL     1     -10.170  -8.591   4.012  0.00  0.00    +0.085 C 
ENDROOT
BRANCH   9  15
ATOM      5  N   UNL     1      -5.778 -11.000   5.674  0.00  0.00    -0.270 N 
ATOM      6  N   UNL     1      -4.849 -11.295   6.599  0.00  0.00    -0.171 NA
ATOM     15  C   UNL     1      -6.657 -10.032   6.063  0.00  0.00    +0.044 A 
ATOM     17  C   UNL     1      -6.278  -9.670   7.331  0.00  0.00    +0.053 A 
ATOM     18  C   UNL     1      -5.161 -10.478   7.611  0.00  0.00    +0.093 A 
ATOM     19  C   UNL     1      -5.762 -11.702   4.411  0.00  0.00    +0.172 C 
BRANCH  18  20
ATOM     20  C   UNL     1      -4.386 -10.489   8.824  0.00  0.00    +0.003 A 
ATOM     22  C   UNL     1      -4.164 -11.689   9.499  0.00  0.00    +0.018 A 
ATOM     23  C   UNL     1      -3.858  -9.301   9.322  0.00  0.00    +0.011 A 
ATOM     24  C   UNL     1      -3.411 -11.716  10.684  0.00  0.00    -0.017 A 
ATOM     25  C   UNL     1      -3.107  -9.309  10.497  0.00  0.00    +0.009 A 
ATOM     26  C   UNL     1      -2.874 -10.508  11.191  0.00  0.00    -0.018 A 
ATOM     28  C   UNL     1      -3.178 -12.915  11.378  0.00  0.00    +0.008 A 
ATOM     29  C   UNL     1      -2.120 -10.535  12.375  0.00  0.00    +0.008 A 
ATOM     32  C   UNL     1      -2.426 -12.923  12.553  0.00  0.00    +0.001 A 
ATOM     33  C   UNL     1      -1.898 -11.736  13.051  0.00  0.00    +0.001 A 
ENDBRANCH  18  20
ENDBRANCH   9  15
BRANCH  10  16
ATOM     16  C   UNL     1     -10.363  -7.974   7.730  0.00  0.00    +0.252 C 
BRANCH  16   1
ATOM      1  O   UNL     1      -9.190  -7.863   8.512  0.00  0.00    -0.449 OA
BRANCH   1  21
ATOM      2  O   UNL     1     -10.022  -9.341  10.045  0.00  0.00    -0.226 OA
ATOM      7  N   UNL     1      -7.752  -8.773   9.986  0.00  0.00    -0.251 N 
ATOM     21  C   UNL     1      -9.070  -8.730   9.576  0.00  0.00    +0.405 C 
ATOM     39  H   UNL     1      -7.101  -8.189   9.469  0.00  0.00    +0.158 HD
BRANCH   7  27
ATOM     27  C   UNL     1      -7.194  -9.532  11.040  0.00  0.00    +0.036 A 
ATOM     30  C   UNL     1      -6.461  -8.897  12.044  0.00  0.00    +0.024 A 
ATOM     31  C   UNL     1      -7.376 -10.914  11.077  0.00  0.00    +0.024 A 
ATOM     34  C   UNL     1      -5.909  -9.646  13.083  0.00  0.00    +0.013 A 
ATOM     35  C   UNL     1      -6.824 -11.662  12.117  0.00  0.00    +0.013 A 
ATOM     36  C   UNL     1      -6.090 -11.029  13.119  0.00  0.00    +0.017 A 
BRANCH  36  37
ATOM      3  O   UNL     1      -5.649 -13.046  14.259  0.00  0.00    -0.292 OA
ATOM     37  C   UNL     1      -5.514 -11.808  14.204  0.00  0.00    +0.160 C 
ATOM     38  C   UNL     1      -4.724 -11.118  15.311  0.00  0.00    +0.091 C 
ENDBRANCH  36  37
ENDBRANCH   7  27
ENDBRANCH   1  21
ENDBRANCH  16   1
ENDBRANCH  10  16
TORSDOF 7
ENDMDL
MODEL 4
REMARK VINA RESULT:      -6.6     25.011     29.029
REMARK  Name = 44716363
REMARK  9 active torsions:
REMARK  status: ('A' for Active; 'I' for Inactive)
REMARK    1  A    between atoms: O_1  and  C_16
REMARK    2  A    between atoms: O_1  and  C_21
REMARK    3  A    between atoms: N_5  and  C_19
REMARK    4  A    between atoms: N_7  and  C_27
REMARK    5  A    between atoms: C_9  and  C_15
REMARK    6  A    between atoms: C_10  and  C_16
REMARK    7  A    between atoms: C_18  and  C_20
REMARK    8  A    between atoms: C_36  and  C_37
REMARK    9  A    between atoms: C_37  and  C_38
REMARK                            x       y       z     vdW  Elec       q    Type
REMARK                         _______ _______ _______ _____ _____    ______ ____
ROOT
ATOM      4  N   UNL     1     -11.531 -11.802  18.276  0.00  0.00    -0.296 NA
ATOM      8  C   UNL     1     -11.351  -9.325  17.491  0.00  0.00    +0.002 C 
ATOM      9  C   UNL     1     -11.350 -10.285  16.269  0.00  0.00    +0.055 C 
ATOM     10  C   UNL     1     -10.455 -11.108  19.030  0.00  0.00    +0.095 C 
ATOM     11  C   UNL     1     -10.194  -9.705  18.440  0.00  0.00    +0.026 C 
ATOM     12  C   UNL     1     -12.667  -9.583  18.257  0.00  0.00    +0.019 C 
ATOM     13  C   UNL     1     -11.255 -11.737  16.819  0.00  0.00    +0.094 C 
ATOM     14  C   UNL     1     -12.805 -11.088  18.538  0.00  0.00    +0.085 C 
ENDROOT
BRANCH   9  15
ATOM      5  N   UNL     1     -10.671  -9.360  14.006  0.00  0.00    -0.270 N 
ATOM      6  N   UNL     1      -9.647  -9.233  13.145  0.00  0.00    -0.171 NA
ATOM     15  C   UNL     1     -10.349 -10.024  15.153  0.00  0.00    +0.044 A 
ATOM     17  C   UNL     1      -9.022 -10.355  15.034  0.00  0.00    +0.053 A 
ATOM     18  C   UNL     1      -8.641  -9.844  13.780  0.00  0.00    +0.093 A 
ATOM     19  C   UNL     1     -11.959  -8.810  13.654  0.00  0.00    +0.172 C 
BRANCH  18  20
ATOM     20  C   UNL     1      -7.338  -9.929  13.174  0.00  0.00    +0.003 A 
ATOM     22  C   UNL     1      -7.068  -9.225  11.999  0.00  0.00    +0.018 A 
ATOM     23  C   UNL     1      -6.347 -10.711  13.761  0.00  0.00    +0.011 A 
ATOM     24  C   UNL     1      -5.801  -9.297  11.396  0.00  0.00    -0.017 A 
ATOM     25  C   UNL     1      -5.084 -10.793  13.177  0.00  0.00    +0.009 A 
ATOM     26  C   UNL     1      -4.795 -10.094  11.994  0.00  0.00    -0.018 A 
ATOM     28  C   UNL     1      -5.512  -8.598  10.214  0.00  0.00    +0.008 A 
ATOM     29  C   UNL     1      -3.528 -10.165  11.392  0.00  0.00    +0.008 A 
ATOM     32  C   UNL     1      -4.248  -8.680   9.629  0.00  0.00    +0.001 A 
ATOM     33  C   UNL     1      -3.258  -9.462  10.217  0.00  0.00    +0.001 A 
ENDBRANCH  18  20
ENDBRANCH   9  15
BRANCH  10  16
ATOM     16  C   UNL     1      -9.173 -11.939  19.116  0.00  0.00    +0.252 C 
BRANCH  16   1
ATOM      1  O   UNL     1      -8.299 -11.316  20.037  0.00  0.00    -0.449 OA
BRANCH   1  21
ATOM      2  O   UNL     1      -6.070 -11.124  20.509  0.00  0.00    -0.226 OA
ATOM      7  N   UNL     1      -6.848 -11.386  18.317  0.00  0.00    -0.251 N 
ATOM     21  C   UNL     1      -6.967 -11.262  19.688  0.00  0.00    +0.405 C 
ATOM     39  H   UNL     1      -7.715 -11.493  17.798  0.00  0.00    +0.158 HD
BRANCH   7  27
ATOM     27  C   UNL     1      -5.665 -11.383  17.544  0.00  0.00    +0.036 A 
ATOM     30  C   UNL     1      -5.206 -12.568  16.967  0.00  0.00    +0.024 A 
ATOM     31  C   UNL     1      -4.956 -10.196  17.358  0.00  0.00    +0.024 A 
ATOM     34  C   UNL     1      -4.038 -12.565  16.204  0.00  0.00    +0.013 A 
ATOM     35  C   UNL     1      -3.788 -10.195  16.595  0.00  0.00    +0.013 A 
ATOM     36  C   UNL     1      -3.329 -11.378  16.019  0.00  0.00    +0.017 A 
BRANCH  36  37
ATOM      3  O   UNL     1      -1.826 -12.327  14.469  0.00  0.00    -0.292 OA
ATOM     37  C   UNL     1      -2.111 -11.377  15.224  0.00  0.00    +0.160 C 
ATOM     38  C   UNL     1      -1.144 -10.200  15.300  0.00  0.00    +0.091 C 
ENDBRANCH  36  37
ENDBRANCH   7  27
ENDBRANCH   1  21
ENDBRANCH  16   1
ENDBRANCH  10  16
TORSDOF 7
ENDMDL
MODEL 5
REMARK VINA RESULT:      -6.5     23.721     28.233
REMARK  Name = 44716363
REMARK  9 active torsions:
REMARK  status: ('A' for Active; 'I' for Inactive)
REMARK    1  A    between atoms: O_1  and  C_16
REMARK    2  A    between atoms: O_1  and  C_21
REMARK    3  A    between atoms: N_5  and  C_19
REMARK    4  A    between atoms: N_7  and  C_27
REMARK    5  A    between atoms: C_9  and  C_15
REMARK    6  A    between atoms: C_10  and  C_16
REMARK    7  A    between atoms: C_18  and  C_20
REMARK    8  A    between atoms: C_36  and  C_37
REMARK    9  A    between atoms: C_37  and  C_38
REMARK                            x       y       z     vdW  Elec       q    Type
REMARK                         _______ _______ _______ _____ _____    ______ ____
ROOT
ATOM      4  N   UNL     1      14.863  -7.263  32.279  0.00  0.00    -0.296 NA
ATOM      8  C   UNL     1      13.314  -6.921  30.214  0.00  0.00    +0.002 C 
ATOM      9  C   UNL     1      14.468  -7.904  29.871  0.00  0.00    +0.055 C 
ATOM     10  C   UNL     1      14.654  -5.811  32.037  0.00  0.00    +0.095 C 
ATOM     11  C   UNL     1      13.912  -5.583  30.702  0.00  0.00    +0.026 C 
ATOM     12  C   UNL     1      12.545  -7.534  31.403  0.00  0.00    +0.019 C 
ATOM     13  C   UNL     1      15.453  -7.900  31.075  0.00  0.00    +0.094 C 
ATOM     14  C   UNL     1      13.538  -7.879  32.526  0.00  0.00    +0.085 C 
ENDROOT
BRANCH   9  15
ATOM      5  N   UNL     1      15.585  -8.791  27.773  0.00  0.00    -0.270 N 
ATOM      6  N   UNL     1      16.199  -8.433  26.633  0.00  0.00    -0.171 NA
ATOM     15  C   UNL     1      15.183  -7.737  28.539  0.00  0.00    +0.044 A 
ATOM     17  C   UNL     1      15.561  -6.609  27.853  0.00  0.00    +0.053 A 
ATOM     18  C   UNL     1      16.182  -7.097  26.688  0.00  0.00    +0.093 A 
ATOM     19  C   UNL     1      15.415 -10.195  28.071  0.00  0.00    +0.172 C 
BRANCH  18  20
ATOM     20  C   UNL     1      16.760  -6.315  25.627  0.00  0.00    +0.003 A 
ATOM     22  C   UNL     1      16.357  -4.993  25.436  0.00  0.00    +0.018 A 
ATOM     23  C   UNL     1      17.724  -6.876  24.794  0.00  0.00    +0.011 A 
ATOM     24  C   UNL     1      16.912  -4.215  24.407  0.00  0.00    -0.017 A 
ATOM     25  C   UNL     1      18.286  -6.119  23.767  0.00  0.00    +0.009 A 
ATOM     26  C   UNL     1      17.891  -4.787  23.559  0.00  0.00    -0.018 A 
ATOM     28  C   UNL     1      16.517  -2.884  24.199  0.00  0.00    +0.008 A 
ATOM     29  C   UNL     1      18.447  -4.010  22.530  0.00  0.00    +0.008 A 
ATOM     32  C   UNL     1      17.080  -2.126  23.171  0.00  0.00    +0.001 A 
ATOM     33  C   UNL     1      18.043  -2.688  22.338  0.00  0.00    +0.001 A 
ENDBRANCH  18  20
ENDBRANCH   9  15
BRANCH  10  16
ATOM     16  C   UNL     1      15.957  -5.013  32.108  0.00  0.00    +0.252 C 
BRANCH  16   1
ATOM      1  O   UNL     1      15.703  -3.700  31.649  0.00  0.00    -0.449 OA
BRANCH   1  21
ATOM      2  O   UNL     1      17.183  -2.050  31.090  0.00  0.00    -0.226 OA
ATOM      7  N   UNL     1      16.904  -3.958  29.763  0.00  0.00    -0.251 N 
ATOM     21  C   UNL     1      16.661  -3.130  30.841  0.00  0.00    +0.405 C 
ATOM     39  H   UNL     1      16.367  -4.820  29.728  0.00  0.00    +0.158 HD
BRANCH   7  27
ATOM     27  C   UNL     1      17.810  -3.755  28.697  0.00  0.00    +0.036 A 
ATOM     30  C   UNL     1      17.775  -2.566  27.969  0.00  0.00    +0.024 A 
ATOM     31  C   UNL     1      18.739  -4.744  28.373  0.00  0.00    +0.024 A 
ATOM     34  C   UNL     1      18.669  -2.366  26.916  0.00  0.00    +0.013 A 
ATOM     35  C   UNL     1      19.632  -4.544  27.321  0.00  0.00    +0.013 A 
ATOM     36  C   UNL     1      19.597  -3.356  26.593  0.00  0.00    +0.017 A 
BRANCH  36  37
ATOM      3  O   UNL     1      20.665  -2.027  24.964  0.00  0.00    -0.292 OA
ATOM     37  C   UNL     1      20.528  -3.146  25.495  0.00  0.00    +0.160 C 
ATOM     38  C   UNL     1      21.363  -4.306  24.964  0.00  0.00    +0.091 C 
ENDBRANCH  36  37
ENDBRANCH   7  27
ENDBRANCH   1  21
ENDBRANCH  16   1
ENDBRANCH  10  16
TORSDOF 7
ENDMDL
MODEL 6
REMARK VINA RESULT:      -6.5      1.342      1.764
REMARK  Name = 44716363
REMARK  9 active torsions:
REMARK  status: ('A' for Active; 'I' for Inactive)
REMARK    1  A    between atoms: O_1  and  C_16
REMARK    2  A    between atoms: O_1  and  C_21
REMARK    3  A    between atoms: N_5  and  C_19
REMARK    4  A    between atoms: N_7  and  C_27
REMARK    5  A    between atoms: C_9  and  C_15
REMARK    6  A    between atoms: C_10  and  C_16
REMARK    7  A    between atoms: C_18  and  C_20
REMARK    8  A    between atoms: C_36  and  C_37
REMARK    9  A    between atoms: C_37  and  C_38
REMARK                            x       y       z     vdW  Elec       q    Type
REMARK                         _______ _______ _______ _____ _____    ______ ____
ROOT
ATOM      4  N   UNL     1      15.495   6.737  -1.074  0.00  0.00    -0.296 NA
ATOM      8  C   UNL     1      14.440   4.457  -0.385  0.00  0.00    +0.002 C 
ATOM      9  C   UNL     1      13.329   5.506  -0.669  0.00  0.00    +0.055 C 
ATOM     10  C   UNL     1      16.133   6.238   0.172  0.00  0.00    +0.095 C 
ATOM     11  C   UNL     1      15.385   4.998   0.709  0.00  0.00    +0.026 C 
ATOM     12  C   UNL     1      15.272   4.328  -1.680  0.00  0.00    +0.019 C 
ATOM     13  C   UNL     1      14.031   6.880  -0.873  0.00  0.00    +0.094 C 
ATOM     14  C   UNL     1      15.719   5.727  -2.136  0.00  0.00    +0.085 C 
ENDROOT
BRANCH   9  15
ATOM      5  N   UNL     1      10.936   5.050   0.038  0.00  0.00    -0.270 N 
ATOM      6  N   UNL     1      10.037   5.236   1.020  0.00  0.00    -0.171 NA
ATOM     15  C   UNL     1      12.160   5.594   0.299  0.00  0.00    +0.044 A 
ATOM     17  C   UNL     1      12.054   6.176   1.538  0.00  0.00    +0.053 A 
ATOM     18  C   UNL     1      10.727   5.926   1.934  0.00  0.00    +0.093 A 
ATOM     19  C   UNL     1      10.543   4.328  -1.150  0.00  0.00    +0.172 C 
BRANCH  18  20
ATOM     20  C   UNL     1      10.104   6.333   3.166  0.00  0.00    +0.003 A 
ATOM     22  C   UNL     1      10.500   5.754   4.372  0.00  0.00    +0.018 A 
ATOM     23  C   UNL     1       9.108   7.305   3.154  0.00  0.00    +0.011 A 
ATOM     24  C   UNL     1       9.903   6.141   5.583  0.00  0.00    -0.017 A 
ATOM     25  C   UNL     1       8.504   7.702   4.347  0.00  0.00    +0.009 A 
ATOM     26  C   UNL     1       8.889   7.129   5.570  0.00  0.00    -0.018 A 
ATOM     28  C   UNL     1      10.288   5.568   6.806  0.00  0.00    +0.008 A 
ATOM     29  C   UNL     1       8.293   7.517   6.781  0.00  0.00    +0.008 A 
ATOM     32  C   UNL     1       9.684   5.965   8.000  0.00  0.00    +0.001 A 
ATOM     33  C   UNL     1       8.688   6.937   7.987  0.00  0.00    +0.001 A 
ENDBRANCH  18  20
ENDBRANCH   9  15
BRANCH  10  16
ATOM     16  C   UNL     1      16.266   7.329   1.237  0.00  0.00    +0.252 C 
BRANCH  16   1
ATOM      1  O   UNL     1      15.583   6.903   2.400  0.00  0.00    -0.449 OA
BRANCH   1  21
ATOM      2  O   UNL     1      15.688   8.956   3.401  0.00  0.00    -0.226 OA
ATOM      7  N   UNL     1      13.928   7.471   3.816  0.00  0.00    -0.251 N 
ATOM     21  C   UNL     1      15.109   7.890   3.236  0.00  0.00    +0.405 C 
ATOM     39  H   UNL     1      13.601   6.545   3.554  0.00  0.00    +0.158 HD
BRANCH   7  27
ATOM     27  C   UNL     1      13.113   8.173   4.734  0.00  0.00    +0.036 A 
ATOM     30  C   UNL     1      12.223   9.145   4.274  0.00  0.00    +0.024 A 
ATOM     31  C   UNL     1      13.198   7.894   6.097  0.00  0.00    +0.024 A 
ATOM     34  C   UNL     1      11.420   9.838   5.179  0.00  0.00    +0.013 A 
ATOM     35  C   UNL     1      12.394   8.587   7.002  0.00  0.00    +0.013 A 
ATOM     36  C   UNL     1      11.506   9.560   6.543  0.00  0.00    +0.017 A 
BRANCH  36  37
ATOM      3  O   UNL     1      10.943  10.328   8.700  0.00  0.00    -0.292 OA
ATOM     37  C   UNL     1      10.667  10.284   7.486  0.00  0.00    +0.160 C 
ATOM     38  C   UNL     1       9.417  11.010   7.002  0.00  0.00    +0.091 C 
ENDBRANCH  36  37
ENDBRANCH   7  27
ENDBRANCH   1  21
ENDBRANCH  16   1
ENDBRANCH  10  16
TORSDOF 7
ENDMDL
MODEL 7
REMARK VINA RESULT:      -6.5      2.904      4.466
REMARK  Name = 44716363
REMARK  9 active torsions:
REMARK  status: ('A' for Active; 'I' for Inactive)
REMARK    1  A    between atoms: O_1  and  C_16
REMARK    2  A    between atoms: O_1  and  C_21
REMARK    3  A    between atoms: N_5  and  C_19
REMARK    4  A    between atoms: N_7  and  C_27
REMARK    5  A    between atoms: C_9  and  C_15
REMARK    6  A    between atoms: C_10  and  C_16
REMARK    7  A    between atoms: C_18  and  C_20
REMARK    8  A    between atoms: C_36  and  C_37
REMARK    9  A    between atoms: C_37  and  C_38
REMARK                            x       y       z     vdW  Elec       q    Type
REMARK                         _______ _______ _______ _____ _____    ______ ____
ROOT
ATOM      4  N   UNL     1       8.494   6.205  -3.571  0.00  0.00    -0.296 NA
ATOM      8  C   UNL     1      11.047   5.725  -3.377  0.00  0.00    +0.002 C 
ATOM      9  C   UNL     1      10.256   4.888  -2.333  0.00  0.00    +0.055 C 
ATOM     10  C   UNL     1       9.248   7.485  -3.495  0.00  0.00    +0.095 C 
ATOM     11  C   UNL     1      10.735   7.223  -3.174  0.00  0.00    +0.026 C 
ATOM     12  C   UNL     1      10.501   5.333  -4.767  0.00  0.00    +0.019 C 
ATOM     13  C   UNL     1       8.779   5.376  -2.373  0.00  0.00    +0.094 C 
ATOM     14  C   UNL     1       8.969   5.468  -4.767  0.00  0.00    +0.085 C 
ENDROOT
BRANCH   9  15
ATOM      5  N   UNL     1      11.766   3.923  -0.537  0.00  0.00    -0.270 N 
ATOM      6  N   UNL     1      12.109   4.013   0.758  0.00  0.00    -0.171 NA
ATOM     15  C   UNL     1      10.800   4.810  -0.915  0.00  0.00    +0.044 A 
ATOM     17  C   UNL     1      10.490   5.529   0.213  0.00  0.00    +0.053 A 
ATOM     18  C   UNL     1      11.326   4.996   1.212  0.00  0.00    +0.093 A 
ATOM     19  C   UNL     1      12.418   2.942  -1.373  0.00  0.00    +0.172 C 
BRANCH  18  20
ATOM     20  C   UNL     1      11.389   5.405   2.591  0.00  0.00    +0.003 A 
ATOM     22  C   UNL     1      10.533   4.828   3.529  0.00  0.00    +0.018 A 
ATOM     23  C   UNL     1      12.306   6.375   2.987  0.00  0.00    +0.011 A 
ATOM     24  C   UNL     1      10.583   5.216   4.878  0.00  0.00    -0.017 A 
ATOM     25  C   UNL     1      12.369   6.772   4.322  0.00  0.00    +0.009 A 
ATOM     26  C   UNL     1      11.515   6.203   5.280  0.00  0.00    -0.018 A 
ATOM     28  C   UNL     1       9.729   4.647   5.837  0.00  0.00    +0.008 A 
ATOM     29  C   UNL     1      11.566   6.591   6.629  0.00  0.00    +0.008 A 
ATOM     32  C   UNL     1       9.793   5.045   7.173  0.00  0.00    +0.001 A 
ATOM     33  C   UNL     1      10.709   6.014   7.568  0.00  0.00    +0.001 A 
ENDBRANCH  18  20
ENDBRANCH   9  15
BRANCH  10  16
ATOM     16  C   UNL     1       8.618   8.475  -2.514  0.00  0.00    +0.252 C 
BRANCH  16   1
ATOM      1  O   UNL     1       9.453   8.569  -1.376  0.00  0.00    -0.449 OA
BRANCH   1  21
ATOM      2  O   UNL     1       7.713   9.312  -0.092  0.00  0.00    -0.226 OA
ATOM      7  N   UNL     1       9.671   8.453   0.861  0.00  0.00    -0.251 N 
ATOM     21  C   UNL     1       8.834   8.826  -0.173  0.00  0.00    +0.405 C 
ATOM     39  H   UNL     1      10.571   8.065   0.594  0.00  0.00    +0.158 HD
BRANCH   7  27
ATOM     27  C   UNL     1       9.429   8.543   2.251  0.00  0.00    +0.036 A 
ATOM     30  C   UNL     1      10.128   9.473   3.021  0.00  0.00    +0.024 A 
ATOM     31  C   UNL     1       8.492   7.703   2.853  0.00  0.00    +0.024 A 
ATOM     34  C   UNL     1       9.891   9.562   4.393  0.00  0.00    +0.013 A 
ATOM     35  C   UNL     1       8.255   7.793   4.224  0.00  0.00    +0.013 A 
ATOM     36  C   UNL     1       8.954   8.721   4.994  0.00  0.00    +0.017 A 
BRANCH  36  37
ATOM      3  O   UNL     1       7.918   8.041   7.000  0.00  0.00    -0.292 OA
ATOM     37  C   UNL     1       8.708   8.815   6.425  0.00  0.00    +0.160 C 
ATOM     38  C   UNL     1       9.418   9.875   7.259  0.00  0.00    +0.091 C 
ENDBRANCH  36  37
ENDBRANCH   7  27
ENDBRANCH   1  21
ENDBRANCH  16   1
ENDBRANCH  10  16
TORSDOF 7
ENDMDL
MODEL 8
REMARK VINA RESULT:      -6.5     26.955     31.153
REMARK  Name = 44716363
REMARK  9 active torsions:
REMARK  status: ('A' for Active; 'I' for Inactive)
REMARK    1  A    between atoms: O_1  and  C_16
REMARK    2  A    between atoms: O_1  and  C_21
REMARK    3  A    between atoms: N_5  and  C_19
REMARK    4  A    between atoms: N_7  and  C_27
REMARK    5  A    between atoms: C_9  and  C_15
REMARK    6  A    between atoms: C_10  and  C_16
REMARK    7  A    between atoms: C_18  and  C_20
REMARK    8  A    between atoms: C_36  and  C_37
REMARK    9  A    between atoms: C_37  and  C_38
REMARK                            x       y       z     vdW  Elec       q    Type
REMARK                         _______ _______ _______ _____ _____    ______ ____
ROOT
ATOM      4  N   UNL     1     -13.635 -11.444  18.791  0.00  0.00    -0.296 NA
ATOM      8  C   UNL     1     -12.041  -9.922  20.178  0.00  0.00    +0.002 C 
ATOM      9  C   UNL     1     -11.903  -9.613  18.661  0.00  0.00    +0.055 C 
ATOM     10  C   UNL     1     -12.844 -12.269  19.741  0.00  0.00    +0.095 C 
ATOM     11  C   UNL     1     -11.751 -11.418  20.423  0.00  0.00    +0.026 C 
ATOM     12  C   UNL     1     -13.520  -9.680  20.549  0.00  0.00    +0.019 C 
ATOM     13  C   UNL     1     -12.725 -10.689  17.894  0.00  0.00    +0.094 C 
ATOM     14  C   UNL     1     -14.421 -10.466  19.583  0.00  0.00    +0.085 C 
ENDROOT
BRANCH   9  15
ATOM      5  N   UNL     1     -10.161  -8.399  17.273  0.00  0.00    -0.270 N 
ATOM      6  N   UNL     1      -8.879  -8.424  16.873  0.00  0.00    -0.171 NA
ATOM     15  C   UNL     1     -10.505  -9.438  18.088  0.00  0.00    +0.044 A 
ATOM     17  C   UNL     1      -9.369 -10.195  18.230  0.00  0.00    +0.053 A 
ATOM     18  C   UNL     1      -8.400  -9.525  17.461  0.00  0.00    +0.093 A 
ATOM     19  C   UNL     1     -11.018  -7.327  16.825  0.00  0.00    +0.172 C 
BRANCH  18  20
ATOM     20  C   UNL     1      -7.027  -9.916  17.274  0.00  0.00    +0.003 A 
ATOM     22  C   UNL     1      -6.468  -9.914  15.995  0.00  0.00    +0.018 A 
ATOM     23  C   UNL     1      -6.256 -10.293  18.370  0.00  0.00    +0.011 A 
ATOM     24  C   UNL     1      -5.130 -10.292  15.797  0.00  0.00    -0.017 A 
ATOM     25  C   UNL     1      -4.925 -10.671  18.192  0.00  0.00    +0.009 A 
ATOM     26  C   UNL     1      -4.347 -10.676  16.912  0.00  0.00    -0.018 A 
ATOM     28  C   UNL     1      -4.552 -10.297  14.517  0.00  0.00    +0.008 A 
ATOM     29  C   UNL     1      -3.009 -11.053  16.714  0.00  0.00    +0.008 A 
ATOM     32  C   UNL     1      -3.221 -10.675  14.339  0.00  0.00    +0.001 A 
ATOM     33  C   UNL     1      -2.451 -11.052  15.435  0.00  0.00    +0.001 A 
ENDBRANCH  18  20
ENDBRANCH   9  15
BRANCH  10  16
ATOM     16  C   UNL     1     -12.262 -13.522  19.081  0.00  0.00    +0.252 C 
BRANCH  16   1
ATOM      1  O   UNL     1     -10.876 -13.569  19.358  0.00  0.00    -0.449 OA
BRANCH   1  21
ATOM      2  O   UNL     1     -10.306 -15.203  17.864  0.00  0.00    -0.226 OA
ATOM      7  N   UNL     1      -9.009 -13.274  18.136  0.00  0.00    -0.251 N 
ATOM     21  C   UNL     1     -10.070 -14.122  18.388  0.00  0.00    +0.405 C 
ATOM     39  H   UNL     1      -8.983 -12.413  18.676  0.00  0.00    +0.158 HD
BRANCH   7  27
ATOM     27  C   UNL     1      -7.951 -13.455  17.216  0.00  0.00    +0.036 A 
ATOM     30  C   UNL     1      -6.701 -13.881  17.667  0.00  0.00    +0.024 A 
ATOM     31  C   UNL     1      -8.155 -13.206  15.859  0.00  0.00    +0.024 A 
ATOM     34  C   UNL     1      -5.656 -14.058  16.759  0.00  0.00    +0.013 A 
ATOM     35  C   UNL     1      -7.111 -13.383  14.953  0.00  0.00    +0.013 A 
ATOM     36  C   UNL     1      -5.861 -13.809  15.402  0.00  0.00    +0.017 A 
BRANCH  36  37
ATOM      3  O   UNL     1      -3.642 -14.367  14.832  0.00  0.00    -0.292 OA
ATOM     37  C   UNL     1      -4.771 -13.994  14.458  0.00  0.00    +0.160 C 
ATOM     38  C   UNL     1      -4.988 -13.731  12.971  0.00  0.00    +0.091 C 
ENDBRANCH  36  37
ENDBRANCH   7  27
ENDBRANCH   1  21
ENDBRANCH  16   1
ENDBRANCH  10  16
TORSDOF 7
ENDMDL
MODEL 9
REMARK VINA RESULT:      -6.5     24.523     27.907
REMARK  Name = 44716363
REMARK  9 active torsions:
REMARK  status: ('A' for Active; 'I' for Inactive)
REMARK    1  A    between atoms: O_1  and  C_16
REMARK    2  A    between atoms: O_1  and  C_21
REMARK    3  A    between atoms: N_5  and  C_19
REMARK    4  A    between atoms: N_7  and  C_27
REMARK    5  A    between atoms: C_9  and  C_15
REMARK    6  A    between atoms: C_10  and  C_16
REMARK    7  A    between atoms: C_18  and  C_20
REMARK    8  A    between atoms: C_36  and  C_37
REMARK    9  A    between atoms: C_37  and  C_38
REMARK                            x       y       z     vdW  Elec       q    Type
REMARK                         _______ _______ _______ _____ _____    ______ ____
ROOT
ATOM      4  N   UNL     1      -6.399 -10.625   9.200  0.00  0.00    -0.296 NA
ATOM      8  C   UNL     1      -4.492  -9.181  10.231  0.00  0.00    +0.002 C 
ATOM      9  C   UNL     1      -4.500 -10.602  10.862  0.00  0.00    +0.055 C 
ATOM     10  C   UNL     1      -6.938  -9.311   9.638  0.00  0.00    +0.095 C 
ATOM     11  C   UNL     1      -5.875  -8.525  10.435  0.00  0.00    +0.026 C 
ATOM     12  C   UNL     1      -4.300  -9.371   8.711  0.00  0.00    +0.019 C 
ATOM     13  C   UNL     1      -5.777 -11.329  10.350  0.00  0.00    +0.094 C 
ATOM     14  C   UNL     1      -5.344 -10.371   8.189  0.00  0.00    +0.085 C 
ENDROOT
BRANCH   9  15
ATOM      5  N   UNL     1      -3.122 -10.661  12.991  0.00  0.00    -0.270 N 
ATOM      6  N   UNL     1      -3.189 -10.785  14.327  0.00  0.00    -0.171 NA
ATOM     15  C   UNL     1      -4.335 -10.719  12.370  0.00  0.00    +0.044 A 
ATOM     17  C   UNL     1      -5.260 -10.893  13.369  0.00  0.00    +0.053 A 
ATOM     18  C   UNL     1      -4.499 -10.927  14.553  0.00  0.00    +0.093 A 
ATOM     19  C   UNL     1      -1.832 -10.489  12.363  0.00  0.00    +0.172 C 
BRANCH  18  20
ATOM     20  C   UNL     1      -4.997 -11.094  15.893  0.00  0.00    +0.003 A 
ATOM     22  C   UNL     1      -5.987 -12.041  16.156  0.00  0.00    +0.018 A 
ATOM     23  C   UNL     1      -4.489 -10.312  16.926  0.00  0.00    +0.011 A 
ATOM     24  C   UNL     1      -6.483 -12.216  17.458  0.00  0.00    -0.017 A 
ATOM     25  C   UNL     1      -4.969 -10.473  18.225  0.00  0.00    +0.009 A 
ATOM     26  C   UNL     1      -5.966 -11.420  18.508  0.00  0.00    -0.018 A 
ATOM     28  C   UNL     1      -7.480 -13.164  17.741  0.00  0.00    +0.008 A 
ATOM     29  C   UNL     1      -6.462 -11.596  19.811  0.00  0.00    +0.008 A 
ATOM     32  C   UNL     1      -7.961 -13.325  19.041  0.00  0.00    +0.001 A 
ATOM     33  C   UNL     1      -7.453 -12.543  20.074  0.00  0.00    +0.001 A 
ENDBRANCH  18  20
ENDBRANCH   9  15
BRANCH  10  16
ATOM     16  C   UNL     1      -8.248  -9.448  10.415  0.00  0.00    +0.252 C 
BRANCH  16   1
ATOM      1  O   UNL     1      -8.007  -9.093  11.763  0.00  0.00    -0.449 OA
BRANCH   1  21
ATOM      2  O   UNL     1      -9.996 -10.024  12.401  0.00  0.00    -0.226 OA
ATOM      7  N   UNL     1      -8.342  -9.459  13.958  0.00  0.00    -0.251 N 
ATOM     21  C   UNL     1      -8.896  -9.574  12.699  0.00  0.00    +0.405 C 
ATOM     39  H   UNL     1      -7.410  -9.057  14.005  0.00  0.00    +0.158 HD
BRANCH   7  27
ATOM     27  C   UNL     1      -8.912  -9.832  15.197  0.00  0.00    +0.036 A 
ATOM     30  C   UNL     1      -8.560  -9.149  16.361  0.00  0.00    +0.024 A 
ATOM     31  C   UNL     1      -9.826 -10.884  15.255  0.00  0.00    +0.024 A 
ATOM     34  C   UNL     1      -9.122  -9.518  17.583  0.00  0.00    +0.013 A 
ATOM     35  C   UNL     1     -10.388 -11.253  16.477  0.00  0.00    +0.013 A 
ATOM     36  C   UNL     1     -10.036 -10.571  17.641  0.00  0.00    +0.017 A 
BRANCH  36  37
ATOM      3  O   UNL     1     -10.402 -10.301  19.955  0.00  0.00    -0.292 OA
ATOM     37  C   UNL     1     -10.621 -10.954  18.916  0.00  0.00    +0.160 C 
ATOM     38  C   UNL     1     -11.523 -12.180  19.010  0.00  0.00    +0.091 C 
ENDBRANCH  36  37
ENDBRANCH   7  27
ENDBRANCH   1  21
ENDBRANCH  16   1
ENDBRANCH  10  16
TORSDOF 7
ENDMDL
MODEL 10
REMARK VINA RESULT:      -6.3     23.908     27.284
REMARK  Name = 44716363
REMARK  9 active torsions:
REMARK  status: ('A' for Active; 'I' for Inactive)
REMARK    1  A    between atoms: O_1  and  C_16
REMARK    2  A    between atoms: O_1  and  C_21
REMARK    3  A    between atoms: N_5  and  C_19
REMARK    4  A    between atoms: N_7  and  C_27
REMARK    5  A    between atoms: C_9  and  C_15
REMARK    6  A    between atoms: C_10  and  C_16
REMARK    7  A    between atoms: C_18  and  C_20
REMARK    8  A    between atoms: C_36  and  C_37
REMARK    9  A    between atoms: C_37  and  C_38
REMARK                            x       y       z     vdW  Elec       q    Type
REMARK                         _______ _______ _______ _____ _____    ______ ____
ROOT
ATOM      4  N   UNL     1      -4.368 -12.318  17.406  0.00  0.00    -0.296 NA
ATOM      8  C   UNL     1      -5.948 -10.248  17.452  0.00  0.00    +0.002 C 
ATOM      9  C   UNL     1      -6.650 -11.453  16.767  0.00  0.00    +0.055 C 
ATOM     10  C   UNL     1      -3.653 -11.122  16.887  0.00  0.00    +0.095 C 
ATOM     11  C   UNL     1      -4.628  -9.938  16.713  0.00  0.00    +0.026 C 
ATOM     12  C   UNL     1      -5.571 -10.705  18.878  0.00  0.00    +0.019 C 
ATOM     13  C   UNL     1      -5.585 -12.574  16.597  0.00  0.00    +0.094 C 
ATOM     14  C   UNL     1      -4.790 -12.027  18.798  0.00  0.00    +0.085 C 
ENDROOT
BRANCH   9  15
ATOM      5  N   UNL     1      -8.767 -10.933  15.468  0.00  0.00    -0.270 N 
ATOM      6  N   UNL     1      -9.266 -10.735  14.237  0.00  0.00    -0.171 NA
ATOM     15  C   UNL     1      -7.428 -11.196  15.485  0.00  0.00    +0.044 A 
ATOM     17  C   UNL     1      -7.025 -11.170  14.173  0.00  0.00    +0.053 A 
ATOM     18  C   UNL     1      -8.196 -10.882  13.449  0.00  0.00    +0.093 A 
ATOM     19  C   UNL     1      -9.650 -10.853  16.608  0.00  0.00    +0.172 C 
BRANCH  18  20
ATOM     20  C   UNL     1      -8.315 -10.746  12.021  0.00  0.00    +0.003 A 
ATOM     22  C   UNL     1      -7.960  -9.547  11.403  0.00  0.00    +0.018 A 
ATOM     23  C   UNL     1      -8.782 -11.812  11.257  0.00  0.00    +0.011 A 
ATOM     24  C   UNL     1      -8.070  -9.398  10.010  0.00  0.00    -0.017 A 
ATOM     25  C   UNL     1      -8.897 -11.683   9.874  0.00  0.00    +0.009 A 
ATOM     26  C   UNL     1      -8.545 -10.483   9.234  0.00  0.00    -0.018 A 
ATOM     28  C   UNL     1      -7.718  -8.198   9.371  0.00  0.00    +0.008 A 
ATOM     29  C   UNL     1      -8.654 -10.335   7.842  0.00  0.00    +0.008 A 
ATOM     32  C   UNL     1      -7.833  -8.069   7.987  0.00  0.00    +0.001 A 
ATOM     33  C   UNL     1      -8.300  -9.135   7.224  0.00  0.00    +0.001 A 
ENDBRANCH  18  20
ENDBRANCH   9  15
BRANCH  10  16
ATOM     16  C   UNL     1      -2.880 -11.418  15.600  0.00  0.00    +0.252 C 
BRANCH  16   1
ATOM      1  O   UNL     1      -3.104 -10.358  14.691  0.00  0.00    -0.449 OA
BRANCH   1  21
ATOM      2  O   UNL     1      -1.891 -11.090  12.896  0.00  0.00    -0.226 OA
ATOM      7  N   UNL     1      -4.099 -10.347  12.672  0.00  0.00    -0.251 N 
ATOM     21  C   UNL     1      -2.936 -10.644  13.354  0.00  0.00    +0.405 C 
ATOM     39  H   UNL     1      -4.867  -9.981  13.229  0.00  0.00    +0.158 HD
BRANCH   7  27
ATOM     27  C   UNL     1      -4.358 -10.489  11.290  0.00  0.00    +0.036 A 
ATOM     30  C   UNL     1      -4.077  -9.438  10.416  0.00  0.00    +0.024 A 
ATOM     31  C   UNL     1      -4.893 -11.680  10.799  0.00  0.00    +0.024 A 
ATOM     34  C   UNL     1      -4.334  -9.578   9.052  0.00  0.00    +0.013 A 
ATOM     35  C   UNL     1      -5.148 -11.819   9.435  0.00  0.00    +0.013 A 
ATOM     36  C   UNL     1      -4.869 -10.769   8.562  0.00  0.00    +0.017 A 
BRANCH  36  37
ATOM      3  O   UNL     1      -5.207  -9.922   6.387  0.00  0.00    -0.292 OA
ATOM     37  C   UNL     1      -5.136 -10.913   7.139  0.00  0.00    +0.160 C 
ATOM     38  C   UNL     1      -5.336 -12.297   6.531  0.00  0.00    +0.091 C 
ENDBRANCH  36  37
ENDBRANCH   7  27
ENDBRANCH   1  21
ENDBRANCH  16   1
ENDBRANCH  10  16
TORSDOF 7
ENDMDL
