MODEL 1
REMARK VINA RESULT:      -7.6      0.000      0.000
REMARK  Name = 86769017
REMARK  5 active torsions:
REMARK  status: ('A' for Active; 'I' for Inactive)
REMARK    1  A    between atoms: O_3  and  C_24
REMARK    2  A    between atoms: O_3  and  C_25
REMARK    3  A    between atoms: N_4  and  C_9
REMARK    4  A    between atoms: N_6  and  C_18
REMARK    5  A    between atoms: C_18  and  C_19
REMARK                            x       y       z     vdW  Elec       q    Type
REMARK                         _______ _______ _______ _____ _____    ______ ____
ROOT
ATOM      2  O   UNL     1      12.127   6.237  19.694  0.00  0.00    -0.252 OA
ATOM      4  N   UNL     1      11.353   9.899  23.123  0.00  0.00    -0.296 NA
ATOM      5  N   UNL     1      12.213   7.841  21.408  0.00  0.00    -0.278 N 
ATOM      6  N   UNL     1      13.966   7.680  20.013  0.00  0.00    -0.279 N 
ATOM      7  C   UNL     1      13.193   8.760  21.949  0.00  0.00    +0.109 C 
ATOM      8  C   UNL     1      12.541  10.105  22.269  0.00  0.00    +0.108 C 
ATOM     10  C   UNL     1      10.359   9.044  22.443  0.00  0.00    +0.104 C 
ATOM     11  C   UNL     1      14.275   8.810  20.872  0.00  0.00    +0.133 C 
ATOM     12  C   UNL     1      10.945   7.676  22.088  0.00  0.00    +0.125 C 
ATOM     15  C   UNL     1      12.698   7.136  20.298  0.00  0.00    +0.305 C 
ENDROOT
BRANCH   4   9
ATOM      1  O   UNL     1      11.112  13.923  24.293  0.00  0.00    -0.380 OA
ATOM      9  C   UNL     1      10.758  11.183  23.484  0.00  0.00    +0.061 C 
ATOM     13  C   UNL     1      11.179  12.281  22.502  0.00  0.00    +0.047 C 
ATOM     14  C   UNL     1      11.160  11.573  24.909  0.00  0.00    +0.047 C 
ATOM     16  C   UNL     1      10.660  13.636  22.970  0.00  0.00    +0.161 C 
ATOM     17  C   UNL     1      10.641  12.967  25.243  0.00  0.00    +0.161 C 
ENDBRANCH   4   9
BRANCH   6  18
ATOM     18  C   UNL     1      14.822   7.298  18.912  0.00  0.00    +0.144 C 
BRANCH  18  19
ATOM     19  C   UNL     1      16.169   6.832  19.384  0.00  0.00    -0.030 A 
ATOM     20  C   UNL     1      16.724   7.364  20.548  0.00  0.00    +0.009 A 
ATOM     21  C   UNL     1      16.865   5.866  18.657  0.00  0.00    +0.009 A 
ATOM     22  C   UNL     1      17.975   6.930  20.986  0.00  0.00    +0.046 A 
ATOM     23  C   UNL     1      18.117   5.433  19.095  0.00  0.00    +0.046 A 
ATOM     24  C   UNL     1      18.672   5.965  20.259  0.00  0.00    +0.120 A 
BRANCH  24   3
ATOM      3  O   UNL     1      19.893   5.541  20.686  0.00  0.00    -0.495 OA
ATOM     25  C   UNL     1      20.408   6.136  21.875  0.00  0.00    +0.277 C 
ENDBRANCH  24   3
ENDBRANCH  18  19
ENDBRANCH   6  18
TORSDOF 4
ENDMDL
MODEL 2
REMARK VINA RESULT:      -7.3      4.382      6.459
REMARK  Name = 86769017
REMARK  5 active torsions:
REMARK  status: ('A' for Active; 'I' for Inactive)
REMARK    1  A    between atoms: O_3  and  C_24
REMARK    2  A    between atoms: O_3  and  C_25
REMARK    3  A    between atoms: N_4  and  C_9
REMARK    4  A    between atoms: N_6  and  C_18
REMARK    5  A    between atoms: C_18  and  C_19
REMARK                            x       y       z     vdW  Elec       q    Type
REMARK                         _______ _______ _______ _____ _____    ______ ____
ROOT
ATOM      2  O   UNL     1      12.271   6.967  17.754  0.00  0.00    -0.252 OA
ATOM      4  N   UNL     1      14.036  11.380  15.973  0.00  0.00    -0.296 NA
ATOM      5  N   UNL     1      13.072   9.143  17.381  0.00  0.00    -0.278 N 
ATOM      6  N   UNL     1      13.903   7.988  19.117  0.00  0.00    -0.279 N 
ATOM      7  C   UNL     1      13.935  10.085  18.064  0.00  0.00    +0.109 C 
ATOM      8  C   UNL     1      14.845  10.796  17.062  0.00  0.00    +0.108 C 
ATOM     10  C   UNL     1      13.279  10.332  15.259  0.00  0.00    +0.104 C 
ATOM     11  C   UNL     1      14.663   9.226  19.096  0.00  0.00    +0.133 C 
ATOM     12  C   UNL     1      12.345   9.574  16.204  0.00  0.00    +0.125 C 
ATOM     15  C   UNL     1      12.988   7.915  18.049  0.00  0.00    +0.305 C 
ENDROOT
BRANCH   4   9
ATOM      1  O   UNL     1      16.450  12.137  12.623  0.00  0.00    -0.380 OA
ATOM      9  C   UNL     1      14.891  12.114  15.043  0.00  0.00    +0.061 C 
ATOM     13  C   UNL     1      14.250  12.196  13.653  0.00  0.00    +0.047 C 
ATOM     14  C   UNL     1      16.266  11.449  14.947  0.00  0.00    +0.047 C 
ATOM     16  C   UNL     1      15.212  12.845  12.665  0.00  0.00    +0.161 C 
ATOM     17  C   UNL     1      17.116  12.140  13.886  0.00  0.00    +0.161 C 
ENDBRANCH   4   9
BRANCH   6  18
ATOM     18  C   UNL     1      14.197   6.925  20.053  0.00  0.00    +0.144 C 
BRANCH  18  19
ATOM     19  C   UNL     1      15.667   6.624  20.119  0.00  0.00    -0.030 A 
ATOM     20  C   UNL     1      16.323   6.103  19.003  0.00  0.00    +0.009 A 
ATOM     21  C   UNL     1      16.375   6.866  21.295  0.00  0.00    +0.009 A 
ATOM     22  C   UNL     1      17.688   5.824  19.065  0.00  0.00    +0.046 A 
ATOM     23  C   UNL     1      17.740   6.586  21.357  0.00  0.00    +0.046 A 
ATOM     24  C   UNL     1      18.397   6.065  20.242  0.00  0.00    +0.120 A 
BRANCH  24   3
ATOM      3  O   UNL     1      19.729   5.794  20.302  0.00  0.00    -0.495 OA
ATOM     25  C   UNL     1      20.523   6.619  21.153  0.00  0.00    +0.277 C 
ENDBRANCH  24   3
ENDBRANCH  18  19
ENDBRANCH   6  18
TORSDOF 4
ENDMDL
MODEL 3
REMARK VINA RESULT:      -7.0     27.024     28.401
REMARK  Name = 86769017
REMARK  5 active torsions:
REMARK  status: ('A' for Active; 'I' for Inactive)
REMARK    1  A    between atoms: O_3  and  C_24
REMARK    2  A    between atoms: O_3  and  C_25
REMARK    3  A    between atoms: N_4  and  C_9
REMARK    4  A    between atoms: N_6  and  C_18
REMARK    5  A    between atoms: C_18  and  C_19
REMARK                            x       y       z     vdW  Elec       q    Type
REMARK                         _______ _______ _______ _____ _____    ______ ____
ROOT
ATOM      2  O   UNL     1      -3.353 -14.146  14.392  0.00  0.00    -0.252 OA
ATOM      4  N   UNL     1      -5.796 -11.053  17.591  0.00  0.00    -0.296 NA
ATOM      5  N   UNL     1      -4.059 -12.523  15.937  0.00  0.00    -0.278 N 
ATOM      6  N   UNL     1      -2.645 -11.898  14.309  0.00  0.00    -0.279 N 
ATOM      7  C   UNL     1      -3.736 -11.146  16.247  0.00  0.00    +0.109 C 
ATOM      8  C   UNL     1      -5.009 -10.357  16.552  0.00  0.00    +0.108 C 
ATOM     10  C   UNL     1      -6.177 -12.407  17.143  0.00  0.00    +0.104 C 
ATOM     11  C   UNL     1      -2.965 -10.670  15.016  0.00  0.00    +0.133 C 
ATOM     12  C   UNL     1      -4.948 -13.256  16.815  0.00  0.00    +0.125 C 
ATOM     15  C   UNL     1      -3.350 -13.002  14.828  0.00  0.00    +0.305 C 
ENDROOT
BRANCH   4   9
ATOM      1  O   UNL     1      -9.770  -9.705  17.484  0.00  0.00    -0.380 OA
ATOM      9  C   UNL     1      -6.984 -10.277  17.934  0.00  0.00    +0.061 C 
ATOM     13  C   UNL     1      -8.103 -11.184  18.456  0.00  0.00    +0.047 C 
ATOM     14  C   UNL     1      -7.474  -9.488  16.717  0.00  0.00    +0.047 C 
ATOM     16  C   UNL     1      -9.377 -10.376  18.681  0.00  0.00    +0.161 C 
ATOM     17  C   UNL     1      -8.782  -8.774  17.039  0.00  0.00    +0.161 C 
ENDBRANCH   4   9
BRANCH   6  18
ATOM     18  C   UNL     1      -1.814 -11.905  13.125  0.00  0.00    +0.144 C 
BRANCH  18  19
ATOM     19  C   UNL     1      -2.432 -11.125  12.000  0.00  0.00    -0.030 A 
ATOM     20  C   UNL     1      -3.604 -11.581  11.397  0.00  0.00    +0.009 A 
ATOM     21  C   UNL     1      -1.833  -9.946  11.560  0.00  0.00    +0.009 A 
ATOM     22  C   UNL     1      -4.177 -10.856  10.352  0.00  0.00    +0.046 A 
ATOM     23  C   UNL     1      -2.406  -9.221  10.515  0.00  0.00    +0.046 A 
ATOM     24  C   UNL     1      -3.578  -9.676   9.910  0.00  0.00    +0.120 A 
BRANCH  24   3
ATOM      3  O   UNL     1      -4.138  -8.968   8.892  0.00  0.00    -0.495 OA
ATOM     25  C   UNL     1      -5.079  -9.651   8.065  0.00  0.00    +0.277 C 
ENDBRANCH  24   3
ENDBRANCH  18  19
ENDBRANCH   6  18
TORSDOF 4
ENDMDL
MODEL 4
REMARK VINA RESULT:      -7.0     26.704     28.580
REMARK  Name = 86769017
REMARK  5 active torsions:
REMARK  status: ('A' for Active; 'I' for Inactive)
REMARK    1  A    between atoms: O_3  and  C_24
REMARK    2  A    between atoms: O_3  and  C_25
REMARK    3  A    between atoms: N_4  and  C_9
REMARK    4  A    between atoms: N_6  and  C_18
REMARK    5  A    between atoms: C_18  and  C_19
REMARK                            x       y       z     vdW  Elec       q    Type
REMARK                         _______ _______ _______ _____ _____    ______ ____
ROOT
ATOM      2  O   UNL     1      -1.178 -11.502  15.044  0.00  0.00    -0.252 OA
ATOM      4  N   UNL     1      -5.769 -10.881  17.119  0.00  0.00    -0.296 NA
ATOM      5  N   UNL     1      -3.359 -10.890  15.668  0.00  0.00    -0.278 N 
ATOM      6  N   UNL     1      -2.920 -11.181  13.486  0.00  0.00    -0.279 N 
ATOM      7  C   UNL     1      -4.582 -10.500  14.997  0.00  0.00    +0.109 C 
ATOM      8  C   UNL     1      -5.789 -11.155  15.667  0.00  0.00    +0.108 C 
ATOM     10  C   UNL     1      -4.539 -11.414  17.739  0.00  0.00    +0.104 C 
ATOM     11  C   UNL     1      -4.347 -10.919  13.546  0.00  0.00    +0.133 C 
ATOM     12  C   UNL     1      -3.285 -10.803  17.112  0.00  0.00    +0.125 C 
ATOM     15  C   UNL     1      -2.338 -11.222  14.768  0.00  0.00    +0.305 C 
ENDROOT
BRANCH   4   9
ATOM      1  O   UNL     1      -8.714 -11.553  20.034  0.00  0.00    -0.380 OA
ATOM      9  C   UNL     1      -6.951 -11.450  17.760  0.00  0.00    +0.061 C 
ATOM     13  C   UNL     1      -8.005 -10.371  18.032  0.00  0.00    +0.047 C 
ATOM     14  C   UNL     1      -6.564 -12.146  19.068  0.00  0.00    +0.047 C 
ATOM     16  C   UNL     1      -9.171 -10.958  18.820  0.00  0.00    +0.161 C 
ATOM     17  C   UNL     1      -7.810 -12.634  19.798  0.00  0.00    +0.161 C 
ENDBRANCH   4   9
BRANCH   6  18
ATOM     18  C   UNL     1      -2.253 -11.506  12.244  0.00  0.00    +0.144 C 
BRANCH  18  19
ATOM     19  C   UNL     1      -3.014 -11.007  11.049  0.00  0.00    -0.030 A 
ATOM     20  C   UNL     1      -2.935  -9.662  10.685  0.00  0.00    +0.009 A 
ATOM     21  C   UNL     1      -3.797 -11.887  10.305  0.00  0.00    +0.009 A 
ATOM     22  C   UNL     1      -3.642  -9.199   9.575  0.00  0.00    +0.046 A 
ATOM     23  C   UNL     1      -4.504 -11.424   9.196  0.00  0.00    +0.046 A 
ATOM     24  C   UNL     1      -4.427 -10.080   8.830  0.00  0.00    +0.120 A 
BRANCH  24   3
ATOM      3  O   UNL     1      -5.116  -9.628   7.747  0.00  0.00    -0.495 OA
ATOM     25  C   UNL     1      -6.492  -9.303   7.941  0.00  0.00    +0.277 C 
ENDBRANCH  24   3
ENDBRANCH  18  19
ENDBRANCH   6  18
TORSDOF 4
ENDMDL
MODEL 5
REMARK VINA RESULT:      -6.6     14.872     16.421
REMARK  Name = 86769017
REMARK  5 active torsions:
REMARK  status: ('A' for Active; 'I' for Inactive)
REMARK    1  A    between atoms: O_3  and  C_24
REMARK    2  A    between atoms: O_3  and  C_25
REMARK    3  A    between atoms: N_4  and  C_9
REMARK    4  A    between atoms: N_6  and  C_18
REMARK    5  A    between atoms: C_18  and  C_19
REMARK                            x       y       z     vdW  Elec       q    Type
REMARK                         _______ _______ _______ _____ _____    ______ ____
ROOT
ATOM      2  O   UNL     1      15.228   9.250   3.167  0.00  0.00    -0.252 OA
ATOM      4  N   UNL     1      11.718   6.475   5.564  0.00  0.00    -0.296 NA
ATOM      5  N   UNL     1      13.974   7.748   4.466  0.00  0.00    -0.278 N 
ATOM      6  N   UNL     1      15.741   8.757   5.416  0.00  0.00    -0.279 N 
ATOM      7  C   UNL     1      14.078   7.140   5.777  0.00  0.00    +0.109 C 
ATOM      8  C   UNL     1      12.710   7.107   6.458  0.00  0.00    +0.108 C 
ATOM     10  C   UNL     1      11.595   7.227   4.299  0.00  0.00    +0.104 C 
ATOM     11  C   UNL     1      15.129   7.991   6.488  0.00  0.00    +0.133 C 
ATOM     12  C   UNL     1      12.934   7.305   3.561  0.00  0.00    +0.125 C 
ATOM     15  C   UNL     1      15.010   8.657   4.216  0.00  0.00    +0.305 C 
ENDROOT
BRANCH   4   9
ATOM      1  O   UNL     1       8.588   7.390   8.208  0.00  0.00    -0.380 OA
ATOM      9  C   UNL     1      10.421   6.383   6.229  0.00  0.00    +0.061 C 
ATOM     13  C   UNL     1       9.600   7.659   6.014  0.00  0.00    +0.047 C 
ATOM     14  C   UNL     1      10.608   6.126   7.726  0.00  0.00    +0.047 C 
ATOM     16  C   UNL     1       8.309   7.600   6.824  0.00  0.00    +0.161 C 
ATOM     17  C   UNL     1       9.261   6.151   8.441  0.00  0.00    +0.161 C 
ENDBRANCH   4   9
BRANCH   6  18
ATOM     18  C   UNL     1      16.875   9.625   5.645  0.00  0.00    +0.144 C 
BRANCH  18  19
ATOM     19  C   UNL     1      18.179   8.893   5.505  0.00  0.00    -0.030 A 
ATOM     20  C   UNL     1      19.058   8.821   6.587  0.00  0.00    +0.009 A 
ATOM     21  C   UNL     1      18.511   8.287   4.295  0.00  0.00    +0.009 A 
ATOM     22  C   UNL     1      20.269   8.142   6.456  0.00  0.00    +0.046 A 
ATOM     23  C   UNL     1      19.722   7.607   4.164  0.00  0.00    +0.046 A 
ATOM     24  C   UNL     1      20.601   7.535   5.244  0.00  0.00    +0.120 A 
BRANCH  24   3
ATOM      3  O   UNL     1      21.783   6.871   5.117  0.00  0.00    -0.495 OA
ATOM     25  C   UNL     1      22.050   6.256   3.858  0.00  0.00    +0.277 C 
ENDBRANCH  24   3
ENDBRANCH  18  19
ENDBRANCH   6  18
TORSDOF 4
ENDMDL
MODEL 6
REMARK VINA RESULT:      -6.6     27.462     29.888
REMARK  Name = 86769017
REMARK  5 active torsions:
REMARK  status: ('A' for Active; 'I' for Inactive)
REMARK    1  A    between atoms: O_3  and  C_24
REMARK    2  A    between atoms: O_3  and  C_25
REMARK    3  A    between atoms: N_4  and  C_9
REMARK    4  A    between atoms: N_6  and  C_18
REMARK    5  A    between atoms: C_18  and  C_19
REMARK                            x       y       z     vdW  Elec       q    Type
REMARK                         _______ _______ _______ _____ _____    ______ ____
ROOT
ATOM      2  O   UNL     1      -6.405 -10.318  20.070  0.00  0.00    -0.252 OA
ATOM      4  N   UNL     1      -4.415 -12.278  15.831  0.00  0.00    -0.296 NA
ATOM      5  N   UNL     1      -5.783 -11.579  18.188  0.00  0.00    -0.278 N 
ATOM      6  N   UNL     1      -7.970 -11.368  18.650  0.00  0.00    -0.279 N 
ATOM      7  C   UNL     1      -6.443 -12.429  17.219  0.00  0.00    +0.109 C 
ATOM      8  C   UNL     1      -5.889 -12.168  15.819  0.00  0.00    +0.108 C 
ATOM     10  C   UNL     1      -3.823 -11.296  16.762  0.00  0.00    +0.104 C 
ATOM     11  C   UNL     1      -7.924 -12.098  17.396  0.00  0.00    +0.133 C 
ATOM     12  C   UNL     1      -4.337 -11.496  18.189  0.00  0.00    +0.125 C 
ATOM     15  C   UNL     1      -6.683 -11.005  19.095  0.00  0.00    +0.305 C 
ENDROOT
BRANCH   4   9
ATOM      1  O   UNL     1      -2.125 -10.660  12.707  0.00  0.00    -0.380 OA
ATOM      9  C   UNL     1      -3.880 -12.090  14.485  0.00  0.00    +0.061 C 
ATOM     13  C   UNL     1      -2.367 -12.331  14.455  0.00  0.00    +0.047 C 
ATOM     14  C   UNL     1      -4.196 -10.681  13.978  0.00  0.00    +0.047 C 
ATOM     16  C   UNL     1      -1.806 -12.001  13.076  0.00  0.00    +0.161 C 
ATOM     17  C   UNL     1      -3.534 -10.442  12.626  0.00  0.00    +0.161 C 
ENDBRANCH   4   9
BRANCH   6  18
ATOM     18  C   UNL     1      -9.220 -10.955  19.251  0.00  0.00    +0.144 C 
BRANCH  18  19
ATOM     19  C   UNL     1      -9.918  -9.908  18.431  0.00  0.00    -0.030 A 
ATOM     20  C   UNL     1      -9.174  -8.941  17.755  0.00  0.00    +0.009 A 
ATOM     21  C   UNL     1     -11.310  -9.903  18.348  0.00  0.00    +0.009 A 
ATOM     22  C   UNL     1      -9.824  -7.969  16.994  0.00  0.00    +0.046 A 
ATOM     23  C   UNL     1     -11.959  -8.931  17.587  0.00  0.00    +0.046 A 
ATOM     24  C   UNL     1     -11.216  -7.963  16.910  0.00  0.00    +0.120 A 
BRANCH  24   3
ATOM      3  O   UNL     1     -11.850  -7.016  16.167  0.00  0.00    -0.495 OA
ATOM     25  C   UNL     1     -11.035  -6.025  15.544  0.00  0.00    +0.277 C 
ENDBRANCH  24   3
ENDBRANCH  18  19
ENDBRANCH   6  18
TORSDOF 4
ENDMDL
MODEL 7
REMARK VINA RESULT:      -6.5     27.060     28.588
REMARK  Name = 86769017
REMARK  5 active torsions:
REMARK  status: ('A' for Active; 'I' for Inactive)
REMARK    1  A    between atoms: O_3  and  C_24
REMARK    2  A    between atoms: O_3  and  C_25
REMARK    3  A    between atoms: N_4  and  C_9
REMARK    4  A    between atoms: N_6  and  C_18
REMARK    5  A    between atoms: C_18  and  C_19
REMARK                            x       y       z     vdW  Elec       q    Type
REMARK                         _______ _______ _______ _____ _____    ______ ____
ROOT
ATOM      2  O   UNL     1      -2.981 -13.349  11.840  0.00  0.00    -0.252 OA
ATOM      4  N   UNL     1      -4.330 -12.275  16.614  0.00  0.00    -0.296 NA
ATOM      5  N   UNL     1      -3.201 -12.612  14.059  0.00  0.00    -0.278 N 
ATOM      6  N   UNL     1      -2.520 -11.135  12.511  0.00  0.00    -0.279 N 
ATOM      7  C   UNL     1      -2.892 -11.413  14.812  0.00  0.00    +0.109 C 
ATOM      8  C   UNL     1      -4.025 -11.090  15.786  0.00  0.00    +0.108 C 
ATOM     10  C   UNL     1      -4.745 -13.414  15.770  0.00  0.00    +0.104 C 
ATOM     11  C   UNL     1      -2.654 -10.359  13.732  0.00  0.00    +0.133 C 
ATOM     12  C   UNL     1      -3.657 -13.792  14.764  0.00  0.00    +0.125 C 
ATOM     15  C   UNL     1      -2.906 -12.477  12.697  0.00  0.00    +0.305 C 
ENDROOT
BRANCH   4   9
ATOM      1  O   UNL     1      -6.391 -10.188  19.618  0.00  0.00    -0.380 OA
ATOM      9  C   UNL     1      -5.369 -11.959  17.590  0.00  0.00    +0.061 C 
ATOM     13  C   UNL     1      -6.059 -10.633  17.251  0.00  0.00    +0.047 C 
ATOM     14  C   UNL     1      -4.774 -11.895  18.999  0.00  0.00    +0.047 C 
ATOM     16  C   UNL     1      -7.045 -10.254  18.351  0.00  0.00    +0.161 C 
ATOM     17  C   UNL     1      -5.831 -11.445  20.002  0.00  0.00    +0.161 C 
ENDBRANCH   4   9
BRANCH   6  18
ATOM     18  C   UNL     1      -2.173 -10.521  11.248  0.00  0.00    +0.144 C 
BRANCH  18  19
ATOM     19  C   UNL     1      -3.389 -10.082  10.484  0.00  0.00    -0.030 A 
ATOM     20  C   UNL     1      -3.892  -8.792  10.655  0.00  0.00    +0.009 A 
ATOM     21  C   UNL     1      -4.015 -10.964   9.604  0.00  0.00    +0.009 A 
ATOM     22  C   UNL     1      -5.022  -8.385   9.946  0.00  0.00    +0.046 A 
ATOM     23  C   UNL     1      -5.144 -10.557   8.894  0.00  0.00    +0.046 A 
ATOM     24  C   UNL     1      -5.648  -9.267   9.065  0.00  0.00    +0.120 A 
BRANCH  24   3
ATOM      3  O   UNL     1      -6.750  -8.869   8.371  0.00  0.00    -0.495 OA
ATOM     25  C   UNL     1      -7.890  -8.475   9.133  0.00  0.00    +0.277 C 
ENDBRANCH  24   3
ENDBRANCH  18  19
ENDBRANCH   6  18
TORSDOF 4
ENDMDL
MODEL 8
REMARK VINA RESULT:      -6.4     26.590     30.039
REMARK  Name = 86769017
REMARK  5 active torsions:
REMARK  status: ('A' for Active; 'I' for Inactive)
REMARK    1  A    between atoms: O_3  and  C_24
REMARK    2  A    between atoms: O_3  and  C_25
REMARK    3  A    between atoms: N_4  and  C_9
REMARK    4  A    between atoms: N_6  and  C_18
REMARK    5  A    between atoms: C_18  and  C_19
REMARK                            x       y       z     vdW  Elec       q    Type
REMARK                         _______ _______ _______ _____ _____    ______ ____
ROOT
ATOM      2  O   UNL     1      -8.618 -10.936  20.087  0.00  0.00    -0.252 OA
ATOM      4  N   UNL     1      -4.892 -11.252  16.655  0.00  0.00    -0.296 NA
ATOM      5  N   UNL     1      -7.176 -11.396  18.291  0.00  0.00    -0.278 N 
ATOM      6  N   UNL     1      -9.359 -11.099  17.853  0.00  0.00    -0.279 N 
ATOM      7  C   UNL     1      -7.305 -11.682  16.877  0.00  0.00    +0.109 C 
ATOM      8  C   UNL     1      -6.221 -10.951  16.085  0.00  0.00    +0.108 C 
ATOM     10  C   UNL     1      -4.815 -10.823  18.066  0.00  0.00    +0.104 C 
ATOM     11  C   UNL     1      -8.736 -11.256  16.550  0.00  0.00    +0.133 C 
ATOM     12  C   UNL     1      -5.878 -11.515  18.922  0.00  0.00    +0.125 C 
ATOM     15  C   UNL     1      -8.411 -11.124  18.895  0.00  0.00    +0.305 C 
ENDROOT
BRANCH   4   9
ATOM      1  O   UNL     1      -1.498 -10.853  14.217  0.00  0.00    -0.380 OA
ATOM      9  C   UNL     1      -3.843 -10.608  15.869  0.00  0.00    +0.061 C 
ATOM     13  C   UNL     1      -3.915 -11.037  14.400  0.00  0.00    +0.047 C 
ATOM     14  C   UNL     1      -2.465 -10.942  16.445  0.00  0.00    +0.047 C 
ATOM     16  C   UNL     1      -2.735 -10.461  13.623  0.00  0.00    +0.161 C 
ATOM     17  C   UNL     1      -1.366 -10.371  15.556  0.00  0.00    +0.161 C 
ENDBRANCH   4   9
BRANCH   6  18
ATOM     18  C   UNL     1     -10.767 -10.802  17.998  0.00  0.00    +0.144 C 
BRANCH  18  19
ATOM     19  C   UNL     1     -11.126  -9.473  17.399  0.00  0.00    -0.030 A 
ATOM     20  C   UNL     1     -12.346  -9.310  16.743  0.00  0.00    +0.009 A 
ATOM     21  C   UNL     1     -10.239  -8.401  17.501  0.00  0.00    +0.009 A 
ATOM     22  C   UNL     1     -12.679  -8.075  16.187  0.00  0.00    +0.046 A 
ATOM     23  C   UNL     1     -10.572  -7.166  16.945  0.00  0.00    +0.046 A 
ATOM     24  C   UNL     1     -11.792  -7.002  16.287  0.00  0.00    +0.120 A 
BRANCH  24   3
ATOM      3  O   UNL     1     -12.116  -5.797  15.746  0.00  0.00    -0.495 OA
ATOM     25  C   UNL     1     -12.765  -5.808  14.476  0.00  0.00    +0.277 C 
ENDBRANCH  24   3
ENDBRANCH  18  19
ENDBRANCH   6  18
TORSDOF 4
ENDMDL
MODEL 9
REMARK VINA RESULT:      -6.4     18.478     20.882
REMARK  Name = 86769017
REMARK  5 active torsions:
REMARK  status: ('A' for Active; 'I' for Inactive)
REMARK    1  A    between atoms: O_3  and  C_24
REMARK    2  A    between atoms: O_3  and  C_25
REMARK    3  A    between atoms: N_4  and  C_9
REMARK    4  A    between atoms: N_6  and  C_18
REMARK    5  A    between atoms: C_18  and  C_19
REMARK                            x       y       z     vdW  Elec       q    Type
REMARK                         _______ _______ _______ _____ _____    ______ ____
ROOT
ATOM      2  O   UNL     1      12.133   6.620   0.079  0.00  0.00    -0.252 OA
ATOM      4  N   UNL     1       9.504   5.658   4.313  0.00  0.00    -0.296 NA
ATOM      5  N   UNL     1      10.872   5.743   1.856  0.00  0.00    -0.278 N 
ATOM      6  N   UNL     1      12.542   4.496   1.022  0.00  0.00    -0.279 N 
ATOM      7  C   UNL     1      10.769   4.481   2.560  0.00  0.00    +0.109 C 
ATOM      8  C   UNL     1      10.618   4.721   4.061  0.00  0.00    +0.108 C 
ATOM     10  C   UNL     1       9.748   6.956   3.652  0.00  0.00    +0.104 C 
ATOM     11  C   UNL     1      12.039   3.736   2.153  0.00  0.00    +0.133 C 
ATOM     12  C   UNL     1       9.914   6.792   2.139  0.00  0.00    +0.125 C 
ATOM     15  C   UNL     1      11.878   5.731   0.881  0.00  0.00    +0.305 C 
ENDROOT
BRANCH   4   9
ATOM      1  O   UNL     1      10.460   6.105   8.376  0.00  0.00    -0.380 OA
ATOM      9  C   UNL     1       9.312   5.846   5.748  0.00  0.00    +0.061 C 
ATOM     13  C   UNL     1       9.981   7.138   6.229  0.00  0.00    +0.047 C 
ATOM     14  C   UNL     1       9.871   4.648   6.521  0.00  0.00    +0.047 C 
ATOM     16  C   UNL     1       9.886   7.250   7.747  0.00  0.00    +0.161 C 
ATOM     17  C   UNL     1       9.782   4.898   8.023  0.00  0.00    +0.161 C 
ENDBRANCH   4   9
BRANCH   6  18
ATOM     18  C   UNL     1      13.692   4.063   0.258  0.00  0.00    +0.144 C 
BRANCH  18  19
ATOM     19  C   UNL     1      13.331   3.735  -1.163  0.00  0.00    -0.030 A 
ATOM     20  C   UNL     1      12.394   2.737  -1.432  0.00  0.00    +0.009 A 
ATOM     21  C   UNL     1      13.933   4.428  -2.212  0.00  0.00    +0.009 A 
ATOM     22  C   UNL     1      12.060   2.432  -2.751  0.00  0.00    +0.046 A 
ATOM     23  C   UNL     1      13.599   4.124  -3.531  0.00  0.00    +0.046 A 
ATOM     24  C   UNL     1      12.662   3.126  -3.801  0.00  0.00    +0.120 A 
BRANCH  24   3
ATOM      3  O   UNL     1      12.336   2.830  -5.089  0.00  0.00    -0.495 OA
ATOM     25  C   UNL     1      11.062   3.273  -5.555  0.00  0.00    +0.277 C 
ENDBRANCH  24   3
ENDBRANCH  18  19
ENDBRANCH   6  18
TORSDOF 4
ENDMDL
MODEL 10
REMARK VINA RESULT:      -6.4     26.265     28.717
REMARK  Name = 86769017
REMARK  5 active torsions:
REMARK  status: ('A' for Active; 'I' for Inactive)
REMARK    1  A    between atoms: O_3  and  C_24
REMARK    2  A    between atoms: O_3  and  C_25
REMARK    3  A    between atoms: N_4  and  C_9
REMARK    4  A    between atoms: N_6  and  C_18
REMARK    5  A    between atoms: C_18  and  C_19
REMARK                            x       y       z     vdW  Elec       q    Type
REMARK                         _______ _______ _______ _____ _____    ______ ____
ROOT
ATOM      2  O   UNL     1      -6.686 -13.367  17.297  0.00  0.00    -0.252 OA
ATOM      4  N   UNL     1      -9.638  -9.256  16.918  0.00  0.00    -0.296 NA
ATOM      5  N   UNL     1      -7.783 -11.297  17.470  0.00  0.00    -0.278 N 
ATOM      6  N   UNL     1      -5.538 -11.317  17.513  0.00  0.00    -0.279 N 
ATOM      7  C   UNL     1      -7.413  -9.922  17.733  0.00  0.00    +0.109 C 
ATOM      8  C   UNL     1      -8.190  -8.978  16.816  0.00  0.00    +0.108 C 
ATOM     10  C   UNL     1      -9.936 -10.647  16.521  0.00  0.00    +0.104 C 
ATOM     11  C   UNL     1      -5.899  -9.910  17.531  0.00  0.00    +0.133 C 
ATOM     12  C   UNL     1      -9.185 -11.652  17.398  0.00  0.00    +0.125 C 
ATOM     15  C   UNL     1      -6.672 -12.148  17.416  0.00  0.00    +0.305 C 
ENDROOT
BRANCH   4   9
ATOM      1  O   UNL     1     -12.842  -6.881  15.606  0.00  0.00    -0.380 OA
ATOM      9  C   UNL     1     -10.395  -8.318  16.092  0.00  0.00    +0.061 C 
ATOM     13  C   UNL     1     -10.789  -7.073  16.893  0.00  0.00    +0.047 C 
ATOM     14  C   UNL     1     -11.646  -8.996  15.528  0.00  0.00    +0.047 C 
ATOM     16  C   UNL     1     -11.690  -6.170  16.058  0.00  0.00    +0.161 C 
ATOM     17  C   UNL     1     -12.499  -7.986  14.768  0.00  0.00    +0.161 C 
ENDBRANCH   4   9
BRANCH   6  18
ATOM     18  C   UNL     1      -4.161 -11.754  17.449  0.00  0.00    +0.144 C 
BRANCH  18  19
ATOM     19  C   UNL     1      -3.486 -11.302  16.186  0.00  0.00    -0.030 A 
ATOM     20  C   UNL     1      -4.138 -11.435  14.960  0.00  0.00    +0.009 A 
ATOM     21  C   UNL     1      -2.207 -10.750  16.240  0.00  0.00    +0.009 A 
ATOM     22  C   UNL     1      -3.511 -11.015  13.787  0.00  0.00    +0.046 A 
ATOM     23  C   UNL     1      -1.579 -10.330  15.067  0.00  0.00    +0.046 A 
ATOM     24  C   UNL     1      -2.231 -10.462  13.841  0.00  0.00    +0.120 A 
BRANCH  24   3
ATOM      3  O   UNL     1      -1.618 -10.051  12.697  0.00  0.00    -0.495 OA
ATOM     25  C   UNL     1      -2.339 -10.219  11.477  0.00  0.00    +0.277 C 
ENDBRANCH  24   3
ENDBRANCH  18  19
ENDBRANCH   6  18
TORSDOF 4
ENDMDL
