MODEL 1
REMARK VINA RESULT:      -7.8      0.000      0.000
REMARK  Name = 45783936
REMARK  10 active torsions:
REMARK  status: ('A' for Active; 'I' for Inactive)
REMARK    1  A    between atoms: N_2  and  C_13
REMARK    2  A    between atoms: C_8  and  C_12
REMARK    3  A    between atoms: C_9  and  C_13
REMARK    4  A    between atoms: C_11  and  C_16
REMARK    5  A    between atoms: C_12  and  C_17
REMARK    6  A    between atoms: C_12  and  C_18
REMARK    7  A    between atoms: C_15  and  C_21
REMARK    8  A    between atoms: C_16  and  C_24
REMARK    9  A    between atoms: C_26  and  C_27
REMARK   10  A    between atoms: C_35  and  C_36
REMARK                            x       y       z     vdW  Elec       q    Type
REMARK                         _______ _______ _______ _____ _____    ______ ____
ROOT
ATOM      8  C   UNL     1      -5.439 -10.402  10.563  0.00  0.00    +0.000 C 
ATOM      9  C   UNL     1      -4.673  -9.969   9.291  0.00  0.00    +0.029 C 
ATOM     10  C   UNL     1      -4.507 -11.157  11.521  0.00  0.00    +0.012 C 
ATOM     11  C   UNL     1      -3.258 -10.345  11.926  0.00  0.00    +0.024 C 
ATOM     14  C   UNL     1      -3.313  -9.398   9.601  0.00  0.00    -0.023 C 
ATOM     15  C   UNL     1      -2.671  -9.544  10.774  0.00  0.00    -0.073 C 
ATOM     21  C   UNL     1      -1.353  -8.857  11.008  0.00  0.00    +0.039 C 
ENDROOT
BRANCH   8  12
ATOM     12  C   UNL     1      -6.095  -9.202  11.257  0.00  0.00    -0.013 C 
ATOM     17  C   UNL     1      -7.349  -8.770  10.503  0.00  0.00    +0.007 C 
ATOM     18  C   UNL     1      -6.425  -9.540  12.707  0.00  0.00    +0.007 C 
ENDBRANCH   8  12
BRANCH   9  13
ATOM     13  C   UNL     1      -4.518 -11.128   8.301  0.00  0.00    +0.092 C 
BRANCH  13   2
ATOM      2  N   UNL     1      -4.981 -10.736   6.970  0.00  0.00    -0.299 NA
ATOM      3  N   UNL     1      -6.837 -10.540   4.808  0.00  0.00    -0.297 N 
ATOM      6  N   UNL     1      -8.642  -9.493   3.758  0.00  0.00    -0.223 NA
ATOM      7  N   UNL     1      -7.359 -11.190   2.626  0.00  0.00    -0.223 NA
ATOM     19  C   UNL     1      -6.149  -9.852   7.071  0.00  0.00    +0.103 C 
ATOM     20  C   UNL     1      -5.319 -11.921   6.173  0.00  0.00    +0.103 C 
ATOM     22  C   UNL     1      -6.610  -9.389   5.687  0.00  0.00    +0.123 C 
ATOM     23  C   UNL     1      -5.751 -11.526   4.759  0.00  0.00    +0.123 C 
ATOM     25  C   UNL     1      -7.652 -10.401   3.678  0.00  0.00    +0.218 A 
ATOM     28  C   UNL     1      -9.406  -9.385   2.652  0.00  0.00    +0.116 A 
ATOM     29  C   UNL     1      -8.164 -11.030   1.555  0.00  0.00    +0.116 A 
ATOM     30  C   UNL     1      -9.213 -10.134   1.511  0.00  0.00    +0.039 A 
ENDBRANCH  13   2
ENDBRANCH   9  13
BRANCH  11  16
ATOM     16  C   UNL     1      -2.243 -11.297  12.569  0.00  0.00    +0.105 C 
BRANCH  16  24
ATOM      1  O   UNL     1      -3.401 -11.166  14.713  0.00  0.00    -0.420 OA
ATOM      4  N   UNL     1      -1.178 -10.962  14.859  0.00  0.00    -0.112 NA
ATOM      5  N   UNL     1      -1.699 -10.869  16.135  0.00  0.00    -0.107 NA
ATOM     24  C   UNL     1      -2.207 -11.135  14.062  0.00  0.00    +0.218 A 
ATOM     26  C   UNL     1      -2.999 -10.994  16.002  0.00  0.00    +0.248 A 
BRANCH  26  27
ATOM     27  C   UNL     1      -4.042 -10.977  16.987  0.00  0.00    +0.038 A 
ATOM     31  C   UNL     1      -3.892 -11.695  18.173  0.00  0.00    +0.013 A 
ATOM     32  C   UNL     1      -5.206 -10.241  16.760  0.00  0.00    +0.013 A 
ATOM     33  C   UNL     1      -4.906 -11.679  19.131  0.00  0.00    +0.004 A 
ATOM     34  C   UNL     1      -6.219 -10.225  17.717  0.00  0.00    +0.004 A 
ATOM     35  C   UNL     1      -6.069 -10.943  18.903  0.00  0.00    -0.050 A 
ATOM     36  C   UNL     1      -7.153 -10.926  19.927  0.00  0.00    +0.044 C 
ENDBRANCH  26  27
ENDBRANCH  16  24
ENDBRANCH  11  16
TORSDOF 6
ENDMDL
MODEL 2
REMARK VINA RESULT:      -7.5      4.541      9.671
REMARK  Name = 45783936
REMARK  10 active torsions:
REMARK  status: ('A' for Active; 'I' for Inactive)
REMARK    1  A    between atoms: N_2  and  C_13
REMARK    2  A    between atoms: C_8  and  C_12
REMARK    3  A    between atoms: C_9  and  C_13
REMARK    4  A    between atoms: C_11  and  C_16
REMARK    5  A    between atoms: C_12  and  C_17
REMARK    6  A    between atoms: C_12  and  C_18
REMARK    7  A    between atoms: C_15  and  C_21
REMARK    8  A    between atoms: C_16  and  C_24
REMARK    9  A    between atoms: C_26  and  C_27
REMARK   10  A    between atoms: C_35  and  C_36
REMARK                            x       y       z     vdW  Elec       q    Type
REMARK                         _______ _______ _______ _____ _____    ______ ____
ROOT
ATOM      8  C   UNL     1      -7.071 -12.014  17.043  0.00  0.00    +0.000 C 
ATOM      9  C   UNL     1      -7.133 -11.770  18.568  0.00  0.00    +0.029 C 
ATOM     10  C   UNL     1      -5.849 -11.313  16.434  0.00  0.00    +0.012 C 
ATOM     11  C   UNL     1      -4.514 -11.745  17.077  0.00  0.00    +0.024 C 
ATOM     14  C   UNL     1      -5.789 -11.921  19.234  0.00  0.00    -0.023 C 
ATOM     15  C   UNL     1      -4.610 -11.925  18.585  0.00  0.00    -0.073 C 
ATOM     21  C   UNL     1      -3.331 -12.172  19.338  0.00  0.00    +0.039 C 
ENDROOT
BRANCH   8  12
ATOM     12  C   UNL     1      -7.071 -13.513  16.715  0.00  0.00    -0.013 C 
ATOM     17  C   UNL     1      -8.196 -14.221  17.465  0.00  0.00    +0.007 C 
ATOM     18  C   UNL     1      -7.203 -13.729  15.212  0.00  0.00    +0.007 C 
ENDBRANCH   8  12
BRANCH   9  13
ATOM     13  C   UNL     1      -7.705 -10.387  18.898  0.00  0.00    +0.092 C 
BRANCH  13   2
ATOM      2  N   UNL     1      -8.722 -10.002  17.921  0.00  0.00    -0.299 NA
ATOM      3  N   UNL     1     -10.698  -8.308  16.743  0.00  0.00    -0.297 N 
ATOM      6  N   UNL     1     -11.289  -6.524  15.356  0.00  0.00    -0.223 NA
ATOM      7  N   UNL     1     -12.963  -7.999  16.268  0.00  0.00    -0.223 NA
ATOM     19  C   UNL     1      -8.326  -8.775  17.221  0.00  0.00    +0.103 C 
ATOM     20  C   UNL     1     -10.019  -9.805  18.580  0.00  0.00    +0.103 C 
ATOM     22  C   UNL     1      -9.357  -8.391  16.155  0.00  0.00    +0.123 C 
ATOM     23  C   UNL     1     -11.106  -9.458  17.560  0.00  0.00    +0.123 C 
ATOM     25  C   UNL     1     -11.697  -7.576  16.092  0.00  0.00    +0.218 A 
ATOM     28  C   UNL     1     -12.278  -5.842  14.743  0.00  0.00    +0.116 A 
ATOM     29  C   UNL     1     -13.900  -7.270  15.626  0.00  0.00    +0.116 A 
ATOM     30  C   UNL     1     -13.613  -6.171  14.842  0.00  0.00    +0.039 A 
ENDBRANCH  13   2
ENDBRANCH   9  13
BRANCH  11  16
ATOM     16  C   UNL     1      -3.426 -10.746  16.665  0.00  0.00    +0.105 C 
BRANCH  16  24
ATOM      1  O   UNL     1      -3.618 -10.632  14.235  0.00  0.00    -0.420 OA
ATOM      4  N   UNL     1      -1.786 -11.691  14.960  0.00  0.00    -0.112 NA
ATOM      5  N   UNL     1      -1.765 -11.702  13.579  0.00  0.00    -0.107 NA
ATOM     24  C   UNL     1      -2.884 -11.057  15.299  0.00  0.00    +0.218 A 
ATOM     26  C   UNL     1      -2.853 -11.073  13.199  0.00  0.00    +0.248 A 
BRANCH  26  27
ATOM     27  C   UNL     1      -3.350 -10.784  11.885  0.00  0.00    +0.038 A 
ATOM     31  C   UNL     1      -2.972  -9.607  11.240  0.00  0.00    +0.013 A 
ATOM     32  C   UNL     1      -4.212 -11.681  11.251  0.00  0.00    +0.013 A 
ATOM     33  C   UNL     1      -3.457  -9.325   9.962  0.00  0.00    +0.004 A 
ATOM     34  C   UNL     1      -4.695 -11.399   9.974  0.00  0.00    +0.004 A 
ATOM     35  C   UNL     1      -4.318 -10.222   9.329  0.00  0.00    -0.050 A 
ATOM     36  C   UNL     1      -4.835  -9.921   7.963  0.00  0.00    +0.044 C 
ENDBRANCH  26  27
ENDBRANCH  16  24
ENDBRANCH  11  16
TORSDOF 6
ENDMDL
MODEL 3
REMARK VINA RESULT:      -7.3      5.157     11.593
REMARK  Name = 45783936
REMARK  10 active torsions:
REMARK  status: ('A' for Active; 'I' for Inactive)
REMARK    1  A    between atoms: N_2  and  C_13
REMARK    2  A    between atoms: C_8  and  C_12
REMARK    3  A    between atoms: C_9  and  C_13
REMARK    4  A    between atoms: C_11  and  C_16
REMARK    5  A    between atoms: C_12  and  C_17
REMARK    6  A    between atoms: C_12  and  C_18
REMARK    7  A    between atoms: C_15  and  C_21
REMARK    8  A    between atoms: C_16  and  C_24
REMARK    9  A    between atoms: C_26  and  C_27
REMARK   10  A    between atoms: C_35  and  C_36
REMARK                            x       y       z     vdW  Elec       q    Type
REMARK                         _______ _______ _______ _____ _____    ______ ____
ROOT
ATOM      8  C   UNL     1      -7.270 -12.296  16.756  0.00  0.00    +0.000 C 
ATOM      9  C   UNL     1      -7.521 -12.073  18.266  0.00  0.00    +0.029 C 
ATOM     10  C   UNL     1      -6.053 -11.485  16.288  0.00  0.00    +0.012 C 
ATOM     11  C   UNL     1      -4.765 -11.807  17.075  0.00  0.00    +0.024 C 
ATOM     14  C   UNL     1      -6.251 -12.114  19.076  0.00  0.00    -0.023 C 
ATOM     15  C   UNL     1      -5.011 -12.010  18.562  0.00  0.00    -0.073 C 
ATOM     21  C   UNL     1      -3.807 -12.153  19.452  0.00  0.00    +0.039 C 
ENDROOT
BRANCH   8  12
ATOM     12  C   UNL     1      -7.104 -13.785  16.430  0.00  0.00    -0.013 C 
ATOM     17  C   UNL     1      -8.286 -14.584  16.971  0.00  0.00    +0.007 C 
ATOM     18  C   UNL     1      -6.956 -13.988  14.926  0.00  0.00    +0.007 C 
ENDBRANCH   8  12
BRANCH   9  13
ATOM     13  C   UNL     1      -8.243 -10.748  18.531  0.00  0.00    +0.092 C 
BRANCH  13   2
ATOM      2  N   UNL     1      -9.671 -10.973  18.754  0.00  0.00    -0.299 NA
ATOM      3  N   UNL     1     -12.185 -10.663  20.073  0.00  0.00    -0.297 N 
ATOM      6  N   UNL     1     -14.168  -9.481  20.431  0.00  0.00    -0.223 NA
ATOM      7  N   UNL     1     -13.848 -11.682  21.358  0.00  0.00    -0.223 NA
ATOM     19  C   UNL     1     -10.414  -9.712  18.649  0.00  0.00    +0.103 C 
ATOM     20  C   UNL     1      -9.896 -11.578  20.072  0.00  0.00    +0.103 C 
ATOM     22  C   UNL     1     -11.918  -9.942  18.825  0.00  0.00    +0.123 C 
ATOM     23  C   UNL     1     -11.382 -11.872  20.294  0.00  0.00    +0.123 C 
ATOM     25  C   UNL     1     -13.460 -10.605  20.649  0.00  0.00    +0.218 A 
ATOM     28  C   UNL     1     -15.391  -9.460  21.000  0.00  0.00    +0.116 A 
ATOM     29  C   UNL     1     -15.081 -11.593  21.898  0.00  0.00    +0.116 A 
ATOM     30  C   UNL     1     -15.905 -10.496  21.751  0.00  0.00    +0.039 A 
ENDBRANCH  13   2
ENDBRANCH   9  13
BRANCH  11  16
ATOM     16  C   UNL     1      -3.729 -10.714  16.786  0.00  0.00    +0.105 C 
BRANCH  16  24
ATOM      1  O   UNL     1      -3.886 -10.487  14.361  0.00  0.00    -0.420 OA
ATOM      4  N   UNL     1      -1.950 -11.348  15.077  0.00  0.00    -0.112 NA
ATOM      5  N   UNL     1      -1.901 -11.277  13.698  0.00  0.00    -0.107 NA
ATOM     24  C   UNL     1      -3.126 -10.876  15.420  0.00  0.00    +0.218 A 
ATOM     26  C   UNL     1      -3.051 -10.769  13.323  0.00  0.00    +0.248 A 
BRANCH  26  27
ATOM     27  C   UNL     1      -3.556 -10.470  12.014  0.00  0.00    +0.038 A 
ATOM     31  C   UNL     1      -2.786  -9.719  11.125  0.00  0.00    +0.013 A 
ATOM     32  C   UNL     1      -4.815 -10.932  11.629  0.00  0.00    +0.013 A 
ATOM     33  C   UNL     1      -3.277  -9.429   9.852  0.00  0.00    +0.004 A 
ATOM     34  C   UNL     1      -5.304 -10.641  10.356  0.00  0.00    +0.004 A 
ATOM     35  C   UNL     1      -4.536  -9.890   9.468  0.00  0.00    -0.050 A 
ATOM     36  C   UNL     1      -5.060  -9.579   8.107  0.00  0.00    +0.044 C 
ENDBRANCH  26  27
ENDBRANCH  16  24
ENDBRANCH  11  16
TORSDOF 6
ENDMDL
MODEL 4
REMARK VINA RESULT:      -7.1     24.039     27.731
REMARK  Name = 45783936
REMARK  10 active torsions:
REMARK  status: ('A' for Active; 'I' for Inactive)
REMARK    1  A    between atoms: N_2  and  C_13
REMARK    2  A    between atoms: C_8  and  C_12
REMARK    3  A    between atoms: C_9  and  C_13
REMARK    4  A    between atoms: C_11  and  C_16
REMARK    5  A    between atoms: C_12  and  C_17
REMARK    6  A    between atoms: C_12  and  C_18
REMARK    7  A    between atoms: C_15  and  C_21
REMARK    8  A    between atoms: C_16  and  C_24
REMARK    9  A    between atoms: C_26  and  C_27
REMARK   10  A    between atoms: C_35  and  C_36
REMARK                            x       y       z     vdW  Elec       q    Type
REMARK                         _______ _______ _______ _____ _____    ______ ____
ROOT
ATOM      8  C   UNL     1      14.041   5.836   1.899  0.00  0.00    +0.000 C 
ATOM      9  C   UNL     1      14.100   7.322   1.474  0.00  0.00    +0.029 C 
ATOM     10  C   UNL     1      12.595   5.422   2.209  0.00  0.00    +0.012 C 
ATOM     11  C   UNL     1      11.626   5.657   1.031  0.00  0.00    +0.024 C 
ATOM     14  C   UNL     1      13.003   7.691   0.508  0.00  0.00    -0.023 C 
ATOM     15  C   UNL     1      11.898   6.955   0.287  0.00  0.00    -0.073 C 
ATOM     21  C   UNL     1      10.907   7.372  -0.765  0.00  0.00    +0.039 C 
ENDROOT
BRANCH   8  12
ATOM     12  C   UNL     1      14.663   4.924   0.835  0.00  0.00    -0.013 C 
ATOM     17  C   UNL     1      15.892   5.586   0.219  0.00  0.00    +0.007 C 
ATOM     18  C   UNL     1      15.023   3.570   1.438  0.00  0.00    +0.007 C 
ENDBRANCH   8  12
BRANCH   9  13
ATOM     13  C   UNL     1      14.041   8.261   2.684  0.00  0.00    +0.092 C 
BRANCH  13   2
ATOM      2  N   UNL     1      15.388   8.601   3.139  0.00  0.00    -0.299 NA
ATOM      3  N   UNL     1      18.092   8.083   3.900  0.00  0.00    -0.297 N 
ATOM      6  N   UNL     1      20.332   7.723   3.346  0.00  0.00    -0.223 NA
ATOM      7  N   UNL     1      19.656   8.061   5.634  0.00  0.00    -0.223 NA
ATOM     19  C   UNL     1      16.384   8.223   2.130  0.00  0.00    +0.103 C 
ATOM     20  C   UNL     1      15.685   7.931   4.411  0.00  0.00    +0.103 C 
ATOM     22  C   UNL     1      17.795   8.624   2.570  0.00  0.00    +0.123 C 
ATOM     23  C   UNL     1      17.071   8.324   4.927  0.00  0.00    +0.123 C 
ATOM     25  C   UNL     1      19.423   7.949   4.312  0.00  0.00    +0.218 A 
ATOM     28  C   UNL     1      21.604   7.599   3.779  0.00  0.00    +0.116 A 
ATOM     29  C   UNL     1      20.948   7.926   5.996  0.00  0.00    +0.116 A 
ATOM     30  C   UNL     1      21.975   7.692   5.104  0.00  0.00    +0.039 A 
ENDBRANCH  13   2
ENDBRANCH   9  13
BRANCH  11  16
ATOM     16  C   UNL     1      10.188   5.558   1.553  0.00  0.00    +0.105 C 
BRANCH  16  24
ATOM      1  O   UNL     1       9.899   5.541   3.976  0.00  0.00    -0.420 OA
ATOM      4  N   UNL     1       9.976   7.588   3.078  0.00  0.00    -0.112 NA
ATOM      5  N   UNL     1       9.812   7.728   4.443  0.00  0.00    -0.107 NA
ATOM     24  C   UNL     1      10.023   6.296   2.851  0.00  0.00    +0.218 A 
ATOM     26  C   UNL     1       9.772   6.508   4.926  0.00  0.00    +0.248 A 
BRANCH  26  27
ATOM     27  C   UNL     1       9.618   6.046   6.275  0.00  0.00    +0.038 A 
ATOM     31  C   UNL     1       9.169   6.921   7.264  0.00  0.00    +0.013 A 
ATOM     32  C   UNL     1       9.917   4.722   6.598  0.00  0.00    +0.013 A 
ATOM     33  C   UNL     1       9.019   6.471   8.577  0.00  0.00    +0.004 A 
ATOM     34  C   UNL     1       9.767   4.274   7.910  0.00  0.00    +0.004 A 
ATOM     35  C   UNL     1       9.318   5.148   8.899  0.00  0.00    -0.050 A 
ATOM     36  C   UNL     1       9.158   4.668  10.302  0.00  0.00    +0.044 C 
ENDBRANCH  26  27
ENDBRANCH  16  24
ENDBRANCH  11  16
TORSDOF 6
ENDMDL
MODEL 5
REMARK VINA RESULT:      -7.1     25.722     31.123
REMARK  Name = 45783936
REMARK  10 active torsions:
REMARK  status: ('A' for Active; 'I' for Inactive)
REMARK    1  A    between atoms: N_2  and  C_13
REMARK    2  A    between atoms: C_8  and  C_12
REMARK    3  A    between atoms: C_9  and  C_13
REMARK    4  A    between atoms: C_11  and  C_16
REMARK    5  A    between atoms: C_12  and  C_17
REMARK    6  A    between atoms: C_12  and  C_18
REMARK    7  A    between atoms: C_15  and  C_21
REMARK    8  A    between atoms: C_16  and  C_24
REMARK    9  A    between atoms: C_26  and  C_27
REMARK   10  A    between atoms: C_35  and  C_36
REMARK                            x       y       z     vdW  Elec       q    Type
REMARK                         _______ _______ _______ _____ _____    ______ ____
ROOT
ATOM      8  C   UNL     1     -10.857  10.032  31.866  0.00  0.00    +0.000 C 
ATOM      9  C   UNL     1     -10.639  10.943  33.096  0.00  0.00    +0.029 C 
ATOM     10  C   UNL     1     -11.558   8.730  32.277  0.00  0.00    +0.012 C 
ATOM     11  C   UNL     1     -12.908   8.961  32.989  0.00  0.00    +0.024 C 
ATOM     14  C   UNL     1     -11.852  11.008  33.990  0.00  0.00    -0.023 C 
ATOM     15  C   UNL     1     -12.880  10.141  33.949  0.00  0.00    -0.073 C 
ATOM     21  C   UNL     1     -14.084  10.350  34.827  0.00  0.00    +0.039 C 
ENDROOT
BRANCH   8  12
ATOM     12  C   UNL     1     -11.637  10.759  30.763  0.00  0.00    -0.013 C 
ATOM     17  C   UNL     1     -11.087  12.168  30.561  0.00  0.00    +0.007 C 
ATOM     18  C   UNL     1     -11.584   9.966  29.462  0.00  0.00    +0.007 C 
ENDBRANCH   8  12
BRANCH   9  13
ATOM     13  C   UNL     1      -9.429  10.498  33.924  0.00  0.00    +0.092 C 
BRANCH  13   2
ATOM      2  N   UNL     1      -8.376  11.512  33.887  0.00  0.00    -0.299 NA
ATOM      3  N   UNL     1      -5.771  12.549  33.339  0.00  0.00    -0.297 N 
ATOM      6  N   UNL     1      -4.218  13.488  31.869  0.00  0.00    -0.223 NA
ATOM      7  N   UNL     1      -3.770  13.353  34.234  0.00  0.00    -0.223 NA
ATOM     19  C   UNL     1      -7.952  11.763  32.504  0.00  0.00    +0.103 C 
ATOM     20  C   UNL     1      -7.225  11.089  34.694  0.00  0.00    +0.103 C 
ATOM     22  C   UNL     1      -6.890  12.865  32.445  0.00  0.00    +0.123 C 
ATOM     23  C   UNL     1      -6.140  12.168  34.709  0.00  0.00    +0.123 C 
ATOM     25  C   UNL     1      -4.528  13.158  33.138  0.00  0.00    +0.218 A 
ATOM     28  C   UNL     1      -3.014  14.074  31.712  0.00  0.00    +0.116 A 
ATOM     29  C   UNL     1      -2.578  13.943  34.003  0.00  0.00    +0.116 A 
ATOM     30  C   UNL     1      -2.143  14.328  32.751  0.00  0.00    +0.039 A 
ENDBRANCH  13   2
ENDBRANCH   9  13
BRANCH  11  16
ATOM     16  C   UNL     1     -13.336   7.653  33.664  0.00  0.00    +0.105 C 
BRANCH  16  24
ATOM      1  O   UNL     1     -13.853   5.478  32.685  0.00  0.00    -0.420 OA
ATOM      4  N   UNL     1     -15.157   7.143  31.958  0.00  0.00    -0.112 NA
ATOM      5  N   UNL     1     -15.558   5.981  31.327  0.00  0.00    -0.107 NA
ATOM     24  C   UNL     1     -14.161   6.802  32.741  0.00  0.00    +0.218 A 
ATOM     26  C   UNL     1     -14.770   5.035  31.781  0.00  0.00    +0.248 A 
BRANCH  26  27
ATOM     27  C   UNL     1     -14.726   3.634  31.478  0.00  0.00    +0.038 A 
ATOM     31  C   UNL     1     -14.683   2.699  32.512  0.00  0.00    +0.013 A 
ATOM     32  C   UNL     1     -14.726   3.206  30.150  0.00  0.00    +0.013 A 
ATOM     33  C   UNL     1     -14.640   1.335  32.218  0.00  0.00    +0.004 A 
ATOM     34  C   UNL     1     -14.683   1.844  29.857  0.00  0.00    +0.004 A 
ATOM     35  C   UNL     1     -14.640   0.909  30.890  0.00  0.00    -0.050 A 
ATOM     36  C   UNL     1     -14.594  -0.549  30.575  0.00  0.00    +0.044 C 
ENDBRANCH  26  27
ENDBRANCH  16  24
ENDBRANCH  11  16
TORSDOF 6
ENDMDL
MODEL 6
REMARK VINA RESULT:      -6.9     23.901     27.581
REMARK  Name = 45783936
REMARK  10 active torsions:
REMARK  status: ('A' for Active; 'I' for Inactive)
REMARK    1  A    between atoms: N_2  and  C_13
REMARK    2  A    between atoms: C_8  and  C_12
REMARK    3  A    between atoms: C_9  and  C_13
REMARK    4  A    between atoms: C_11  and  C_16
REMARK    5  A    between atoms: C_12  and  C_17
REMARK    6  A    between atoms: C_12  and  C_18
REMARK    7  A    between atoms: C_15  and  C_21
REMARK    8  A    between atoms: C_16  and  C_24
REMARK    9  A    between atoms: C_26  and  C_27
REMARK   10  A    between atoms: C_35  and  C_36
REMARK                            x       y       z     vdW  Elec       q    Type
REMARK                         _______ _______ _______ _____ _____    ______ ____
ROOT
ATOM      8  C   UNL     1      12.439   4.357  -2.113  0.00  0.00    +0.000 C 
ATOM      9  C   UNL     1      12.133   4.041  -0.630  0.00  0.00    +0.029 C 
ATOM     10  C   UNL     1      13.655   5.287  -2.225  0.00  0.00    +0.012 C 
ATOM     11  C   UNL     1      14.922   4.722  -1.548  0.00  0.00    +0.024 C 
ATOM     14  C   UNL     1      13.376   3.730   0.164  0.00  0.00    -0.023 C 
ATOM     15  C   UNL     1      14.629   4.014  -0.234  0.00  0.00    -0.073 C 
ATOM     21  C   UNL     1      15.806   3.580   0.597  0.00  0.00    +0.039 C 
ENDROOT
BRANCH   8  12
ATOM     12  C   UNL     1      12.646   3.073  -2.927  0.00  0.00    -0.013 C 
ATOM     17  C   UNL     1      11.534   2.071  -2.632  0.00  0.00    +0.007 C 
ATOM     18  C   UNL     1      12.705   3.392  -4.417  0.00  0.00    +0.007 C 
ENDBRANCH   8  12
BRANCH   9  13
ATOM     13  C   UNL     1      11.376   5.188   0.049  0.00  0.00    +0.092 C 
BRANCH  13   2
ATOM      2  N   UNL     1      11.578   5.153   1.497  0.00  0.00    -0.299 NA
ATOM      3  N   UNL     1      10.902   5.601   4.236  0.00  0.00    -0.297 N 
ATOM      6  N   UNL     1       9.810   4.958   6.198  0.00  0.00    -0.223 NA
ATOM      7  N   UNL     1      11.387   6.781   6.192  0.00  0.00    -0.223 NA
ATOM     19  C   UNL     1      10.531   4.354   2.144  0.00  0.00    +0.103 C 
ATOM     20  C   UNL     1      11.582   6.513   2.049  0.00  0.00    +0.103 C 
ATOM     22  C   UNL     1      10.762   4.262   3.655  0.00  0.00    +0.123 C 
ATOM     23  C   UNL     1      11.849   6.493   3.556  0.00  0.00    +0.123 C 
ATOM     25  C   UNL     1      10.689   5.789   5.606  0.00  0.00    +0.218 A 
ATOM     28  C   UNL     1       9.630   5.167   7.518  0.00  0.00    +0.116 A 
ATOM     29  C   UNL     1      11.157   6.933   7.513  0.00  0.00    +0.116 A 
ATOM     30  C   UNL     1      10.281   6.148   8.235  0.00  0.00    +0.039 A 
ENDBRANCH  13   2
ENDBRANCH   9  13
BRANCH  11  16
ATOM     16  C   UNL     1      15.946   5.854  -1.401  0.00  0.00    +0.105 C 
BRANCH  16  24
ATOM      1  O   UNL     1      16.531   6.838   0.754  0.00  0.00    -0.420 OA
ATOM      4  N   UNL     1      14.540   7.482  -0.037  0.00  0.00    -0.112 NA
ATOM      5  N   UNL     1      14.740   8.111   1.178  0.00  0.00    -0.107 NA
ATOM     24  C   UNL     1      15.610   6.751  -0.244  0.00  0.00    +0.218 A 
ATOM     26  C   UNL     1      15.914   7.705   1.602  0.00  0.00    +0.248 A 
BRANCH  26  27
ATOM     27  C   UNL     1      16.634   8.029   2.800  0.00  0.00    +0.038 A 
ATOM     31  C   UNL     1      18.003   8.290   2.742  0.00  0.00    +0.013 A 
ATOM     32  C   UNL     1      15.965   8.085   4.023  0.00  0.00    +0.013 A 
ATOM     33  C   UNL     1      18.703   8.604   3.907  0.00  0.00    +0.004 A 
ATOM     34  C   UNL     1      16.665   8.400   5.187  0.00  0.00    +0.004 A 
ATOM     35  C   UNL     1      18.033   8.659   5.129  0.00  0.00    -0.050 A 
ATOM     36  C   UNL     1      18.782   8.996   6.375  0.00  0.00    +0.044 C 
ENDBRANCH  26  27
ENDBRANCH  16  24
ENDBRANCH  11  16
TORSDOF 6
ENDMDL
MODEL 7
REMARK VINA RESULT:      -6.9     23.942     27.041
REMARK  Name = 45783936
REMARK  10 active torsions:
REMARK  status: ('A' for Active; 'I' for Inactive)
REMARK    1  A    between atoms: N_2  and  C_13
REMARK    2  A    between atoms: C_8  and  C_12
REMARK    3  A    between atoms: C_9  and  C_13
REMARK    4  A    between atoms: C_11  and  C_16
REMARK    5  A    between atoms: C_12  and  C_17
REMARK    6  A    between atoms: C_12  and  C_18
REMARK    7  A    between atoms: C_15  and  C_21
REMARK    8  A    between atoms: C_16  and  C_24
REMARK    9  A    between atoms: C_26  and  C_27
REMARK   10  A    between atoms: C_35  and  C_36
REMARK                            x       y       z     vdW  Elec       q    Type
REMARK                         _______ _______ _______ _____ _____    ______ ____
ROOT
ATOM      8  C   UNL     1      11.558   6.567   5.916  0.00  0.00    +0.000 C 
ATOM      9  C   UNL     1      11.120   7.094   4.529  0.00  0.00    +0.029 C 
ATOM     10  C   UNL     1      12.586   7.514   6.551  0.00  0.00    +0.012 C 
ATOM     11  C   UNL     1      12.077   8.964   6.692  0.00  0.00    +0.024 C 
ATOM     14  C   UNL     1      10.854   8.578   4.532  0.00  0.00    -0.023 C 
ATOM     15  C   UNL     1      11.262   9.427   5.493  0.00  0.00    -0.073 C 
ATOM     21  C   UNL     1      10.866  10.878   5.442  0.00  0.00    +0.039 C 
ENDROOT
BRANCH   8  12
ATOM     12  C   UNL     1      10.352   6.356   6.840  0.00  0.00    -0.013 C 
ATOM     17  C   UNL     1       9.306   5.478   6.159  0.00  0.00    +0.007 C 
ATOM     18  C   UNL     1      10.796   5.740   8.162  0.00  0.00    +0.007 C 
ENDBRANCH   8  12
BRANCH   9  13
ATOM     13  C   UNL     1      12.156   6.771   3.447  0.00  0.00    +0.092 C 
BRANCH  13   2
ATOM      2  N   UNL     1      11.597   5.853   2.456  0.00  0.00    -0.299 NA
ATOM      3  N   UNL     1      11.335   4.634  -0.114  0.00  0.00    -0.297 N 
ATOM      6  N   UNL     1      12.010   3.061  -1.703  0.00  0.00    -0.223 NA
ATOM      7  N   UNL     1       9.991   4.344  -2.002  0.00  0.00    -0.223 NA
ATOM     19  C   UNL     1      12.634   4.941   1.957  0.00  0.00    +0.103 C 
ATOM     20  C   UNL     1      11.008   6.599   1.338  0.00  0.00    +0.103 C 
ATOM     22  C   UNL     1      12.050   3.937   0.959  0.00  0.00    +0.123 C 
ATOM     23  C   UNL     1      10.369   5.651   0.321  0.00  0.00    +0.123 C 
ATOM     25  C   UNL     1      11.102   3.983  -1.331  0.00  0.00    +0.218 A 
ATOM     28  C   UNL     1      11.754   2.453  -2.880  0.00  0.00    +0.116 A 
ATOM     29  C   UNL     1       9.798   3.696  -3.170  0.00  0.00    +0.116 A 
ATOM     30  C   UNL     1      10.654   2.732  -3.663  0.00  0.00    +0.039 A 
ENDBRANCH  13   2
ENDBRANCH   9  13
BRANCH  11  16
ATOM     16  C   UNL     1      13.273   9.877   6.988  0.00  0.00    +0.105 C 
BRANCH  16  24
ATOM      1  O   UNL     1      15.537   9.234   6.343  0.00  0.00    -0.420 OA
ATOM      4  N   UNL     1      14.301  10.042   4.663  0.00  0.00    -0.112 NA
ATOM      5  N   UNL     1      15.547   9.721   4.159  0.00  0.00    -0.107 NA
ATOM     24  C   UNL     1      14.340   9.740   5.940  0.00  0.00    +0.218 A 
ATOM     26  C   UNL     1      16.235   9.253   5.174  0.00  0.00    +0.248 A 
BRANCH  26  27
ATOM     27  C   UNL     1      17.584   8.769   5.241  0.00  0.00    +0.038 A 
ATOM     31  C   UNL     1      18.161   8.158   4.128  0.00  0.00    +0.013 A 
ATOM     32  C   UNL     1      18.318   8.909   6.419  0.00  0.00    +0.013 A 
ATOM     33  C   UNL     1      19.472   7.686   4.193  0.00  0.00    +0.004 A 
ATOM     34  C   UNL     1      19.629   8.438   6.483  0.00  0.00    +0.004 A 
ATOM     35  C   UNL     1      20.206   7.827   5.371  0.00  0.00    -0.050 A 
ATOM     36  C   UNL     1      21.608   7.323   5.440  0.00  0.00    +0.044 C 
ENDBRANCH  26  27
ENDBRANCH  16  24
ENDBRANCH  11  16
TORSDOF 6
ENDMDL
MODEL 8
REMARK VINA RESULT:      -6.9      3.924     10.141
REMARK  Name = 45783936
REMARK  10 active torsions:
REMARK  status: ('A' for Active; 'I' for Inactive)
REMARK    1  A    between atoms: N_2  and  C_13
REMARK    2  A    between atoms: C_8  and  C_12
REMARK    3  A    between atoms: C_9  and  C_13
REMARK    4  A    between atoms: C_11  and  C_16
REMARK    5  A    between atoms: C_12  and  C_17
REMARK    6  A    between atoms: C_12  and  C_18
REMARK    7  A    between atoms: C_15  and  C_21
REMARK    8  A    between atoms: C_16  and  C_24
REMARK    9  A    between atoms: C_26  and  C_27
REMARK   10  A    between atoms: C_35  and  C_36
REMARK                            x       y       z     vdW  Elec       q    Type
REMARK                         _______ _______ _______ _____ _____    ______ ____
ROOT
ATOM      8  C   UNL     1      -5.339 -11.987   8.037  0.00  0.00    +0.000 C 
ATOM      9  C   UNL     1      -4.233 -11.859   9.111  0.00  0.00    +0.029 C 
ATOM     10  C   UNL     1      -6.588 -11.198   8.455  0.00  0.00    +0.012 C 
ATOM     11  C   UNL     1      -6.307  -9.705   8.726  0.00  0.00    +0.024 C 
ATOM     14  C   UNL     1      -4.080 -10.448   9.619  0.00  0.00    -0.023 C 
ATOM     15  C   UNL     1      -4.988  -9.469   9.446  0.00  0.00    -0.073 C 
ATOM     21  C   UNL     1      -4.696  -8.071   9.918  0.00  0.00    +0.039 C 
ENDROOT
BRANCH   8  12
ATOM     12  C   UNL     1      -4.835 -11.539   6.659  0.00  0.00    -0.013 C 
ATOM     17  C   UNL     1      -3.741 -12.479   6.162  0.00  0.00    +0.007 C 
ATOM     18  C   UNL     1      -5.989 -11.477   5.665  0.00  0.00    +0.007 C 
ENDBRANCH   8  12
BRANCH   9  13
ATOM     13  C   UNL     1      -4.485 -12.795  10.298  0.00  0.00    +0.092 C 
BRANCH  13   2
ATOM      2  N   UNL     1      -4.483 -12.048  11.555  0.00  0.00    -0.299 NA
ATOM      3  N   UNL     1      -4.821 -11.672  14.366  0.00  0.00    -0.297 N 
ATOM      6  N   UNL     1      -4.016 -11.816  16.554  0.00  0.00    -0.223 NA
ATOM      7  N   UNL     1      -6.064 -10.646  16.057  0.00  0.00    -0.223 NA
ATOM     19  C   UNL     1      -3.530 -12.636  12.503  0.00  0.00    +0.103 C 
ATOM     20  C   UNL     1      -5.827 -12.029  12.144  0.00  0.00    +0.103 C 
ATOM     22  C   UNL     1      -3.477 -11.829  13.803  0.00  0.00    +0.123 C 
ATOM     23  C   UNL     1      -5.851 -11.201  13.431  0.00  0.00    +0.123 C 
ATOM     25  C   UNL     1      -4.975 -11.364  15.723  0.00  0.00    +0.218 A 
ATOM     28  C   UNL     1      -4.195 -11.501  17.853  0.00  0.00    +0.116 A 
ATOM     29  C   UNL     1      -6.180 -10.368  17.372  0.00  0.00    +0.116 A 
ATOM     30  C   UNL     1      -5.268 -10.773  18.325  0.00  0.00    +0.039 A 
ENDBRANCH  13   2
ENDBRANCH   9  13
BRANCH  11  16
ATOM     16  C   UNL     1      -7.508  -9.108   9.469  0.00  0.00    +0.105 C 
BRANCH  16  24
ATOM      1  O   UNL     1      -9.214  -7.378   9.247  0.00  0.00    -0.420 OA
ATOM      4  N   UNL     1      -7.827  -7.524   7.499  0.00  0.00    -0.112 NA
ATOM      5  N   UNL     1      -8.733  -6.514   7.240  0.00  0.00    -0.107 NA
ATOM     24  C   UNL     1      -8.146  -8.000   8.681  0.00  0.00    +0.218 A 
ATOM     26  C   UNL     1      -9.523  -6.463   8.287  0.00  0.00    +0.248 A 
BRANCH  26  27
ATOM     27  C   UNL     1     -10.641  -5.610   8.570  0.00  0.00    +0.038 A 
ATOM     31  C   UNL     1     -10.427  -4.294   8.979  0.00  0.00    +0.013 A 
ATOM     32  C   UNL     1     -11.942  -6.096   8.436  0.00  0.00    +0.013 A 
ATOM     33  C   UNL     1     -11.514  -3.463   9.255  0.00  0.00    +0.004 A 
ATOM     34  C   UNL     1     -13.028  -5.265   8.711  0.00  0.00    +0.004 A 
ATOM     35  C   UNL     1     -12.814  -3.950   9.121  0.00  0.00    -0.050 A 
ATOM     36  C   UNL     1     -13.976  -3.062   9.415  0.00  0.00    +0.044 C 
ENDBRANCH  26  27
ENDBRANCH  16  24
ENDBRANCH  11  16
TORSDOF 6
ENDMDL
MODEL 9
REMARK VINA RESULT:      -6.8     23.737     27.922
REMARK  Name = 45783936
REMARK  10 active torsions:
REMARK  status: ('A' for Active; 'I' for Inactive)
REMARK    1  A    between atoms: N_2  and  C_13
REMARK    2  A    between atoms: C_8  and  C_12
REMARK    3  A    between atoms: C_9  and  C_13
REMARK    4  A    between atoms: C_11  and  C_16
REMARK    5  A    between atoms: C_12  and  C_17
REMARK    6  A    between atoms: C_12  and  C_18
REMARK    7  A    between atoms: C_15  and  C_21
REMARK    8  A    between atoms: C_16  and  C_24
REMARK    9  A    between atoms: C_26  and  C_27
REMARK   10  A    between atoms: C_35  and  C_36
REMARK                            x       y       z     vdW  Elec       q    Type
REMARK                         _______ _______ _______ _____ _____    ______ ____
ROOT
ATOM      8  C   UNL     1      10.970   9.920   6.987  0.00  0.00    +0.000 C 
ATOM      9  C   UNL     1      12.173   8.986   6.718  0.00  0.00    +0.029 C 
ATOM     10  C   UNL     1       9.665   9.266   6.514  0.00  0.00    +0.012 C 
ATOM     11  C   UNL     1       9.400   7.890   7.161  0.00  0.00    +0.024 C 
ATOM     14  C   UNL     1      11.888   7.554   7.091  0.00  0.00    -0.023 C 
ATOM     15  C   UNL     1      10.660   7.048   7.305  0.00  0.00    -0.073 C 
ATOM     21  C   UNL     1      10.494   5.624   7.759  0.00  0.00    +0.039 C 
ENDROOT
BRANCH   8  12
ATOM     12  C   UNL     1      10.888  10.315   8.468  0.00  0.00    -0.013 C 
ATOM     17  C   UNL     1      12.030  11.260   8.830  0.00  0.00    +0.007 C 
ATOM     18  C   UNL     1       9.538  10.954   8.774  0.00  0.00    +0.007 C 
ENDBRANCH   8  12
BRANCH   9  13
ATOM     13  C   UNL     1      12.620   9.045   5.254  0.00  0.00    +0.092 C 
BRANCH  13   2
ATOM      2  N   UNL     1      14.046   9.357   5.162  0.00  0.00    -0.299 NA
ATOM      3  N   UNL     1      16.812   9.139   5.840  0.00  0.00    -0.297 N 
ATOM      6  N   UNL     1      18.884   8.079   5.637  0.00  0.00    -0.223 NA
ATOM      7  N   UNL     1      18.671  10.186   6.789  0.00  0.00    -0.223 NA
ATOM     19  C   UNL     1      14.811   8.161   4.787  0.00  0.00    +0.103 C 
ATOM     20  C   UNL     1      14.540   9.887   6.438  0.00  0.00    +0.103 C 
ATOM     22  C   UNL     1      16.299   8.486   4.632  0.00  0.00    +0.123 C 
ATOM     23  C   UNL     1      16.019  10.270   6.337  0.00  0.00    +0.123 C 
ATOM     25  C   UNL     1      18.187   9.134   6.102  0.00  0.00    +0.218 A 
ATOM     28  C   UNL     1      20.205   8.108   5.907  0.00  0.00    +0.116 A 
ATOM     29  C   UNL     1      20.000  10.148   7.023  0.00  0.00    +0.116 A 
ATOM     30  C   UNL     1      20.825   9.125   6.602  0.00  0.00    +0.039 A 
ENDBRANCH  13   2
ENDBRANCH   9  13
BRANCH  11  16
ATOM     16  C   UNL     1       8.296   7.180   6.369  0.00  0.00    +0.105 C 
BRANCH  16  24
ATOM      1  O   UNL     1       9.442   6.237   4.432  0.00  0.00    -0.420 OA
ATOM      4  N   UNL     1       8.131   7.986   3.959  0.00  0.00    -0.112 NA
ATOM      5  N   UNL     1       8.712   7.558   2.780  0.00  0.00    -0.107 NA
ATOM     24  C   UNL     1       8.585   7.187   4.896  0.00  0.00    +0.218 A 
ATOM     26  C   UNL     1       9.469   6.535   3.104  0.00  0.00    +0.248 A 
BRANCH  26  27
ATOM     27  C   UNL     1      10.304   5.700   2.291  0.00  0.00    +0.038 A 
ATOM     31  C   UNL     1      10.072   5.609   0.918  0.00  0.00    +0.013 A 
ATOM     32  C   UNL     1      11.347   4.978   2.871  0.00  0.00    +0.013 A 
ATOM     33  C   UNL     1      10.884   4.796   0.126  0.00  0.00    +0.004 A 
ATOM     34  C   UNL     1      12.158   4.166   2.079  0.00  0.00    +0.004 A 
ATOM     35  C   UNL     1      11.927   4.075   0.707  0.00  0.00    -0.050 A 
ATOM     36  C   UNL     1      12.794   3.206  -0.139  0.00  0.00    +0.044 C 
ENDBRANCH  26  27
ENDBRANCH  16  24
ENDBRANCH  11  16
TORSDOF 6
ENDMDL
MODEL 10
REMARK VINA RESULT:      -6.8     23.255     25.678
REMARK  Name = 45783936
REMARK  10 active torsions:
REMARK  status: ('A' for Active; 'I' for Inactive)
REMARK    1  A    between atoms: N_2  and  C_13
REMARK    2  A    between atoms: C_8  and  C_12
REMARK    3  A    between atoms: C_9  and  C_13
REMARK    4  A    between atoms: C_11  and  C_16
REMARK    5  A    between atoms: C_12  and  C_17
REMARK    6  A    between atoms: C_12  and  C_18
REMARK    7  A    between atoms: C_15  and  C_21
REMARK    8  A    between atoms: C_16  and  C_24
REMARK    9  A    between atoms: C_26  and  C_27
REMARK   10  A    between atoms: C_35  and  C_36
REMARK                            x       y       z     vdW  Elec       q    Type
REMARK                         _______ _______ _______ _____ _____    ______ ____
ROOT
ATOM      8  C   UNL     1      12.518   8.333   5.385  0.00  0.00    +0.000 C 
ATOM      9  C   UNL     1      12.009   6.969   4.863  0.00  0.00    +0.029 C 
ATOM     10  C   UNL     1      11.411   9.059   6.163  0.00  0.00    +0.012 C 
ATOM     11  C   UNL     1      10.852   8.235   7.343  0.00  0.00    +0.024 C 
ATOM     14  C   UNL     1      11.217   6.212   5.899  0.00  0.00    -0.023 C 
ATOM     15  C   UNL     1      10.703   6.756   7.018  0.00  0.00    -0.073 C 
ATOM     21  C   UNL     1      10.004   5.890   8.030  0.00  0.00    +0.039 C 
ENDROOT
BRANCH   8  12
ATOM     12  C   UNL     1      13.781   8.169   6.240  0.00  0.00    -0.013 C 
ATOM     17  C   UNL     1      14.796   7.282   5.525  0.00  0.00    +0.007 C 
ATOM     18  C   UNL     1      14.386   9.531   6.563  0.00  0.00    +0.007 C 
ENDBRANCH   8  12
BRANCH   9  13
ATOM     13  C   UNL     1      11.159   7.128   3.598  0.00  0.00    +0.092 C 
BRANCH  13   2
ATOM      2  N   UNL     1      11.413   6.031   2.665  0.00  0.00    -0.299 NA
ATOM      3  N   UNL     1      11.739   4.809   0.104  0.00  0.00    -0.297 N 
ATOM      6  N   UNL     1      13.057   4.283  -1.751  0.00  0.00    -0.223 NA
ATOM      7  N   UNL     1      10.875   3.303  -1.458  0.00  0.00    -0.223 NA
ATOM     19  C   UNL     1      12.605   6.309   1.856  0.00  0.00    +0.103 C 
ATOM     20  C   UNL     1      10.253   5.821   1.790  0.00  0.00    +0.103 C 
ATOM     22  C   UNL     1      12.915   5.143   0.913  0.00  0.00    +0.123 C 
ATOM     23  C   UNL     1      10.484   4.638   0.847  0.00  0.00    +0.123 C 
ATOM     25  C   UNL     1      11.898   4.099  -1.092  0.00  0.00    +0.218 A 
ATOM     28  C   UNL     1      13.177   3.583  -2.898  0.00  0.00    +0.116 A 
ATOM     29  C   UNL     1      11.062   2.635  -2.615  0.00  0.00    +0.116 A 
ATOM     30  C   UNL     1      12.203   2.736  -3.385  0.00  0.00    +0.039 A 
ENDBRANCH  13   2
ENDBRANCH   9  13
BRANCH  11  16
ATOM     16  C   UNL     1       9.541   8.877   7.811  0.00  0.00    +0.105 C 
BRANCH  16  24
ATOM      1  O   UNL     1       8.274   9.258   5.761  0.00  0.00    -0.420 OA
ATOM      4  N   UNL     1       9.089  11.121   6.693  0.00  0.00    -0.112 NA
ATOM      5  N   UNL     1       8.400  11.482   5.550  0.00  0.00    -0.107 NA
ATOM     24  C   UNL     1       8.988   9.815   6.776  0.00  0.00    +0.218 A 
ATOM     26  C   UNL     1       7.941  10.364   5.039  0.00  0.00    +0.248 A 
BRANCH  26  27
ATOM     27  C   UNL     1       7.159  10.131   3.859  0.00  0.00    +0.038 A 
ATOM     31  C   UNL     1       7.773   9.666   2.697  0.00  0.00    +0.013 A 
ATOM     32  C   UNL     1       5.785  10.369   3.875  0.00  0.00    +0.013 A 
ATOM     33  C   UNL     1       7.013   9.440   1.549  0.00  0.00    +0.004 A 
ATOM     34  C   UNL     1       5.025  10.143   2.728  0.00  0.00    +0.004 A 
ATOM     35  C   UNL     1       5.638   9.678   1.565  0.00  0.00    -0.050 A 
ATOM     36  C   UNL     1       4.826   9.437   0.338  0.00  0.00    +0.044 C 
ENDBRANCH  26  27
ENDBRANCH  16  24
ENDBRANCH  11  16
TORSDOF 6
ENDMDL
