REMARK  Name = 71693989
REMARK  8 active torsions:
REMARK  status: ('A' for Active; 'I' for Inactive)
REMARK    1  A    between atoms: O_4  and  C_12
REMARK    2  A    between atoms: O_5  and  C_14
REMARK    3  A    between atoms: O_7  and  C_20
REMARK    4  A    between atoms: O_7  and  C_23
REMARK    5  A    between atoms: N_8  and  C_11
REMARK    6  A    between atoms: C_10  and  C_15
REMARK    7  A    between atoms: C_18  and  C_20
REMARK    8  A    between atoms: C_21  and  C_22
REMARK                            x       y       z     vdW  Elec       q    Type
REMARK                         _______ _______ _______ _____ _____    ______ ____
ROOT
ATOM     10  C   UNL     1       1.708   1.678   1.052  0.00  0.00    +0.046 C 
ATOM     11  C   UNL     1       0.943   2.404  -0.079  0.00  0.00    +0.111 C 
ATOM     12  C   UNL     1       1.344   3.867   0.102  0.00  0.00    +0.164 C 
ATOM     13  C   UNL     1       2.904   2.597   1.410  0.00  0.00    +0.044 C 
ATOM     14  C   UNL     1       2.826   3.779   0.445  0.00  0.00    +0.145 C 
ENDROOT
BRANCH  10  15
ATOM      9  N   UNL     1       1.959  -2.105   1.166  0.00  0.00    -0.251 NA
ATOM     15  C   UNL     1       2.097   0.261   0.688  0.00  0.00    -0.024 A 
ATOM     16  C   UNL     1       2.916   0.000  -0.405  0.00  0.00    +0.007 A 
ATOM     17  C   UNL     1       1.649  -0.817   1.435  0.00  0.00    +0.115 A 
ATOM     19  C   UNL     1       3.257  -1.312  -0.714  0.00  0.00    +0.032 A 
ATOM     21  C   UNL     1       2.757  -2.320   0.095  0.00  0.00    +0.144 A 
BRANCH  21  22
ATOM      1  F   UNL     1       2.014  -4.523  -0.463  0.00  0.00    -0.164 F 
ATOM      2  F   UNL     1       3.763  -4.369   0.809  0.00  0.00    -0.164 F 
ATOM      3  F   UNL     1       3.908  -3.862  -1.300  0.00  0.00    -0.164 F 
ATOM     22  C   UNL     1       3.102  -3.740  -0.206  0.00  0.00    +0.434 C 
ENDBRANCH  21  22
ENDBRANCH  10  15
BRANCH  11   8
ATOM      6  O   UNL     1      -0.657   0.370  -1.372  0.00  0.00    -0.272 OA
ATOM      8  N   UNL     1      -0.482   2.219   0.028  0.00  0.00    -0.307 N 
ATOM     18  C   UNL     1      -1.167   1.209  -0.634  0.00  0.00    +0.251 C 
ATOM     29  H   UNL     1      -0.998   2.828   0.658  0.00  0.00    +0.149 HD
BRANCH  18  20
ATOM     20  C   UNL     1      -2.651   1.249  -0.342  0.00  0.00    +0.324 C 
BRANCH  20   7
ATOM      7  O   UNL     1      -3.320   0.204  -1.016  0.00  0.00    -0.483 OA
BRANCH   7  23
ATOM     23  C   UNL     1      -4.452  -0.302  -0.422  0.00  0.00    +0.121 A 
ATOM     24  C   UNL     1      -5.248   0.519   0.377  0.00  0.00    +0.045 A 
ATOM     25  C   UNL     1      -4.806  -1.637  -0.619  0.00  0.00    +0.045 A 
ATOM     26  C   UNL     1      -6.396   0.006   0.980  0.00  0.00    +0.004 A 
ATOM     27  C   UNL     1      -5.954  -2.151  -0.016  0.00  0.00    +0.004 A 
ATOM     28  C   UNL     1      -6.749  -1.329   0.783  0.00  0.00    +0.000 A 
ENDBRANCH   7  23
ENDBRANCH  20   7
ENDBRANCH  18  20
ENDBRANCH  11   8
BRANCH  12   4
ATOM      4  O   UNL     1       1.135   4.630  -1.071  0.00  0.00    -0.387 OA
ATOM     30  H   UNL     1       1.499   5.517  -0.910  0.00  0.00    +0.210 HD
ENDBRANCH  12   4
BRANCH  14   5
ATOM      5  O   UNL     1       3.601   3.476  -0.711  0.00  0.00    -0.389 OA
ATOM     31  H   UNL     1       4.527   3.393  -0.428  0.00  0.00    +0.210 HD
ENDBRANCH  14   5
TORSDOF 8
