MODEL 1
REMARK VINA RESULT:      -6.2      0.000      0.000
REMARK  Name = 25390420
REMARK  10 active torsions:
REMARK  status: ('A' for Active; 'I' for Inactive)
REMARK    1  A    between atoms: O_2  and  C_9
REMARK    2  A    between atoms: O_3  and  C_10
REMARK    3  A    between atoms: N_6  and  C_15
REMARK    4  A    between atoms: N_7  and  C_21
REMARK    5  A    between atoms: C_8  and  C_15
REMARK    6  A    between atoms: C_11  and  C_18
REMARK    7  A    between atoms: C_12  and  C_19
REMARK    8  A    between atoms: C_18  and  C_20
REMARK    9  A    between atoms: C_21  and  C_22
REMARK   10  A    between atoms: C_21  and  C_23
REMARK                            x       y       z     vdW  Elec       q    Type
REMARK                         _______ _______ _______ _____ _____    ______ ____
ROOT
ATOM      1  O   UNL     1      10.484   6.866   5.964  0.00  0.00    -0.366 OA
ATOM      8  C   UNL     1      10.717   5.541   5.456  0.00  0.00    +0.167 C 
ATOM      9  C   UNL     1       9.736   4.641   6.189  0.00  0.00    +0.176 C 
ATOM     10  C   UNL     1       9.700   5.286   7.559  0.00  0.00    +0.175 C 
ATOM     11  C   UNL     1       9.764   6.769   7.214  0.00  0.00    +0.158 C 
ENDROOT
BRANCH   9   2
ATOM      2  O   UNL     1      10.166   3.297   6.215  0.00  0.00    -0.387 OA
ATOM     25  H   UNL     1       9.789   2.885   7.010  0.00  0.00    +0.210 HD
ENDBRANCH   9   2
BRANCH  10   3
ATOM      3  O   UNL     1      10.875   4.951   8.296  0.00  0.00    -0.387 OA
ATOM     26  H   UNL     1      11.588   5.535   7.986  0.00  0.00    +0.210 HD
ENDBRANCH  10   3
BRANCH   8  15
ATOM     15  C   UNL     1      10.533   5.531   3.949  0.00  0.00    +0.138 C 
BRANCH  15   6
ATOM      4  O   UNL     1      10.453   3.879   1.557  0.00  0.00    -0.276 OA
ATOM      6  N   UNL     1      11.633   4.884   3.297  0.00  0.00    -0.313 N 
ATOM     19  C   UNL     1      11.499   4.111   2.153  0.00  0.00    +0.216 C 
ATOM     24  H   UNL     1      12.558   5.001   3.704  0.00  0.00    +0.149 HD
BRANCH  19  12
ATOM     12  C   UNL     1      12.784   3.532   1.642  0.00  0.00    +0.075 C 
ATOM     13  C   UNL     1      13.923   4.546   1.797  0.00  0.00    +0.013 C 
ATOM     14  C   UNL     1      12.681   3.228   0.146  0.00  0.00    +0.013 C 
ATOM     16  C   UNL     1      14.513   4.725   0.402  0.00  0.00    +0.001 C 
ATOM     17  C   UNL     1      13.360   4.409  -0.533  0.00  0.00    +0.001 C 
ENDBRANCH  19  12
ENDBRANCH  15   6
ENDBRANCH   8  15
BRANCH  11  18
ATOM     18  C   UNL     1       8.390   7.394   7.009  0.00  0.00    +0.130 C 
BRANCH  18  20
ATOM      5  O   UNL     1       8.853   9.684   6.375  0.00  0.00    -0.276 OA
ATOM      7  N   UNL     1       7.916   8.247   4.812  0.00  0.00    -0.313 N 
ATOM     20  C   UNL     1       8.425   8.578   6.060  0.00  0.00    +0.216 C 
ATOM     27  H   UNL     1       7.532   7.317   4.666  0.00  0.00    +0.149 HD
BRANCH   7  21
ATOM     21  C   UNL     1       7.840   9.193   3.735  0.00  0.00    +0.067 C 
ATOM     22  C   UNL     1       6.435   9.774   3.641  0.00  0.00    +0.027 C 
ATOM     23  C   UNL     1       8.258   8.544   2.422  0.00  0.00    +0.027 C 
ENDBRANCH   7  21
ENDBRANCH  18  20
ENDBRANCH  11  18
TORSDOF 8
ENDMDL
MODEL 2
REMARK VINA RESULT:      -6.0      2.075      2.888
REMARK  Name = 25390420
REMARK  10 active torsions:
REMARK  status: ('A' for Active; 'I' for Inactive)
REMARK    1  A    between atoms: O_2  and  C_9
REMARK    2  A    between atoms: O_3  and  C_10
REMARK    3  A    between atoms: N_6  and  C_15
REMARK    4  A    between atoms: N_7  and  C_21
REMARK    5  A    between atoms: C_8  and  C_15
REMARK    6  A    between atoms: C_11  and  C_18
REMARK    7  A    between atoms: C_12  and  C_19
REMARK    8  A    between atoms: C_18  and  C_20
REMARK    9  A    between atoms: C_21  and  C_22
REMARK   10  A    between atoms: C_21  and  C_23
REMARK                            x       y       z     vdW  Elec       q    Type
REMARK                         _______ _______ _______ _____ _____    ______ ____
ROOT
ATOM      1  O   UNL     1      10.950   6.874   7.122  0.00  0.00    -0.366 OA
ATOM      8  C   UNL     1      11.126   5.808   6.173  0.00  0.00    +0.167 C 
ATOM      9  C   UNL     1       9.900   4.922   6.317  0.00  0.00    +0.176 C 
ATOM     10  C   UNL     1       9.632   5.015   7.805  0.00  0.00    +0.175 C 
ATOM     11  C   UNL     1       9.957   6.477   8.096  0.00  0.00    +0.158 C 
ENDROOT
BRANCH   9   2
ATOM      2  O   UNL     1      10.142   3.604   5.874  0.00  0.00    -0.387 OA
ATOM     25  H   UNL     1      10.764   3.196   6.499  0.00  0.00    +0.210 HD
ENDBRANCH   9   2
BRANCH  10   3
ATOM      3  O   UNL     1      10.558   4.204   8.527  0.00  0.00    -0.387 OA
ATOM     26  H   UNL     1      10.857   3.501   7.925  0.00  0.00    +0.210 HD
ENDBRANCH  10   3
BRANCH   8  15
ATOM     15  C   UNL     1      11.290   6.387   4.779  0.00  0.00    +0.138 C 
BRANCH  15   6
ATOM      4  O   UNL     1       9.820   6.273   2.272  0.00  0.00    -0.276 OA
ATOM      6  N   UNL     1      11.329   5.350   3.789  0.00  0.00    -0.313 N 
ATOM     19  C   UNL     1      10.588   5.382   2.616  0.00  0.00    +0.216 C 
ATOM     24  H   UNL     1      11.932   4.551   3.966  0.00  0.00    +0.149 HD
BRANCH  19  12
ATOM     12  C   UNL     1      10.786   4.192   1.726  0.00  0.00    +0.075 C 
ATOM     13  C   UNL     1      12.095   3.477   2.079  0.00  0.00    +0.013 C 
ATOM     14  C   UNL     1      10.916   4.628   0.265  0.00  0.00    +0.013 C 
ATOM     16  C   UNL     1      12.904   3.429   0.786  0.00  0.00    +0.001 C 
ATOM     17  C   UNL     1      12.414   4.628  -0.003  0.00  0.00    +0.001 C 
ENDBRANCH  19  12
ENDBRANCH  15   6
ENDBRANCH   8  15
BRANCH  11  18
ATOM     18  C   UNL     1       8.755   7.398   7.938  0.00  0.00    +0.130 C 
BRANCH  18  20
ATOM      5  O   UNL     1       8.850   9.164   6.285  0.00  0.00    -0.276 OA
ATOM      7  N   UNL     1       9.846   9.500   8.354  0.00  0.00    -0.313 N 
ATOM     20  C   UNL     1       9.138   8.769   7.411  0.00  0.00    +0.216 C 
ATOM     27  H   UNL     1      10.085   9.062   9.240  0.00  0.00    +0.149 HD
BRANCH   7  21
ATOM     21  C   UNL     1      10.323  10.829   8.100  0.00  0.00    +0.067 C 
ATOM     22  C   UNL     1      11.749  10.986   8.611  0.00  0.00    +0.027 C 
ATOM     23  C   UNL     1       9.395  11.860   8.730  0.00  0.00    +0.027 C 
ENDBRANCH   7  21
ENDBRANCH  18  20
ENDBRANCH  11  18
TORSDOF 8
ENDMDL
MODEL 3
REMARK VINA RESULT:      -5.9     22.819     24.840
REMARK  Name = 25390420
REMARK  10 active torsions:
REMARK  status: ('A' for Active; 'I' for Inactive)
REMARK    1  A    between atoms: O_2  and  C_9
REMARK    2  A    between atoms: O_3  and  C_10
REMARK    3  A    between atoms: N_6  and  C_15
REMARK    4  A    between atoms: N_7  and  C_21
REMARK    5  A    between atoms: C_8  and  C_15
REMARK    6  A    between atoms: C_11  and  C_18
REMARK    7  A    between atoms: C_12  and  C_19
REMARK    8  A    between atoms: C_18  and  C_20
REMARK    9  A    between atoms: C_21  and  C_22
REMARK   10  A    between atoms: C_21  and  C_23
REMARK                            x       y       z     vdW  Elec       q    Type
REMARK                         _______ _______ _______ _____ _____    ______ ____
ROOT
ATOM      1  O   UNL     1      -3.336 -10.025  16.431  0.00  0.00    -0.366 OA
ATOM      8  C   UNL     1      -2.720 -11.107  15.712  0.00  0.00    +0.167 C 
ATOM      9  C   UNL     1      -3.848 -12.062  15.360  0.00  0.00    +0.176 C 
ATOM     10  C   UNL     1      -4.741 -11.938  16.578  0.00  0.00    +0.175 C 
ATOM     11  C   UNL     1      -4.636 -10.452  16.899  0.00  0.00    +0.158 C 
ENDROOT
BRANCH   9   2
ATOM      2  O   UNL     1      -3.383 -13.376  15.140  0.00  0.00    -0.387 OA
ATOM     25  H   UNL     1      -3.672 -13.919  15.892  0.00  0.00    +0.210 HD
ENDBRANCH   9   2
BRANCH  10   3
ATOM      3  O   UNL     1      -4.189 -12.668  17.673  0.00  0.00    -0.387 OA
ATOM     26  H   UNL     1      -3.946 -12.023  18.358  0.00  0.00    +0.210 HD
ENDBRANCH  10   3
BRANCH   8  15
ATOM     15  C   UNL     1      -1.989 -10.564  14.497  0.00  0.00    +0.138 C 
BRANCH  15   6
ATOM      4  O   UNL     1      -1.285  -9.773  11.788  0.00  0.00    -0.276 OA
ATOM      6  N   UNL     1      -2.809 -10.641  13.324  0.00  0.00    -0.313 N 
ATOM     19  C   UNL     1      -2.385 -10.237  12.065  0.00  0.00    +0.216 C 
ATOM     24  H   UNL     1      -3.751 -11.008  13.428  0.00  0.00    +0.149 HD
BRANCH  19  12
ATOM     12  C   UNL     1      -3.408 -10.409  10.982  0.00  0.00    +0.075 C 
ATOM     13  C   UNL     1      -3.297  -9.270   9.962  0.00  0.00    +0.013 C 
ATOM     14  C   UNL     1      -4.823 -10.332  11.560  0.00  0.00    +0.013 C 
ATOM     16  C   UNL     1      -4.681  -8.630   9.903  0.00  0.00    +0.001 C 
ATOM     17  C   UNL     1      -5.278  -8.909  11.269  0.00  0.00    +0.001 C 
ENDBRANCH  19  12
ENDBRANCH  15   6
ENDBRANCH   8  15
BRANCH  11  18
ATOM     18  C   UNL     1      -5.687  -9.611  16.185  0.00  0.00    +0.130 C 
BRANCH  18  20
ATOM      5  O   UNL     1      -7.170  -9.966  18.065  0.00  0.00    -0.276 OA
ATOM      7  N   UNL     1      -8.059  -9.247  16.045  0.00  0.00    -0.313 N 
ATOM     20  C   UNL     1      -7.030  -9.637  16.891  0.00  0.00    +0.216 C 
ATOM     27  H   UNL     1      -7.849  -9.048  15.071  0.00  0.00    +0.149 HD
BRANCH   7  21
ATOM     21  C   UNL     1      -9.427  -9.186  16.473  0.00  0.00    +0.067 C 
ATOM     22  C   UNL     1     -10.358  -9.545  15.322  0.00  0.00    +0.027 C 
ATOM     23  C   UNL     1      -9.752  -7.808  17.035  0.00  0.00    +0.027 C 
ENDBRANCH   7  21
ENDBRANCH  18  20
ENDBRANCH  11  18
TORSDOF 8
ENDMDL
MODEL 4
REMARK VINA RESULT:      -5.8      2.875      4.205
REMARK  Name = 25390420
REMARK  10 active torsions:
REMARK  status: ('A' for Active; 'I' for Inactive)
REMARK    1  A    between atoms: O_2  and  C_9
REMARK    2  A    between atoms: O_3  and  C_10
REMARK    3  A    between atoms: N_6  and  C_15
REMARK    4  A    between atoms: N_7  and  C_21
REMARK    5  A    between atoms: C_8  and  C_15
REMARK    6  A    between atoms: C_11  and  C_18
REMARK    7  A    between atoms: C_12  and  C_19
REMARK    8  A    between atoms: C_18  and  C_20
REMARK    9  A    between atoms: C_21  and  C_22
REMARK   10  A    between atoms: C_21  and  C_23
REMARK                            x       y       z     vdW  Elec       q    Type
REMARK                         _______ _______ _______ _____ _____    ______ ____
ROOT
ATOM      1  O   UNL     1      12.522   8.138   4.689  0.00  0.00    -0.366 OA
ATOM      8  C   UNL     1      13.162   7.467   3.589  0.00  0.00    +0.167 C 
ATOM      9  C   UNL     1      14.492   6.969   4.129  0.00  0.00    +0.176 C 
ATOM     10  C   UNL     1      14.866   8.082   5.086  0.00  0.00    +0.175 C 
ATOM     11  C   UNL     1      13.516   8.448   5.692  0.00  0.00    +0.158 C 
ENDROOT
BRANCH   9   2
ATOM      2  O   UNL     1      15.440   6.771   3.103  0.00  0.00    -0.387 OA
ATOM     25  H   UNL     1      15.039   7.074   2.272  0.00  0.00    +0.210 HD
ENDBRANCH   9   2
BRANCH  10   3
ATOM      3  O   UNL     1      15.349   9.214   4.364  0.00  0.00    -0.387 OA
ATOM     26  H   UNL     1      14.585   9.783   4.170  0.00  0.00    +0.210 HD
ENDBRANCH  10   3
BRANCH   8  15
ATOM     15  C   UNL     1      12.264   6.354   3.077  0.00  0.00    +0.138 C 
BRANCH  15   6
ATOM      4  O   UNL     1      11.283   3.874   1.918  0.00  0.00    -0.276 OA
ATOM      6  N   UNL     1      13.028   5.335   2.419  0.00  0.00    -0.313 N 
ATOM     19  C   UNL     1      12.470   4.178   1.894  0.00  0.00    +0.216 C 
ATOM     24  H   UNL     1      14.032   5.474   2.341  0.00  0.00    +0.149 HD
BRANCH  19  12
ATOM     12  C   UNL     1      13.456   3.253   1.248  0.00  0.00    +0.075 C 
ATOM     13  C   UNL     1      14.881   3.600   1.694  0.00  0.00    +0.013 C 
ATOM     14  C   UNL     1      13.432   3.414  -0.273  0.00  0.00    +0.013 C 
ATOM     16  C   UNL     1      15.667   3.854   0.411  0.00  0.00    +0.001 C 
ATOM     17  C   UNL     1      14.618   4.316  -0.583  0.00  0.00    +0.001 C 
ENDBRANCH  19  12
ENDBRANCH  15   6
ENDBRANCH   8  15
BRANCH  11  18
ATOM     18  C   UNL     1      13.185   7.641   6.941  0.00  0.00    +0.130 C 
BRANCH  18  20
ATOM      5  O   UNL     1      10.870   8.112   7.468  0.00  0.00    -0.276 OA
ATOM      7  N   UNL     1      11.433   6.027   6.619  0.00  0.00    -0.313 N 
ATOM     20  C   UNL     1      11.706   7.318   7.049  0.00  0.00    +0.216 C 
ATOM     27  H   UNL     1      12.203   5.425   6.342  0.00  0.00    +0.149 HD
BRANCH   7  21
ATOM     21  C   UNL     1      10.106   5.478   6.621  0.00  0.00    +0.067 C 
ATOM     22  C   UNL     1       9.862   4.689   7.900  0.00  0.00    +0.027 C 
ATOM     23  C   UNL     1       9.884   4.612   5.388  0.00  0.00    +0.027 C 
ENDBRANCH   7  21
ENDBRANCH  18  20
ENDBRANCH  11  18
TORSDOF 8
ENDMDL
MODEL 5
REMARK VINA RESULT:      -5.8     25.339     28.037
REMARK  Name = 25390420
REMARK  10 active torsions:
REMARK  status: ('A' for Active; 'I' for Inactive)
REMARK    1  A    between atoms: O_2  and  C_9
REMARK    2  A    between atoms: O_3  and  C_10
REMARK    3  A    between atoms: N_6  and  C_15
REMARK    4  A    between atoms: N_7  and  C_21
REMARK    5  A    between atoms: C_8  and  C_15
REMARK    6  A    between atoms: C_11  and  C_18
REMARK    7  A    between atoms: C_12  and  C_19
REMARK    8  A    between atoms: C_18  and  C_20
REMARK    9  A    between atoms: C_21  and  C_22
REMARK   10  A    between atoms: C_21  and  C_23
REMARK                            x       y       z     vdW  Elec       q    Type
REMARK                         _______ _______ _______ _____ _____    ______ ____
ROOT
ATOM      1  O   UNL     1      -6.549 -11.588  17.239  0.00  0.00    -0.366 OA
ATOM      8  C   UNL     1      -7.621 -10.806  17.794  0.00  0.00    +0.167 C 
ATOM      9  C   UNL     1      -7.366 -10.762  19.291  0.00  0.00    +0.176 C 
ATOM     10  C   UNL     1      -6.788 -12.139  19.541  0.00  0.00    +0.175 C 
ATOM     11  C   UNL     1      -5.930 -12.353  18.299  0.00  0.00    +0.158 C 
ENDROOT
BRANCH   9   2
ATOM      2  O   UNL     1      -8.546 -10.510  20.023  0.00  0.00    -0.387 OA
ATOM     25  H   UNL     1      -8.707  -9.552  19.998  0.00  0.00    +0.210 HD
ENDBRANCH   9   2
BRANCH  10   3
ATOM      3  O   UNL     1      -7.824 -13.120  19.539  0.00  0.00    -0.387 OA
ATOM     26  H   UNL     1      -8.541 -12.783  18.975  0.00  0.00    +0.210 HD
ENDBRANCH  10   3
BRANCH   8  15
ATOM     15  C   UNL     1      -7.642  -9.434  17.145  0.00  0.00    +0.138 C 
BRANCH  15   6
ATOM      4  O   UNL     1      -9.619  -8.398  15.281  0.00  0.00    -0.276 OA
ATOM      6  N   UNL     1      -8.852  -8.732  17.457  0.00  0.00    -0.313 N 
ATOM     19  C   UNL     1      -9.741  -8.273  16.494  0.00  0.00    +0.216 C 
ATOM     24  H   UNL     1      -9.062  -8.564  18.437  0.00  0.00    +0.149 HD
BRANCH  19  12
ATOM     12  C   UNL     1     -10.943  -7.568  17.047  0.00  0.00    +0.075 C 
ATOM     13  C   UNL     1     -12.221  -8.332  16.684  0.00  0.00    +0.013 C 
ATOM     14  C   UNL     1     -11.085  -6.176  16.427  0.00  0.00    +0.013 C 
ATOM     16  C   UNL     1     -13.109  -7.332  15.952  0.00  0.00    +0.001 C 
ATOM     17  C   UNL     1     -12.132  -6.347  15.336  0.00  0.00    +0.001 C 
ENDBRANCH  19  12
ENDBRANCH  15   6
ENDBRANCH   8  15
BRANCH  11  18
ATOM     18  C   UNL     1      -4.503 -11.849  18.464  0.00  0.00    +0.130 C 
BRANCH  18  20
ATOM      5  O   UNL     1      -4.055  -9.966  17.011  0.00  0.00    -0.276 OA
ATOM      7  N   UNL     1      -3.403 -12.090  16.340  0.00  0.00    -0.313 N 
ATOM     20  C   UNL     1      -3.975 -11.174  17.212  0.00  0.00    +0.216 C 
ATOM     27  H   UNL     1      -3.437 -13.079  16.572  0.00  0.00    +0.149 HD
BRANCH   7  21
ATOM     21  C   UNL     1      -2.830 -11.703  15.083  0.00  0.00    +0.067 C 
ATOM     22  C   UNL     1      -2.796 -12.890  14.130  0.00  0.00    +0.027 C 
ATOM     23  C   UNL     1      -1.437 -11.119  15.286  0.00  0.00    +0.027 C 
ENDBRANCH   7  21
ENDBRANCH  18  20
ENDBRANCH  11  18
TORSDOF 8
ENDMDL
MODEL 6
REMARK VINA RESULT:      -5.7     22.327     24.893
REMARK  Name = 25390420
REMARK  10 active torsions:
REMARK  status: ('A' for Active; 'I' for Inactive)
REMARK    1  A    between atoms: O_2  and  C_9
REMARK    2  A    between atoms: O_3  and  C_10
REMARK    3  A    between atoms: N_6  and  C_15
REMARK    4  A    between atoms: N_7  and  C_21
REMARK    5  A    between atoms: C_8  and  C_15
REMARK    6  A    between atoms: C_11  and  C_18
REMARK    7  A    between atoms: C_12  and  C_19
REMARK    8  A    between atoms: C_18  and  C_20
REMARK    9  A    between atoms: C_21  and  C_22
REMARK   10  A    between atoms: C_21  and  C_23
REMARK                            x       y       z     vdW  Elec       q    Type
REMARK                         _______ _______ _______ _____ _____    ______ ____
ROOT
ATOM      1  O   UNL     1      -4.209 -10.948  11.900  0.00  0.00    -0.366 OA
ATOM      8  C   UNL     1      -3.931 -11.018  13.309  0.00  0.00    +0.167 C 
ATOM      9  C   UNL     1      -2.520 -10.479  13.476  0.00  0.00    +0.176 C 
ATOM     10  C   UNL     1      -1.852 -10.982  12.213  0.00  0.00    +0.175 C 
ATOM     11  C   UNL     1      -2.961 -10.818  11.180  0.00  0.00    +0.158 C 
ENDROOT
BRANCH   9   2
ATOM      2  O   UNL     1      -1.908 -10.951  14.658  0.00  0.00    -0.387 OA
ATOM     25  H   UNL     1      -0.969 -10.704  14.619  0.00  0.00    +0.210 HD
ENDBRANCH   9   2
BRANCH  10   3
ATOM      3  O   UNL     1      -1.556 -12.373  12.329  0.00  0.00    -0.387 OA
ATOM     26  H   UNL     1      -0.758 -12.455  12.879  0.00  0.00    +0.210 HD
ENDBRANCH  10   3
BRANCH   8  15
ATOM     15  C   UNL     1      -4.973 -10.224  14.076  0.00  0.00    +0.138 C 
BRANCH  15   6
ATOM      4  O   UNL     1      -6.820  -9.490  16.200  0.00  0.00    -0.276 OA
ATOM      6  N   UNL     1      -4.762 -10.324  15.490  0.00  0.00    -0.313 N 
ATOM     19  C   UNL     1      -5.707  -9.948  16.435  0.00  0.00    +0.216 C 
ATOM     24  H   UNL     1      -3.869 -10.689  15.810  0.00  0.00    +0.149 HD
BRANCH  19  12
ATOM     12  C   UNL     1      -5.273 -10.142  17.857  0.00  0.00    +0.075 C 
ATOM     13  C   UNL     1      -4.163 -11.195  17.934  0.00  0.00    +0.013 C 
ATOM     14  C   UNL     1      -6.430 -10.674  18.705  0.00  0.00    +0.013 C 
ATOM     16  C   UNL     1      -4.667 -12.259  18.905  0.00  0.00    +0.001 C 
ATOM     17  C   UNL     1      -6.178 -12.171  18.801  0.00  0.00    +0.001 C 
ENDBRANCH  19  12
ENDBRANCH  15   6
ENDBRANCH   8  15
BRANCH  11  18
ATOM     18  C   UNL     1      -2.952  -9.453  10.506  0.00  0.00    +0.130 C 
BRANCH  18  20
ATOM      5  O   UNL     1      -4.840  -8.201   9.652  0.00  0.00    -0.276 OA
ATOM      7  N   UNL     1      -4.420 -10.324   8.813  0.00  0.00    -0.313 N 
ATOM     20  C   UNL     1      -4.170  -9.229   9.628  0.00  0.00    +0.216 C 
ATOM     27  H   UNL     1      -3.840 -11.153   8.907  0.00  0.00    +0.149 HD
BRANCH   7  21
ATOM     21  C   UNL     1      -5.517 -10.362   7.888  0.00  0.00    +0.067 C 
ATOM     22  C   UNL     1      -6.684 -11.138   8.485  0.00  0.00    +0.027 C 
ATOM     23  C   UNL     1      -5.077 -10.963   6.559  0.00  0.00    +0.027 C 
ENDBRANCH   7  21
ENDBRANCH  18  20
ENDBRANCH  11  18
TORSDOF 8
ENDMDL
MODEL 7
REMARK VINA RESULT:      -5.6     24.190     26.227
REMARK  Name = 25390420
REMARK  10 active torsions:
REMARK  status: ('A' for Active; 'I' for Inactive)
REMARK    1  A    between atoms: O_2  and  C_9
REMARK    2  A    between atoms: O_3  and  C_10
REMARK    3  A    between atoms: N_6  and  C_15
REMARK    4  A    between atoms: N_7  and  C_21
REMARK    5  A    between atoms: C_8  and  C_15
REMARK    6  A    between atoms: C_11  and  C_18
REMARK    7  A    between atoms: C_12  and  C_19
REMARK    8  A    between atoms: C_18  and  C_20
REMARK    9  A    between atoms: C_21  and  C_22
REMARK   10  A    between atoms: C_21  and  C_23
REMARK                            x       y       z     vdW  Elec       q    Type
REMARK                         _______ _______ _______ _____ _____    ______ ____
ROOT
ATOM      1  O   UNL     1      -5.741 -10.364  18.143  0.00  0.00    -0.366 OA
ATOM      8  C   UNL     1      -4.823 -10.527  17.048  0.00  0.00    +0.167 C 
ATOM      9  C   UNL     1      -4.569 -12.021  16.943  0.00  0.00    +0.176 C 
ATOM     10  C   UNL     1      -4.604 -12.438  18.399  0.00  0.00    +0.175 C 
ATOM     11  C   UNL     1      -5.724 -11.562  18.952  0.00  0.00    +0.158 C 
ENDROOT
BRANCH   9   2
ATOM      2  O   UNL     1      -3.340 -12.308  16.310  0.00  0.00    -0.387 OA
ATOM     25  H   UNL     1      -3.503 -13.015  15.664  0.00  0.00    +0.210 HD
ENDBRANCH   9   2
BRANCH  10   3
ATOM      3  O   UNL     1      -3.390 -12.068  19.050  0.00  0.00    -0.387 OA
ATOM     26  H   UNL     1      -3.575 -12.020  20.004  0.00  0.00    +0.210 HD
ENDBRANCH  10   3
BRANCH   8  15
ATOM     15  C   UNL     1      -5.419  -9.928  15.787  0.00  0.00    +0.138 C 
BRANCH  15   6
ATOM      4  O   UNL     1      -6.170  -9.474  13.014  0.00  0.00    -0.276 OA
ATOM      6  N   UNL     1      -4.795 -10.466  14.614  0.00  0.00    -0.313 N 
ATOM     19  C   UNL     1      -5.225 -10.192  13.323  0.00  0.00    +0.216 C 
ATOM     24  H   UNL     1      -3.998 -11.083  14.743  0.00  0.00    +0.149 HD
BRANCH  19  12
ATOM     12  C   UNL     1      -4.424 -10.861  12.247  0.00  0.00    +0.075 C 
ATOM     13  C   UNL     1      -2.942 -10.491  12.381  0.00  0.00    +0.013 C 
ATOM     14  C   UNL     1      -4.864 -10.375  10.865  0.00  0.00    +0.013 C 
ATOM     16  C   UNL     1      -2.541  -9.893  11.036  0.00  0.00    +0.001 C 
ATOM     17  C   UNL     1      -3.833  -9.324  10.482  0.00  0.00    +0.001 C 
ENDBRANCH  19  12
ENDBRANCH  15   6
ENDBRANCH   8  15
BRANCH  11  18
ATOM     18  C   UNL     1      -7.096 -12.213  18.851  0.00  0.00    +0.130 C 
BRANCH  18  20
ATOM      5  O   UNL     1      -8.786 -11.026  20.113  0.00  0.00    -0.276 OA
ATOM      7  N   UNL     1      -8.539 -10.571  17.851  0.00  0.00    -0.313 N 
ATOM     20  C   UNL     1      -8.227 -11.219  19.038  0.00  0.00    +0.216 C 
ATOM     27  H   UNL     1      -8.056 -10.842  16.999  0.00  0.00    +0.149 HD
BRANCH   7  21
ATOM     21  C   UNL     1      -9.575  -9.581  17.762  0.00  0.00    +0.067 C 
ATOM     22  C   UNL     1     -10.872 -10.215  17.280  0.00  0.00    +0.027 C 
ATOM     23  C   UNL     1      -9.147  -8.438  16.849  0.00  0.00    +0.027 C 
ENDBRANCH   7  21
ENDBRANCH  18  20
ENDBRANCH  11  18
TORSDOF 8
ENDMDL
MODEL 8
REMARK VINA RESULT:      -5.6      1.755      2.480
REMARK  Name = 25390420
REMARK  10 active torsions:
REMARK  status: ('A' for Active; 'I' for Inactive)
REMARK    1  A    between atoms: O_2  and  C_9
REMARK    2  A    between atoms: O_3  and  C_10
REMARK    3  A    between atoms: N_6  and  C_15
REMARK    4  A    between atoms: N_7  and  C_21
REMARK    5  A    between atoms: C_8  and  C_15
REMARK    6  A    between atoms: C_11  and  C_18
REMARK    7  A    between atoms: C_12  and  C_19
REMARK    8  A    between atoms: C_18  and  C_20
REMARK    9  A    between atoms: C_21  and  C_22
REMARK   10  A    between atoms: C_21  and  C_23
REMARK                            x       y       z     vdW  Elec       q    Type
REMARK                         _______ _______ _______ _____ _____    ______ ____
ROOT
ATOM      1  O   UNL     1       9.986   7.748   6.228  0.00  0.00    -0.366 OA
ATOM      8  C   UNL     1      11.049   6.975   6.812  0.00  0.00    +0.167 C 
ATOM      9  C   UNL     1      10.448   5.613   7.115  0.00  0.00    +0.176 C 
ATOM     10  C   UNL     1       9.035   5.987   7.513  0.00  0.00    +0.175 C 
ATOM     11  C   UNL     1       8.722   7.121   6.543  0.00  0.00    +0.158 C 
ENDROOT
BRANCH   9   2
ATOM      2  O   UNL     1      11.154   4.936   8.132  0.00  0.00    -0.387 OA
ATOM     25  H   UNL     1      12.101   4.995   7.920  0.00  0.00    +0.210 HD
ENDBRANCH   9   2
BRANCH  10   3
ATOM      3  O   UNL     1       9.017   6.518   8.837  0.00  0.00    -0.387 OA
ATOM     26  H   UNL     1       9.926   6.473   9.180  0.00  0.00    +0.210 HD
ENDBRANCH  10   3
BRANCH   8  15
ATOM     15  C   UNL     1      12.224   6.915   5.852  0.00  0.00    +0.138 C 
BRANCH  15   6
ATOM      4  O   UNL     1      13.004   7.601   3.136  0.00  0.00    -0.276 OA
ATOM      6  N   UNL     1      11.870   6.232   4.643  0.00  0.00    -0.313 N 
ATOM     19  C   UNL     1      12.292   6.635   3.383  0.00  0.00    +0.216 C 
ATOM     24  H   UNL     1      11.275   5.412   4.721  0.00  0.00    +0.149 HD
BRANCH  19  12
ATOM     12  C   UNL     1      11.803   5.770   2.260  0.00  0.00    +0.075 C 
ATOM     13  C   UNL     1      11.294   4.431   2.804  0.00  0.00    +0.013 C 
ATOM     14  C   UNL     1      12.946   5.437   1.299  0.00  0.00    +0.013 C 
ATOM     16  C   UNL     1      12.087   3.356   2.067  0.00  0.00    +0.001 C 
ATOM     17  C   UNL     1      13.392   4.039   1.704  0.00  0.00    +0.001 C 
ENDBRANCH  19  12
ENDBRANCH  15   6
ENDBRANCH   8  15
BRANCH  11  18
ATOM     18  C   UNL     1       8.105   6.637   5.238  0.00  0.00    +0.130 C 
BRANCH  18  20
ATOM      5  O   UNL     1       8.556   7.598   3.062  0.00  0.00    -0.276 OA
ATOM      7  N   UNL     1       7.395   8.853   4.633  0.00  0.00    -0.313 N 
ATOM     20  C   UNL     1       8.059   7.722   4.178  0.00  0.00    +0.216 C 
ATOM     27  H   UNL     1       7.068   8.880   5.595  0.00  0.00    +0.149 HD
BRANCH   7  21
ATOM     21  C   UNL     1       7.216  10.021   3.819  0.00  0.00    +0.067 C 
ATOM     22  C   UNL     1       7.435  11.281   4.646  0.00  0.00    +0.027 C 
ATOM     23  C   UNL     1       5.835  10.019   3.174  0.00  0.00    +0.027 C 
ENDBRANCH   7  21
ENDBRANCH  18  20
ENDBRANCH  11  18
TORSDOF 8
ENDMDL
MODEL 9
REMARK VINA RESULT:      -5.6     25.371     27.997
REMARK  Name = 25390420
REMARK  10 active torsions:
REMARK  status: ('A' for Active; 'I' for Inactive)
REMARK    1  A    between atoms: O_2  and  C_9
REMARK    2  A    between atoms: O_3  and  C_10
REMARK    3  A    between atoms: N_6  and  C_15
REMARK    4  A    between atoms: N_7  and  C_21
REMARK    5  A    between atoms: C_8  and  C_15
REMARK    6  A    between atoms: C_11  and  C_18
REMARK    7  A    between atoms: C_12  and  C_19
REMARK    8  A    between atoms: C_18  and  C_20
REMARK    9  A    between atoms: C_21  and  C_22
REMARK   10  A    between atoms: C_21  and  C_23
REMARK                            x       y       z     vdW  Elec       q    Type
REMARK                         _______ _______ _______ _____ _____    ______ ____
ROOT
ATOM      1  O   UNL     1      -6.669 -12.508  17.979  0.00  0.00    -0.366 OA
ATOM      8  C   UNL     1      -7.926 -12.234  18.623  0.00  0.00    +0.167 C 
ATOM      9  C   UNL     1      -7.867 -10.773  19.036  0.00  0.00    +0.176 C 
ATOM     10  C   UNL     1      -6.405 -10.621  19.403  0.00  0.00    +0.175 C 
ATOM     11  C   UNL     1      -5.721 -11.479  18.344  0.00  0.00    +0.158 C 
ENDROOT
BRANCH   9   2
ATOM      2  O   UNL     1      -8.744 -10.488  20.104  0.00  0.00    -0.387 OA
ATOM     25  H   UNL     1      -8.281 -10.709  20.929  0.00  0.00    +0.210 HD
ENDBRANCH   9   2
BRANCH  10   3
ATOM      3  O   UNL     1      -6.151 -11.205  20.680  0.00  0.00    -0.387 OA
ATOM     26  H   UNL     1      -5.712 -12.059  20.525  0.00  0.00    +0.210 HD
ENDBRANCH  10   3
BRANCH   8  15
ATOM     15  C   UNL     1      -9.067 -12.545  17.670  0.00  0.00    +0.138 C 
BRANCH  15   6
ATOM      4  O   UNL     1      -9.600 -11.313  15.091  0.00  0.00    -0.276 OA
ATOM      6  N   UNL     1      -9.854 -11.377  17.406  0.00  0.00    -0.313 N 
ATOM     19  C   UNL     1     -10.054 -10.858  16.134  0.00  0.00    +0.216 C 
ATOM     24  H   UNL     1     -10.282 -10.906  18.199  0.00  0.00    +0.149 HD
BRANCH  19  12
ATOM     12  C   UNL     1     -10.913  -9.631  16.093  0.00  0.00    +0.075 C 
ATOM     13  C   UNL     1     -10.331  -8.607  15.113  0.00  0.00    +0.013 C 
ATOM     14  C   UNL     1     -10.942  -8.947  17.462  0.00  0.00    +0.013 C 
ATOM     16  C   UNL     1     -10.133  -7.327  15.918  0.00  0.00    +0.001 C 
ATOM     17  C   UNL     1      -9.937  -7.810  17.343  0.00  0.00    +0.001 C 
ENDBRANCH  19  12
ENDBRANCH  15   6
ENDBRANCH   8  15
BRANCH  11  18
ATOM     18  C   UNL     1      -5.367 -10.702  17.083  0.00  0.00    +0.130 C 
BRANCH  18  20
ATOM      5  O   UNL     1      -4.173 -12.550  16.075  0.00  0.00    -0.276 OA
ATOM      7  N   UNL     1      -3.303 -10.406  15.887  0.00  0.00    -0.313 N 
ATOM     20  C   UNL     1      -4.237 -11.345  16.301  0.00  0.00    +0.216 C 
ATOM     27  H   UNL     1      -3.416  -9.438  16.174  0.00  0.00    +0.149 HD
BRANCH   7  21
ATOM     21  C   UNL     1      -2.137 -10.761  15.129  0.00  0.00    +0.067 C 
ATOM     22  C   UNL     1      -0.914 -10.031  15.668  0.00  0.00    +0.027 C 
ATOM     23  C   UNL     1      -2.350 -10.464  13.650  0.00  0.00    +0.027 C 
ENDBRANCH   7  21
ENDBRANCH  18  20
ENDBRANCH  11  18
TORSDOF 8
ENDMDL
MODEL 10
REMARK VINA RESULT:      -5.5     24.617     27.408
REMARK  Name = 25390420
REMARK  10 active torsions:
REMARK  status: ('A' for Active; 'I' for Inactive)
REMARK    1  A    between atoms: O_2  and  C_9
REMARK    2  A    between atoms: O_3  and  C_10
REMARK    3  A    between atoms: N_6  and  C_15
REMARK    4  A    between atoms: N_7  and  C_21
REMARK    5  A    between atoms: C_8  and  C_15
REMARK    6  A    between atoms: C_11  and  C_18
REMARK    7  A    between atoms: C_12  and  C_19
REMARK    8  A    between atoms: C_18  and  C_20
REMARK    9  A    between atoms: C_21  and  C_22
REMARK   10  A    between atoms: C_21  and  C_23
REMARK                            x       y       z     vdW  Elec       q    Type
REMARK                         _______ _______ _______ _____ _____    ______ ____
ROOT
ATOM      1  O   UNL     1      -5.037 -11.242  16.109  0.00  0.00    -0.366 OA
ATOM      8  C   UNL     1      -6.190 -10.846  16.872  0.00  0.00    +0.167 C 
ATOM      9  C   UNL     1      -5.702 -10.685  18.301  0.00  0.00    +0.176 C 
ATOM     10  C   UNL     1      -4.667 -11.787  18.394  0.00  0.00    +0.175 C 
ATOM     11  C   UNL     1      -4.022 -11.735  17.013  0.00  0.00    +0.158 C 
ENDROOT
BRANCH   9   2
ATOM      2  O   UNL     1      -6.748 -10.820  19.239  0.00  0.00    -0.387 OA
ATOM     25  H   UNL     1      -7.149 -11.695  19.104  0.00  0.00    +0.210 HD
ENDBRANCH   9   2
BRANCH  10   3
ATOM      3  O   UNL     1      -5.306 -13.055  18.537  0.00  0.00    -0.387 OA
ATOM     26  H   UNL     1      -5.299 -13.278  19.483  0.00  0.00    +0.210 HD
ENDBRANCH  10   3
BRANCH   8  15
ATOM     15  C   UNL     1      -6.776  -9.572  16.289  0.00  0.00    +0.138 C 
BRANCH  15   6
ATOM      4  O   UNL     1      -9.370  -8.670  15.331  0.00  0.00    -0.276 OA
ATOM      6  N   UNL     1      -7.883  -9.106  17.072  0.00  0.00    -0.313 N 
ATOM     19  C   UNL     1      -9.090  -8.694  16.524  0.00  0.00    +0.216 C 
ATOM     24  H   UNL     1      -7.768  -9.077  18.081  0.00  0.00    +0.149 HD
BRANCH  19  12
ATOM     12  C   UNL     1     -10.107  -8.248  17.531  0.00  0.00    +0.075 C 
ATOM     13  C   UNL     1     -10.594  -9.443  18.358  0.00  0.00    +0.013 C 
ATOM     14  C   UNL     1     -11.343  -7.678  16.832  0.00  0.00    +0.013 C 
ATOM     16  C   UNL     1     -12.111  -9.469  18.196  0.00  0.00    +0.001 C 
ATOM     17  C   UNL     1     -12.352  -8.816  16.848  0.00  0.00    +0.001 C 
ENDBRANCH  19  12
ENDBRANCH  15   6
ENDBRANCH   8  15
BRANCH  11  18
ATOM     18  C   UNL     1      -2.836 -10.783  16.945  0.00  0.00    +0.130 C 
BRANCH  18  20
ATOM      5  O   UNL     1      -0.868 -10.477  15.568  0.00  0.00    -0.276 OA
ATOM      7  N   UNL     1      -2.357 -12.179  15.047  0.00  0.00    -0.313 N 
ATOM     20  C   UNL     1      -1.899 -11.104  15.795  0.00  0.00    +0.216 C 
ATOM     27  H   UNL     1      -3.253 -12.597  15.281  0.00  0.00    +0.149 HD
BRANCH   7  21
ATOM     21  C   UNL     1      -1.649 -12.681  13.904  0.00  0.00    +0.067 C 
ATOM     22  C   UNL     1      -2.142 -11.998  12.635  0.00  0.00    +0.027 C 
ATOM     23  C   UNL     1      -1.792 -14.195  13.807  0.00  0.00    +0.027 C 
ENDBRANCH   7  21
ENDBRANCH  18  20
ENDBRANCH  11  18
TORSDOF 8
ENDMDL
