MODEL 1
REMARK VINA RESULT:      -7.2      0.000      0.000
REMARK  Name = 7144114
REMARK  6 active torsions:
REMARK  status: ('A' for Active; 'I' for Inactive)
REMARK    1  A    between atoms: O_3  and  C_26
REMARK    2  A    between atoms: O_3  and  C_32
REMARK    3  A    between atoms: O_4  and  C_27
REMARK    4  A    between atoms: O_4  and  C_33
REMARK    5  A    between atoms: N_7  and  C_23
REMARK    6  A    between atoms: C_15  and  C_20
REMARK                            x       y       z     vdW  Elec       q    Type
REMARK                         _______ _______ _______ _____ _____    ______ ____
ROOT
ATOM      1  O   UNL     1       9.750  10.022   1.749  0.00  0.00    -0.268 OA
ATOM      2  O   UNL     1      14.081   7.731   1.980  0.00  0.00    -0.252 OA
ATOM      5  N   UNL     1      10.736   9.352   3.765  0.00  0.00    -0.311 N 
ATOM      6  N   UNL     1      13.577   8.078   4.211  0.00  0.00    -0.284 N 
ATOM      7  N   UNL     1      12.973   6.062   3.145  0.00  0.00    -0.266 N 
ATOM      8  C   UNL     1      12.895  10.432   4.622  0.00  0.00    +0.027 C 
ATOM      9  C   UNL     1      11.846   8.610   5.900  0.00  0.00    +0.054 C 
ATOM     10  C   UNL     1      12.374  10.042   5.997  0.00  0.00    +0.018 C 
ATOM     11  C   UNL     1      11.716  10.441   3.649  0.00  0.00    +0.130 C 
ATOM     12  C   UNL     1      14.013   9.476   4.170  0.00  0.00    +0.114 C 
ATOM     13  C   UNL     1      13.006   7.669   5.505  0.00  0.00    +0.119 C 
ATOM     14  C   UNL     1      10.703   8.495   4.885  0.00  0.00    +0.034 A 
ATOM     15  C   UNL     1       9.702   7.584   5.008  0.00  0.00    +0.002 A 
ATOM     16  C   UNL     1       9.777   9.291   2.739  0.00  0.00    +0.252 A 
ATOM     17  C   UNL     1      13.579   7.312   3.025  0.00  0.00    +0.307 C 
ATOM     18  C   UNL     1       8.695   7.492   3.968  0.00  0.00    +0.015 A 
ATOM     19  C   UNL     1       8.715   8.271   2.886  0.00  0.00    +0.071 A 
ATOM     34  H   UNL     1      12.969   5.607   4.049  0.00  0.00    +0.156 HD
ENDROOT
BRANCH  15  20
ATOM     20  C   UNL     1       9.624   6.661   6.161  0.00  0.00    -0.016 A 
ATOM     21  C   UNL     1      10.015   5.334   6.011  0.00  0.00    +0.012 A 
ATOM     22  C   UNL     1       9.162   7.127   7.388  0.00  0.00    +0.012 A 
ATOM     24  C   UNL     1       9.942   4.464   7.100  0.00  0.00    +0.046 A 
ATOM     25  C   UNL     1       9.089   6.257   8.476  0.00  0.00    +0.046 A 
ATOM     26  C   UNL     1       9.480   4.926   8.332  0.00  0.00    +0.120 A 
BRANCH  26   3
ATOM      3  O   UNL     1       9.409   4.076   9.393  0.00  0.00    -0.495 OA
ATOM     32  C   UNL     1       8.736   4.549  10.559  0.00  0.00    +0.277 C 
ENDBRANCH  26   3
ENDBRANCH  15  20
BRANCH   7  23
ATOM     23  C   UNL     1      12.370   5.304   2.112  0.00  0.00    +0.077 A 
ATOM     27  C   UNL     1      13.101   4.334   1.429  0.00  0.00    +0.141 A 
ATOM     28  C   UNL     1      11.036   5.539   1.786  0.00  0.00    +0.027 A 
ATOM     29  C   UNL     1      12.492   3.595   0.414  0.00  0.00    +0.047 A 
ATOM     30  C   UNL     1      10.429   4.800   0.771  0.00  0.00    +0.002 A 
ATOM     31  C   UNL     1      11.157   3.828   0.085  0.00  0.00    +0.004 A 
BRANCH  27   4
ATOM      4  O   UNL     1      14.406   4.091   1.735  0.00  0.00    -0.493 OA
ATOM     33  C   UNL     1      15.324   4.019   0.646  0.00  0.00    +0.277 C 
ENDBRANCH  27   4
ENDBRANCH   7  23
TORSDOF 4
ENDMDL
MODEL 2
REMARK VINA RESULT:      -6.5     23.312     28.346
REMARK  Name = 7144114
REMARK  6 active torsions:
REMARK  status: ('A' for Active; 'I' for Inactive)
REMARK    1  A    between atoms: O_3  and  C_26
REMARK    2  A    between atoms: O_3  and  C_32
REMARK    3  A    between atoms: O_4  and  C_27
REMARK    4  A    between atoms: O_4  and  C_33
REMARK    5  A    between atoms: N_7  and  C_23
REMARK    6  A    between atoms: C_15  and  C_20
REMARK                            x       y       z     vdW  Elec       q    Type
REMARK                         _______ _______ _______ _____ _____    ______ ____
ROOT
ATOM      1  O   UNL     1      -8.025 -14.536  17.387  0.00  0.00    -0.268 OA
ATOM      2  O   UNL     1      -8.583  -9.710  18.057  0.00  0.00    -0.252 OA
ATOM      5  N   UNL     1      -6.255 -13.010  17.226  0.00  0.00    -0.311 N 
ATOM      6  N   UNL     1      -6.291  -9.922  17.820  0.00  0.00    -0.284 N 
ATOM      7  N   UNL     1      -7.651  -9.456  15.950  0.00  0.00    -0.266 N 
ATOM      8  C   UNL     1      -5.402 -11.730  19.275  0.00  0.00    +0.027 C 
ATOM      9  C   UNL     1      -4.393 -11.323  17.068  0.00  0.00    +0.054 C 
ATOM     10  C   UNL     1      -4.082 -11.690  18.520  0.00  0.00    +0.018 C 
ATOM     11  C   UNL     1      -6.254 -12.856  18.688  0.00  0.00    +0.130 C 
ATOM     12  C   UNL     1      -6.114 -10.368  19.205  0.00  0.00    +0.114 C 
ATOM     13  C   UNL     1      -5.050  -9.925  17.030  0.00  0.00    +0.119 C 
ATOM     14  C   UNL     1      -5.312 -12.357  16.406  0.00  0.00    +0.034 A 
ATOM     15  C   UNL     1      -5.271 -12.627  15.075  0.00  0.00    +0.002 A 
ATOM     16  C   UNL     1      -7.190 -13.929  16.717  0.00  0.00    +0.252 A 
ATOM     17  C   UNL     1      -7.593  -9.695  17.322  0.00  0.00    +0.307 C 
ATOM     18  C   UNL     1      -6.222 -13.569  14.515  0.00  0.00    +0.015 A 
ATOM     19  C   UNL     1      -7.141 -14.182  15.260  0.00  0.00    +0.071 A 
ATOM     34  H   UNL     1      -6.847  -9.044  15.492  0.00  0.00    +0.156 HD
ENDROOT
BRANCH  15  20
ATOM     20  C   UNL     1      -4.303 -11.967  14.174  0.00  0.00    -0.016 A 
ATOM     21  C   UNL     1      -4.721 -10.918  13.359  0.00  0.00    +0.012 A 
ATOM     22  C   UNL     1      -2.980 -12.398  14.147  0.00  0.00    +0.012 A 
ATOM     24  C   UNL     1      -3.807 -10.296  12.509  0.00  0.00    +0.046 A 
ATOM     25  C   UNL     1      -2.066 -11.774  13.297  0.00  0.00    +0.046 A 
ATOM     26  C   UNL     1      -2.480 -10.723  12.479  0.00  0.00    +0.120 A 
BRANCH  26   3
ATOM      3  O   UNL     1      -1.589 -10.115  11.649  0.00  0.00    -0.495 OA
ATOM     32  C   UNL     1      -2.112  -9.172  10.714  0.00  0.00    +0.277 C 
ENDBRANCH  26   3
ENDBRANCH  15  20
BRANCH   7  23
ATOM     23  C   UNL     1      -8.749  -9.694  15.089  0.00  0.00    +0.077 A 
ATOM     27  C   UNL     1      -9.755  -8.740  14.946  0.00  0.00    +0.141 A 
ATOM     28  C   UNL     1      -8.814 -10.894  14.385  0.00  0.00    +0.027 A 
ATOM     29  C   UNL     1     -10.830  -8.989  14.093  0.00  0.00    +0.047 A 
ATOM     30  C   UNL     1      -9.890 -11.143  13.533  0.00  0.00    +0.002 A 
ATOM     31  C   UNL     1     -10.899 -10.190  13.387  0.00  0.00    +0.004 A 
BRANCH  27   4
ATOM      4  O   UNL     1      -9.707  -7.560  15.626  0.00  0.00    -0.493 OA
ATOM     33  C   UNL     1     -10.732  -7.327  16.590  0.00  0.00    +0.277 C 
ENDBRANCH  27   4
ENDBRANCH   7  23
TORSDOF 4
ENDMDL
MODEL 3
REMARK VINA RESULT:      -6.4     23.481     26.909
REMARK  Name = 7144114
REMARK  6 active torsions:
REMARK  status: ('A' for Active; 'I' for Inactive)
REMARK    1  A    between atoms: O_3  and  C_26
REMARK    2  A    between atoms: O_3  and  C_32
REMARK    3  A    between atoms: O_4  and  C_27
REMARK    4  A    between atoms: O_4  and  C_33
REMARK    5  A    between atoms: N_7  and  C_23
REMARK    6  A    between atoms: C_15  and  C_20
REMARK                            x       y       z     vdW  Elec       q    Type
REMARK                         _______ _______ _______ _____ _____    ______ ____
ROOT
ATOM      1  O   UNL     1      -0.708 -13.093  13.688  0.00  0.00    -0.268 OA
ATOM      2  O   UNL     1      -4.513 -13.963  10.718  0.00  0.00    -0.252 OA
ATOM      5  N   UNL     1      -2.899 -13.375  14.466  0.00  0.00    -0.311 N 
ATOM      6  N   UNL     1      -5.462 -14.154  12.819  0.00  0.00    -0.284 N 
ATOM      7  N   UNL     1      -5.498 -12.094  11.671  0.00  0.00    -0.266 N 
ATOM      8  C   UNL     1      -4.103 -15.629  14.287  0.00  0.00    +0.027 C 
ATOM      9  C   UNL     1      -5.273 -13.687  15.244  0.00  0.00    +0.054 C 
ATOM     10  C   UNL     1      -4.884 -15.144  15.499  0.00  0.00    +0.018 C 
ATOM     11  C   UNL     1      -2.811 -14.817  14.196  0.00  0.00    +0.130 C 
ATOM     12  C   UNL     1      -4.951 -15.514  13.008  0.00  0.00    +0.114 C 
ATOM     13  C   UNL     1      -6.173 -13.617  13.990  0.00  0.00    +0.119 C 
ATOM     14  C   UNL     1      -4.040 -12.795  15.059  0.00  0.00    +0.034 A 
ATOM     15  C   UNL     1      -4.028 -11.481  15.406  0.00  0.00    +0.002 A 
ATOM     16  C   UNL     1      -1.735 -12.637  14.190  0.00  0.00    +0.252 A 
ATOM     17  C   UNL     1      -5.111 -13.433  11.657  0.00  0.00    +0.307 C 
ATOM     18  C   UNL     1      -2.843 -10.689  15.134  0.00  0.00    +0.015 A 
ATOM     19  C   UNL     1      -1.760 -11.202  14.552  0.00  0.00    +0.071 A 
ATOM     34  H   UNL     1      -6.309 -11.826  12.216  0.00  0.00    +0.156 HD
ENDROOT
BRANCH  15  20
ATOM     20  C   UNL     1      -5.199 -10.827  16.027  0.00  0.00    -0.016 A 
ATOM     21  C   UNL     1      -5.367 -10.876  17.407  0.00  0.00    +0.012 A 
ATOM     22  C   UNL     1      -6.124 -10.164  15.225  0.00  0.00    +0.012 A 
ATOM     24  C   UNL     1      -6.473 -10.258  17.992  0.00  0.00    +0.046 A 
ATOM     25  C   UNL     1      -7.229  -9.545  15.811  0.00  0.00    +0.046 A 
ATOM     26  C   UNL     1      -7.402  -9.592  17.194  0.00  0.00    +0.120 A 
BRANCH  26   3
ATOM      3  O   UNL     1      -8.481  -8.989  17.766  0.00  0.00    -0.495 OA
ATOM     32  C   UNL     1      -9.402  -8.341  16.890  0.00  0.00    +0.277 C 
ENDBRANCH  26   3
ENDBRANCH  15  20
BRANCH   7  23
ATOM     23  C   UNL     1      -4.897 -11.025  10.963  0.00  0.00    +0.077 A 
ATOM     27  C   UNL     1      -5.603 -10.352   9.968  0.00  0.00    +0.141 A 
ATOM     28  C   UNL     1      -3.591 -10.653  11.273  0.00  0.00    +0.027 A 
ATOM     29  C   UNL     1      -4.997  -9.301   9.279  0.00  0.00    +0.047 A 
ATOM     30  C   UNL     1      -2.986  -9.602  10.583  0.00  0.00    +0.002 A 
ATOM     31  C   UNL     1      -3.690  -8.926   9.586  0.00  0.00    +0.004 A 
BRANCH  27   4
ATOM      4  O   UNL     1      -6.881 -10.702   9.652  0.00  0.00    -0.493 OA
ATOM     33  C   UNL     1      -7.919  -9.824  10.084  0.00  0.00    +0.277 C 
ENDBRANCH  27   4
ENDBRANCH   7  23
TORSDOF 4
ENDMDL
MODEL 4
REMARK VINA RESULT:      -6.3     23.636     26.637
REMARK  Name = 7144114
REMARK  6 active torsions:
REMARK  status: ('A' for Active; 'I' for Inactive)
REMARK    1  A    between atoms: O_3  and  C_26
REMARK    2  A    between atoms: O_3  and  C_32
REMARK    3  A    between atoms: O_4  and  C_27
REMARK    4  A    between atoms: O_4  and  C_33
REMARK    5  A    between atoms: N_7  and  C_23
REMARK    6  A    between atoms: C_15  and  C_20
REMARK                            x       y       z     vdW  Elec       q    Type
REMARK                         _______ _______ _______ _____ _____    ______ ____
ROOT
ATOM      1  O   UNL     1      -1.886 -10.761  16.378  0.00  0.00    -0.268 OA
ATOM      2  O   UNL     1      -4.854 -14.587  15.599  0.00  0.00    -0.252 OA
ATOM      5  N   UNL     1      -3.737 -10.672  14.945  0.00  0.00    -0.311 N 
ATOM      6  N   UNL     1      -5.913 -12.887  14.441  0.00  0.00    -0.284 N 
ATOM      7  N   UNL     1      -4.382 -14.311  13.348  0.00  0.00    -0.266 N 
ATOM      8  C   UNL     1      -6.131 -10.846  15.842  0.00  0.00    +0.027 C 
ATOM      9  C   UNL     1      -5.741 -10.637  13.422  0.00  0.00    +0.054 C 
ATOM     10  C   UNL     1      -6.498 -10.036  14.607  0.00  0.00    +0.018 C 
ATOM     11  C   UNL     1      -4.637 -10.661  16.107  0.00  0.00    +0.130 C 
ATOM     12  C   UNL     1      -6.507 -12.326  15.656  0.00  0.00    +0.114 C 
ATOM     13  C   UNL     1      -6.188 -12.103  13.226  0.00  0.00    +0.119 C 
ATOM     14  C   UNL     1      -4.223 -10.570  13.625  0.00  0.00    +0.034 A 
ATOM     15  C   UNL     1      -3.349 -10.458  12.591  0.00  0.00    +0.002 A 
ATOM     16  C   UNL     1      -2.364 -10.687  15.245  0.00  0.00    +0.252 A 
ATOM     17  C   UNL     1      -5.027 -13.983  14.539  0.00  0.00    +0.307 C 
ATOM     18  C   UNL     1      -1.924 -10.472  12.863  0.00  0.00    +0.015 A 
ATOM     19  C   UNL     1      -1.435 -10.592  14.097  0.00  0.00    +0.071 A 
ATOM     34  H   UNL     1      -4.841 -14.099  12.470  0.00  0.00    +0.156 HD
ENDROOT
BRANCH  15  20
ATOM     20  C   UNL     1      -3.807 -10.351  11.189  0.00  0.00    -0.016 A 
ATOM     21  C   UNL     1      -4.133  -9.106  10.661  0.00  0.00    +0.012 A 
ATOM     22  C   UNL     1      -3.909 -11.498  10.408  0.00  0.00    +0.012 A 
ATOM     24  C   UNL     1      -4.565  -9.007   9.339  0.00  0.00    +0.046 A 
ATOM     25  C   UNL     1      -4.340 -11.399   9.084  0.00  0.00    +0.046 A 
ATOM     26  C   UNL     1      -4.668 -10.152   8.550  0.00  0.00    +0.120 A 
BRANCH  26   3
ATOM      3  O   UNL     1      -5.090 -10.054   7.260  0.00  0.00    -0.495 OA
ATOM     32  C   UNL     1      -5.096 -11.253   6.486  0.00  0.00    +0.277 C 
ENDBRANCH  26   3
ENDBRANCH  15  20
BRANCH   7  23
ATOM     23  C   UNL     1      -3.132 -14.961  13.206  0.00  0.00    +0.077 A 
ATOM     27  C   UNL     1      -3.067 -16.275  12.745  0.00  0.00    +0.141 A 
ATOM     28  C   UNL     1      -1.966 -14.272  13.532  0.00  0.00    +0.027 A 
ATOM     29  C   UNL     1      -1.828 -16.901  12.610  0.00  0.00    +0.047 A 
ATOM     30  C   UNL     1      -0.728 -14.900  13.398  0.00  0.00    +0.002 A 
ATOM     31  C   UNL     1      -0.659 -16.215  12.937  0.00  0.00    +0.004 A 
BRANCH  27   4
ATOM      4  O   UNL     1      -4.197 -16.963  12.421  0.00  0.00    -0.493 OA
ATOM     33  C   UNL     1      -4.399 -17.263  11.041  0.00  0.00    +0.277 C 
ENDBRANCH  27   4
ENDBRANCH   7  23
TORSDOF 4
ENDMDL
MODEL 5
REMARK VINA RESULT:      -6.1     25.606     28.796
REMARK  Name = 7144114
REMARK  6 active torsions:
REMARK  status: ('A' for Active; 'I' for Inactive)
REMARK    1  A    between atoms: O_3  and  C_26
REMARK    2  A    between atoms: O_3  and  C_32
REMARK    3  A    between atoms: O_4  and  C_27
REMARK    4  A    between atoms: O_4  and  C_33
REMARK    5  A    between atoms: N_7  and  C_23
REMARK    6  A    between atoms: C_15  and  C_20
REMARK                            x       y       z     vdW  Elec       q    Type
REMARK                         _______ _______ _______ _____ _____    ______ ____
ROOT
ATOM      1  O   UNL     1     -13.348  12.808  18.057  0.00  0.00    -0.268 OA
ATOM      2  O   UNL     1     -11.819   9.282  15.010  0.00  0.00    -0.252 OA
ATOM      5  N   UNL     1     -12.540  10.738  18.799  0.00  0.00    -0.311 N 
ATOM      6  N   UNL     1     -11.302   8.408  17.088  0.00  0.00    -0.284 N 
ATOM      7  N   UNL     1     -13.363   7.908  16.057  0.00  0.00    -0.266 N 
ATOM      8  C   UNL     1     -10.087  10.069  18.483  0.00  0.00    +0.027 C 
ATOM      9  C   UNL     1     -11.661   8.497  19.537  0.00  0.00    +0.054 C 
ATOM     10  C   UNL     1     -10.316   9.203  19.714  0.00  0.00    +0.018 C 
ATOM     11  C   UNL     1     -11.172  11.145  18.449  0.00  0.00    +0.130 C 
ATOM     12  C   UNL     1     -10.082   9.211  17.205  0.00  0.00    +0.114 C 
ATOM     13  C   UNL     1     -11.599   7.599  18.281  0.00  0.00    +0.119 C 
ATOM     14  C   UNL     1     -12.815   9.499  19.413  0.00  0.00    +0.034 A 
ATOM     15  C   UNL     1     -14.077   9.218  19.833  0.00  0.00    +0.002 A 
ATOM     16  C   UNL     1     -13.534  11.707  18.576  0.00  0.00    +0.252 A 
ATOM     17  C   UNL     1     -12.148   8.584  15.972  0.00  0.00    +0.307 C 
ATOM     18  C   UNL     1     -15.129  10.194  19.617  0.00  0.00    +0.015 A 
ATOM     19  C   UNL     1     -14.904  11.363  19.017  0.00  0.00    +0.071 A 
ATOM     34  H   UNL     1     -13.412   7.060  16.609  0.00  0.00    +0.156 HD
ENDROOT
BRANCH  15  20
ATOM     20  C   UNL     1     -14.417   7.933  20.479  0.00  0.00    -0.016 A 
ATOM     21  C   UNL     1     -13.851   7.605  21.707  0.00  0.00    +0.012 A 
ATOM     22  C   UNL     1     -15.303   7.060  19.854  0.00  0.00    +0.012 A 
ATOM     24  C   UNL     1     -14.172   6.391  22.316  0.00  0.00    +0.046 A 
ATOM     25  C   UNL     1     -15.625   5.846  20.464  0.00  0.00    +0.046 A 
ATOM     26  C   UNL     1     -15.060   5.513  21.695  0.00  0.00    +0.120 A 
BRANCH  26   3
ATOM      3  O   UNL     1     -15.373   4.330  22.290  0.00  0.00    -0.495 OA
ATOM     32  C   UNL     1     -15.342   4.291  23.716  0.00  0.00    +0.277 C 
ENDBRANCH  26   3
ENDBRANCH  15  20
BRANCH   7  23
ATOM     23  C   UNL     1     -14.578   8.251  15.416  0.00  0.00    +0.077 A 
ATOM     27  C   UNL     1     -14.975   7.590  14.255  0.00  0.00    +0.141 A 
ATOM     28  C   UNL     1     -15.372   9.259  15.958  0.00  0.00    +0.027 A 
ATOM     29  C   UNL     1     -16.175   7.940  13.634  0.00  0.00    +0.047 A 
ATOM     30  C   UNL     1     -16.571   9.609  15.336  0.00  0.00    +0.002 A 
ATOM     31  C   UNL     1     -16.972   8.949  14.174  0.00  0.00    +0.004 A 
BRANCH  27   4
ATOM      4  O   UNL     1     -14.211   6.602  13.711  0.00  0.00    -0.493 OA
ATOM     33  C   UNL     1     -14.634   6.074  12.455  0.00  0.00    +0.277 C 
ENDBRANCH  27   4
ENDBRANCH   7  23
TORSDOF 4
ENDMDL
MODEL 6
REMARK VINA RESULT:      -5.9      2.655      6.641
REMARK  Name = 7144114
REMARK  6 active torsions:
REMARK  status: ('A' for Active; 'I' for Inactive)
REMARK    1  A    between atoms: O_3  and  C_26
REMARK    2  A    between atoms: O_3  and  C_32
REMARK    3  A    between atoms: O_4  and  C_27
REMARK    4  A    between atoms: O_4  and  C_33
REMARK    5  A    between atoms: N_7  and  C_23
REMARK    6  A    between atoms: C_15  and  C_20
REMARK                            x       y       z     vdW  Elec       q    Type
REMARK                         _______ _______ _______ _____ _____    ______ ____
ROOT
ATOM      1  O   UNL     1      11.001   7.305  -1.596  0.00  0.00    -0.268 OA
ATOM      2  O   UNL     1      10.425   3.607   1.573  0.00  0.00    -0.252 OA
ATOM      5  N   UNL     1      12.778   6.359  -0.399  0.00  0.00    -0.311 N 
ATOM      6  N   UNL     1      12.723   3.860   1.510  0.00  0.00    -0.284 N 
ATOM      7  N   UNL     1      11.438   4.982   3.139  0.00  0.00    -0.266 N 
ATOM      8  C   UNL     1      13.552   3.955  -0.831  0.00  0.00    +0.027 C 
ATOM      9  C   UNL     1      14.647   5.300   0.913  0.00  0.00    +0.054 C 
ATOM     10  C   UNL     1      14.901   4.454  -0.334  0.00  0.00    +0.018 C 
ATOM     11  C   UNL     1      12.722   5.167  -1.257  0.00  0.00    +0.130 C 
ATOM     12  C   UNL     1      12.846   3.120   0.251  0.00  0.00    +0.114 C 
ATOM     13  C   UNL     1      13.995   4.416   2.000  0.00  0.00    +0.119 C 
ATOM     14  C   UNL     1      13.754   6.508   0.608  0.00  0.00    +0.034 A 
ATOM     15  C   UNL     1      13.846   7.679   1.292  0.00  0.00    +0.002 A 
ATOM     16  C   UNL     1      11.863   7.377  -0.720  0.00  0.00    +0.252 A 
ATOM     17  C   UNL     1      11.443   4.117   2.046  0.00  0.00    +0.307 C 
ATOM     18  C   UNL     1      12.916   8.751   0.988  0.00  0.00    +0.015 A 
ATOM     19  C   UNL     1      11.968   8.630   0.060  0.00  0.00    +0.071 A 
ATOM     34  H   UNL     1      12.260   5.026   3.730  0.00  0.00    +0.156 HD
ENDROOT
BRANCH  15  20
ATOM     20  C   UNL     1      14.849   7.884   2.358  0.00  0.00    -0.016 A 
ATOM     21  C   UNL     1      14.516   7.614   3.682  0.00  0.00    +0.012 A 
ATOM     22  C   UNL     1      16.120   8.345   2.029  0.00  0.00    +0.012 A 
ATOM     24  C   UNL     1      15.464   7.807   4.687  0.00  0.00    +0.046 A 
ATOM     25  C   UNL     1      17.068   8.538   3.035  0.00  0.00    +0.046 A 
ATOM     26  C   UNL     1      16.739   8.268   4.364  0.00  0.00    +0.120 A 
BRANCH  26   3
ATOM      3  O   UNL     1      17.663   8.456   5.345  0.00  0.00    -0.495 OA
ATOM     32  C   UNL     1      19.034   8.286   4.989  0.00  0.00    +0.277 C 
ENDBRANCH  26   3
ENDBRANCH  15  20
BRANCH   7  23
ATOM     23  C   UNL     1      10.375   5.813   3.565  0.00  0.00    +0.077 A 
ATOM     27  C   UNL     1       9.753   5.593   4.793  0.00  0.00    +0.141 A 
ATOM     28  C   UNL     1       9.954   6.855   2.741  0.00  0.00    +0.027 A 
ATOM     29  C   UNL     1       8.706   6.421   5.198  0.00  0.00    +0.047 A 
ATOM     30  C   UNL     1       8.907   7.682   3.148  0.00  0.00    +0.002 A 
ATOM     31  C   UNL     1       8.283   7.464   4.376  0.00  0.00    +0.004 A 
BRANCH  27   4
ATOM      4  O   UNL     1      10.151   4.578   5.611  0.00  0.00    -0.493 OA
ATOM     33  C   UNL     1       9.905   4.738   7.006  0.00  0.00    +0.277 C 
ENDBRANCH  27   4
ENDBRANCH   7  23
TORSDOF 4
ENDMDL
MODEL 7
REMARK VINA RESULT:      -5.7     24.621     27.730
REMARK  Name = 7144114
REMARK  6 active torsions:
REMARK  status: ('A' for Active; 'I' for Inactive)
REMARK    1  A    between atoms: O_3  and  C_26
REMARK    2  A    between atoms: O_3  and  C_32
REMARK    3  A    between atoms: O_4  and  C_27
REMARK    4  A    between atoms: O_4  and  C_33
REMARK    5  A    between atoms: N_7  and  C_23
REMARK    6  A    between atoms: C_15  and  C_20
REMARK                            x       y       z     vdW  Elec       q    Type
REMARK                         _______ _______ _______ _____ _____    ______ ____
ROOT
ATOM      1  O   UNL     1      -3.529 -15.457  15.213  0.00  0.00    -0.268 OA
ATOM      2  O   UNL     1      -2.065 -10.891  16.246  0.00  0.00    -0.252 OA
ATOM      5  N   UNL     1      -3.933 -13.634  13.798  0.00  0.00    -0.311 N 
ATOM      6  N   UNL     1      -2.922 -10.672  14.108  0.00  0.00    -0.284 N 
ATOM      7  N   UNL     1      -4.285 -10.277  15.993  0.00  0.00    -0.266 N 
ATOM      8  C   UNL     1      -2.021 -12.426  12.595  0.00  0.00    +0.027 C 
ATOM      9  C   UNL     1      -4.335 -11.637  12.318  0.00  0.00    +0.054 C 
ATOM     10  C   UNL     1      -3.083 -12.081  11.562  0.00  0.00    +0.018 C 
ATOM     11  C   UNL     1      -2.516 -13.622  13.407  0.00  0.00    +0.130 C 
ATOM     12  C   UNL     1      -1.710 -11.210  13.486  0.00  0.00    +0.114 C 
ATOM     13  C   UNL     1      -4.003 -10.380  13.153  0.00  0.00    +0.119 C 
ATOM     14  C   UNL     1      -4.871 -12.749  13.228  0.00  0.00    +0.034 A 
ATOM     15  C   UNL     1      -6.191 -12.879  13.526  0.00  0.00    +0.002 A 
ATOM     16  C   UNL     1      -4.303 -14.650  14.697  0.00  0.00    +0.252 A 
ATOM     17  C   UNL     1      -3.024 -10.632  15.516  0.00  0.00    +0.307 C 
ATOM     18  C   UNL     1      -6.609 -13.916  14.451  0.00  0.00    +0.015 A 
ATOM     19  C   UNL     1      -5.743 -14.750  15.025  0.00  0.00    +0.071 A 
ATOM     34  H   UNL     1      -4.876  -9.687  15.418  0.00  0.00    +0.156 HD
ENDROOT
BRANCH  15  20
ATOM     20  C   UNL     1      -7.213 -11.975  12.957  0.00  0.00    -0.016 A 
ATOM     21  C   UNL     1      -7.737 -12.232  11.694  0.00  0.00    +0.012 A 
ATOM     22  C   UNL     1      -7.645 -10.874  13.691  0.00  0.00    +0.012 A 
ATOM     24  C   UNL     1      -8.701 -11.377  11.158  0.00  0.00    +0.046 A 
ATOM     25  C   UNL     1      -8.610 -10.020  13.155  0.00  0.00    +0.046 A 
ATOM     26  C   UNL     1      -9.138 -10.273  11.889  0.00  0.00    +0.120 A 
BRANCH  26   3
ATOM      3  O   UNL     1     -10.079  -9.441  11.365  0.00  0.00    -0.495 OA
ATOM     32  C   UNL     1      -9.932  -9.076   9.994  0.00  0.00    +0.277 C 
ENDBRANCH  26   3
ENDBRANCH  15  20
BRANCH   7  23
ATOM     23  C   UNL     1      -4.853 -10.622  17.243  0.00  0.00    +0.077 A 
ATOM     27  C   UNL     1      -6.109 -10.138  17.606  0.00  0.00    +0.141 A 
ATOM     28  C   UNL     1      -4.141 -11.450  18.108  0.00  0.00    +0.027 A 
ATOM     29  C   UNL     1      -6.654 -10.487  18.842  0.00  0.00    +0.047 A 
ATOM     30  C   UNL     1      -4.687 -11.797  19.343  0.00  0.00    +0.002 A 
ATOM     31  C   UNL     1      -5.944 -11.315  19.710  0.00  0.00    +0.004 A 
BRANCH  27   4
ATOM      4  O   UNL     1      -6.819  -9.328  16.773  0.00  0.00    -0.493 OA
ATOM     33  C   UNL     1      -8.209  -9.172  17.051  0.00  0.00    +0.277 C 
ENDBRANCH  27   4
ENDBRANCH   7  23
TORSDOF 4
ENDMDL
MODEL 8
REMARK VINA RESULT:      -5.7     22.084     25.625
REMARK  Name = 7144114
REMARK  6 active torsions:
REMARK  status: ('A' for Active; 'I' for Inactive)
REMARK    1  A    between atoms: O_3  and  C_26
REMARK    2  A    between atoms: O_3  and  C_32
REMARK    3  A    between atoms: O_4  and  C_27
REMARK    4  A    between atoms: O_4  and  C_33
REMARK    5  A    between atoms: N_7  and  C_23
REMARK    6  A    between atoms: C_15  and  C_20
REMARK                            x       y       z     vdW  Elec       q    Type
REMARK                         _______ _______ _______ _____ _____    ______ ____
ROOT
ATOM      1  O   UNL     1      19.558  -4.720  21.357  0.00  0.00    -0.268 OA
ATOM      2  O   UNL     1      20.732  -1.313  24.685  0.00  0.00    -0.252 OA
ATOM      5  N   UNL     1      18.133  -4.101  23.111  0.00  0.00    -0.311 N 
ATOM      6  N   UNL     1      18.540  -1.813  25.230  0.00  0.00    -0.284 N 
ATOM      7  N   UNL     1      20.324  -2.941  26.283  0.00  0.00    -0.266 N 
ATOM      8  C   UNL     1      17.081  -1.767  23.218  0.00  0.00    +0.027 C 
ATOM      9  C   UNL     1      16.645  -3.393  25.013  0.00  0.00    +0.054 C 
ATOM     10  C   UNL     1      15.977  -2.460  24.003  0.00  0.00    +0.018 C 
ATOM     11  C   UNL     1      17.845  -2.831  22.430  0.00  0.00    +0.130 C 
ATOM     12  C   UNL     1      18.002  -0.970  24.159  0.00  0.00    +0.114 C 
ATOM     13  C   UNL     1      17.511  -2.553  25.979  0.00  0.00    +0.119 C 
ATOM     14  C   UNL     1      17.504  -4.457  24.322  0.00  0.00    +0.034 A 
ATOM     15  C   UNL     1      17.705  -5.693  24.850  0.00  0.00    +0.002 A 
ATOM     16  C   UNL     1      18.994  -4.974  22.422  0.00  0.00    +0.252 A 
ATOM     17  C   UNL     1      19.937  -1.977  25.353  0.00  0.00    +0.307 C 
ATOM     18  C   UNL     1      18.589  -6.619  24.167  0.00  0.00    +0.015 A 
ATOM     19  C   UNL     1      19.217  -6.302  23.035  0.00  0.00    +0.071 A 
ATOM     34  H   UNL     1      19.714  -3.134  27.068  0.00  0.00    +0.156 HD
ENDROOT
BRANCH  15  20
ATOM     20  C   UNL     1      17.072  -6.113  26.118  0.00  0.00    -0.016 A 
ATOM     21  C   UNL     1      15.838  -6.757  26.094  0.00  0.00    +0.012 A 
ATOM     22  C   UNL     1      17.715  -5.862  27.326  0.00  0.00    +0.012 A 
ATOM     24  C   UNL     1      15.242  -7.153  27.292  0.00  0.00    +0.046 A 
ATOM     25  C   UNL     1      17.118  -6.259  28.524  0.00  0.00    +0.046 A 
ATOM     26  C   UNL     1      15.882  -6.905  28.505  0.00  0.00    +0.120 A 
BRANCH  26   3
ATOM      3  O   UNL     1      15.298  -7.292  29.673  0.00  0.00    -0.495 OA
ATOM     32  C   UNL     1      14.075  -6.651  30.031  0.00  0.00    +0.277 C 
ENDBRANCH  26   3
ENDBRANCH  15  20
BRANCH   7  23
ATOM     23  C   UNL     1      21.527  -3.687  26.288  0.00  0.00    +0.077 A 
ATOM     27  C   UNL     1      22.607  -3.281  27.070  0.00  0.00    +0.141 A 
ATOM     28  C   UNL     1      21.621  -4.832  25.500  0.00  0.00    +0.027 A 
ATOM     29  C   UNL     1      23.786  -4.027  27.064  0.00  0.00    +0.047 A 
ATOM     30  C   UNL     1      22.801  -5.576  25.495  0.00  0.00    +0.002 A 
ATOM     31  C   UNL     1      23.883  -5.173  26.277  0.00  0.00    +0.004 A 
BRANCH  27   4
ATOM      4  O   UNL     1      22.533  -2.164  27.846  0.00  0.00    -0.493 OA
ATOM     33  C   UNL     1      23.201  -0.998  27.368  0.00  0.00    +0.277 C 
ENDBRANCH  27   4
ENDBRANCH   7  23
TORSDOF 4
ENDMDL
MODEL 9
REMARK VINA RESULT:      -5.6     19.047     21.994
REMARK  Name = 7144114
REMARK  6 active torsions:
REMARK  status: ('A' for Active; 'I' for Inactive)
REMARK    1  A    between atoms: O_3  and  C_26
REMARK    2  A    between atoms: O_3  and  C_32
REMARK    3  A    between atoms: O_4  and  C_27
REMARK    4  A    between atoms: O_4  and  C_33
REMARK    5  A    between atoms: N_7  and  C_23
REMARK    6  A    between atoms: C_15  and  C_20
REMARK                            x       y       z     vdW  Elec       q    Type
REMARK                         _______ _______ _______ _____ _____    ______ ____
ROOT
ATOM      1  O   UNL     1      17.970 -17.420   2.311  0.00  0.00    -0.268 OA
ATOM      2  O   UNL     1      15.595 -13.487   0.596  0.00  0.00    -0.252 OA
ATOM      5  N   UNL     1      17.791 -15.413   3.506  0.00  0.00    -0.311 N 
ATOM      6  N   UNL     1      16.154 -12.838   2.745  0.00  0.00    -0.284 N 
ATOM      7  N   UNL     1      17.573 -12.327   0.931  0.00  0.00    -0.266 N 
ATOM      8  C   UNL     1      15.537 -14.586   4.400  0.00  0.00    +0.027 C 
ATOM      9  C   UNL     1      17.563 -13.233   4.743  0.00  0.00    +0.054 C 
ATOM     10  C   UNL     1      16.378 -13.884   5.456  0.00  0.00    +0.018 C 
ATOM     11  C   UNL     1      16.378 -15.706   3.787  0.00  0.00    +0.130 C 
ATOM     12  C   UNL     1      15.044 -13.585   3.340  0.00  0.00    +0.114 C 
ATOM     13  C   UNL     1      17.034 -12.191   3.732  0.00  0.00    +0.119 C 
ATOM     14  C   UNL     1      18.433 -14.271   4.025  0.00  0.00    +0.034 A 
ATOM     15  C   UNL     1      19.770 -14.106   3.844  0.00  0.00    +0.002 A 
ATOM     16  C   UNL     1      18.478 -16.399   2.775  0.00  0.00    +0.252 A 
ATOM     17  C   UNL     1      16.387 -12.925   1.355  0.00  0.00    +0.307 C 
ATOM     18  C   UNL     1      20.511 -15.103   3.093  0.00  0.00    +0.015 A 
ATOM     19  C   UNL     1      19.926 -16.180   2.569  0.00  0.00    +0.071 A 
ATOM     34  H   UNL     1      17.947 -11.553   1.466  0.00  0.00    +0.156 HD
ENDROOT
BRANCH  15  20
ATOM     20  C   UNL     1      20.489 -12.925   4.366  0.00  0.00    -0.016 A 
ATOM     21  C   UNL     1      20.918 -12.905   5.690  0.00  0.00    +0.012 A 
ATOM     22  C   UNL     1      20.734 -11.841   3.528  0.00  0.00    +0.012 A 
ATOM     24  C   UNL     1      21.596 -11.789   6.181  0.00  0.00    +0.046 A 
ATOM     25  C   UNL     1      21.414 -10.726   4.020  0.00  0.00    +0.046 A 
ATOM     26  C   UNL     1      21.845 -10.701   5.346  0.00  0.00    +0.120 A 
BRANCH  26   3
ATOM      3  O   UNL     1      22.507  -9.613   5.826  0.00  0.00    -0.495 OA
ATOM     32  C   UNL     1      22.029  -8.331   5.422  0.00  0.00    +0.277 C 
ENDBRANCH  26   3
ENDBRANCH  15  20
BRANCH   7  23
ATOM     23  C   UNL     1      18.330 -12.654  -0.220  0.00  0.00    +0.077 A 
ATOM     27  C   UNL     1      18.409 -11.765  -1.290  0.00  0.00    +0.141 A 
ATOM     28  C   UNL     1      18.995 -13.877  -0.271  0.00  0.00    +0.027 A 
ATOM     29  C   UNL     1      19.159 -12.102  -2.417  0.00  0.00    +0.047 A 
ATOM     30  C   UNL     1      19.744 -14.213  -1.398  0.00  0.00    +0.002 A 
ATOM     31  C   UNL     1      19.826 -13.326  -2.472  0.00  0.00    +0.004 A 
BRANCH  27   4
ATOM      4  O   UNL     1      17.765 -10.565  -1.257  0.00  0.00    -0.493 OA
ATOM     33  C   UNL     1      17.666  -9.849  -2.487  0.00  0.00    +0.277 C 
ENDBRANCH  27   4
ENDBRANCH   7  23
TORSDOF 4
ENDMDL
MODEL 10
REMARK VINA RESULT:      -5.5     34.716     37.805
REMARK  Name = 7144114
REMARK  6 active torsions:
REMARK  status: ('A' for Active; 'I' for Inactive)
REMARK    1  A    between atoms: O_3  and  C_26
REMARK    2  A    between atoms: O_3  and  C_32
REMARK    3  A    between atoms: O_4  and  C_27
REMARK    4  A    between atoms: O_4  and  C_33
REMARK    5  A    between atoms: N_7  and  C_23
REMARK    6  A    between atoms: C_15  and  C_20
REMARK                            x       y       z     vdW  Elec       q    Type
REMARK                         _______ _______ _______ _____ _____    ______ ____
ROOT
ATOM      1  O   UNL     1      -5.282   9.978  36.697  0.00  0.00    -0.268 OA
ATOM      2  O   UNL     1      -2.770  13.062  39.567  0.00  0.00    -0.252 OA
ATOM      5  N   UNL     1      -4.377   9.351  38.765  0.00  0.00    -0.311 N 
ATOM      6  N   UNL     1      -2.929  11.167  40.885  0.00  0.00    -0.284 N 
ATOM      7  N   UNL     1      -1.055  11.505  39.493  0.00  0.00    -0.266 N 
ATOM      8  C   UNL     1      -5.266  10.322  40.963  0.00  0.00    +0.027 C 
ATOM      9  C   UNL     1      -3.385   8.735  40.995  0.00  0.00    +0.054 C 
ATOM     10  C   UNL     1      -4.773   9.016  41.570  0.00  0.00    +0.018 C 
ATOM     11  C   UNL     1      -5.423  10.118  39.456  0.00  0.00    +0.130 C 
ATOM     12  C   UNL     1      -4.302  11.475  41.294  0.00  0.00    +0.114 C 
ATOM     13  C   UNL     1      -2.430   9.881  41.398  0.00  0.00    +0.119 C 
ATOM     14  C   UNL     1      -3.421   8.590  39.469  0.00  0.00    +0.034 A 
ATOM     15  C   UNL     1      -2.553   7.797  38.788  0.00  0.00    +0.002 A 
ATOM     16  C   UNL     1      -4.461   9.345  37.361  0.00  0.00    +0.252 A 
ATOM     17  C   UNL     1      -2.279  11.995  39.944  0.00  0.00    +0.307 C 
ATOM     18  C   UNL     1      -2.609   7.769  37.338  0.00  0.00    +0.015 A 
ATOM     19  C   UNL     1      -3.484   8.495  36.644  0.00  0.00    +0.071 A 
ATOM     34  H   UNL     1      -0.517  10.900  40.103  0.00  0.00    +0.156 HD
ENDROOT
BRANCH  15  20
ATOM     20  C   UNL     1      -1.531   6.984  39.480  0.00  0.00    -0.016 A 
ATOM     21  C   UNL     1      -1.825   5.676  39.854  0.00  0.00    +0.012 A 
ATOM     22  C   UNL     1      -0.280   7.531  39.750  0.00  0.00    +0.012 A 
ATOM     24  C   UNL     1      -0.860   4.909  40.507  0.00  0.00    +0.046 A 
ATOM     25  C   UNL     1       0.686   6.764  40.402  0.00  0.00    +0.046 A 
ATOM     26  C   UNL     1       0.395   5.453  40.780  0.00  0.00    +0.120 A 
BRANCH  26   3
ATOM      3  O   UNL     1       1.336   4.703  41.417  0.00  0.00    -0.495 OA
ATOM     32  C   UNL     1       2.688   5.155  41.339  0.00  0.00    +0.277 C 
ENDBRANCH  26   3
ENDBRANCH  15  20
BRANCH   7  23
ATOM     23  C   UNL     1      -0.428  11.785  38.256  0.00  0.00    +0.077 A 
ATOM     27  C   UNL     1       0.405  12.895  38.120  0.00  0.00    +0.141 A 
ATOM     28  C   UNL     1      -0.652  10.938  37.172  0.00  0.00    +0.027 A 
ATOM     29  C   UNL     1       1.016  13.157  36.894  0.00  0.00    +0.047 A 
ATOM     30  C   UNL     1      -0.041  11.203  35.946  0.00  0.00    +0.002 A 
ATOM     31  C   UNL     1       0.793  12.312  35.808  0.00  0.00    +0.004 A 
BRANCH  27   4
ATOM      4  O   UNL     1       0.636  13.733  39.169  0.00  0.00    -0.493 OA
ATOM     33  C   UNL     1       0.157  15.070  39.047  0.00  0.00    +0.277 C 
ENDBRANCH  27   4
ENDBRANCH   7  23
TORSDOF 4
ENDMDL
