MODEL 1
REMARK VINA RESULT:      -7.8      0.000      0.000
REMARK  Name = 11885207
REMARK  5 active torsions:
REMARK  status: ('A' for Active; 'I' for Inactive)
REMARK    1  A    between atoms: S_1  and  C_30
REMARK    2  A    between atoms: S_1  and  C_32
REMARK    3  A    between atoms: C_16  and  C_19
REMARK    4  A    between atoms: C_17  and  C_20
REMARK    5  A    between atoms: C_29  and  C_31
REMARK                            x       y       z     vdW  Elec       q    Type
REMARK                         _______ _______ _______ _____ _____    ______ ____
ROOT
ATOM      2  O   UNL     1      15.255   6.217  21.654  0.00  0.00    -0.267 OA
ATOM      3  O   UNL     1      11.953   7.263  17.904  0.00  0.00    -0.270 OA
ATOM      4  N   UNL     1      11.654   8.911  19.537  0.00  0.00    -0.297 N 
ATOM      5  N   UNL     1      13.913   8.123  21.599  0.00  0.00    -0.311 N 
ATOM      7  C   UNL     1      11.363   8.019  21.840  0.00  0.00    +0.027 C 
ATOM      8  C   UNL     1      12.476  10.190  21.500  0.00  0.00    +0.054 C 
ATOM      9  C   UNL     1      11.499   9.432  22.398  0.00  0.00    +0.018 C 
ATOM     10  C   UNL     1      10.828   8.061  20.397  0.00  0.00    +0.113 C 
ATOM     11  C   UNL     1      12.725   7.320  21.931  0.00  0.00    +0.130 C 
ATOM     12  C   UNL     1      11.912  10.260  20.065  0.00  0.00    +0.117 C 
ATOM     13  C   UNL     1      13.833   9.512  21.476  0.00  0.00    +0.027 A 
ATOM     14  C   UNL     1      14.948  10.238  21.296  0.00  0.00    +0.022 A 
ATOM     15  C   UNL     1      15.138   7.436  21.518  0.00  0.00    +0.259 A 
ATOM     16  C   UNL     1      12.167   8.390  18.347  0.00  0.00    +0.247 C 
ATOM     17  C   UNL     1      16.365   8.273  21.266  0.00  0.00    +0.047 A 
ATOM     18  C   UNL     1      16.230   9.605  21.184  0.00  0.00    +0.015 A 
ENDROOT
BRANCH  16  19
ATOM     19  C   UNL     1      13.063   9.237  17.553  0.00  0.00    +0.037 A 
ATOM     21  C   UNL     1      14.284   9.644  18.084  0.00  0.00    +0.014 A 
ATOM     22  C   UNL     1      12.687   9.632  16.271  0.00  0.00    +0.014 A 
ATOM     25  C   UNL     1      15.137  10.449  17.328  0.00  0.00    +0.019 A 
ATOM     26  C   UNL     1      13.540  10.438  15.515  0.00  0.00    +0.019 A 
ATOM     29  C   UNL     1      14.764  10.846  16.044  0.00  0.00    +0.052 A 
BRANCH  29  31
ATOM      6  N   UNL     1      16.345  12.345  14.642  0.00  0.00    -0.191 NA
ATOM     31  C   UNL     1      15.636  11.673  15.271  0.00  0.00    +0.099 C 
ENDBRANCH  29  31
ENDBRANCH  16  19
BRANCH  17  20
ATOM     20  C   UNL     1      17.689   7.652  21.095  0.00  0.00    -0.013 A 
ATOM     23  C   UNL     1      17.827   6.508  20.307  0.00  0.00    +0.010 A 
ATOM     24  C   UNL     1      18.806   8.204  21.722  0.00  0.00    +0.010 A 
ATOM     27  C   UNL     1      19.082   5.920  20.145  0.00  0.00    +0.015 A 
ATOM     28  C   UNL     1      20.060   7.615  21.560  0.00  0.00    +0.015 A 
ATOM     30  C   UNL     1      20.197   6.474  20.772  0.00  0.00    +0.008 A 
BRANCH  30   1
ATOM      1  S   UNL     1      21.799   5.720  20.567  0.00  0.00    -0.129 S 
ATOM     32  C   UNL     1      21.455   3.993  21.011  0.00  0.00    +0.090 C 
ENDBRANCH  30   1
ENDBRANCH  17  20
TORSDOF 4
ENDMDL
MODEL 2
REMARK VINA RESULT:      -7.6     25.877     28.507
REMARK  Name = 11885207
REMARK  5 active torsions:
REMARK  status: ('A' for Active; 'I' for Inactive)
REMARK    1  A    between atoms: S_1  and  C_30
REMARK    2  A    between atoms: S_1  and  C_32
REMARK    3  A    between atoms: C_16  and  C_19
REMARK    4  A    between atoms: C_17  and  C_20
REMARK    5  A    between atoms: C_29  and  C_31
REMARK                            x       y       z     vdW  Elec       q    Type
REMARK                         _______ _______ _______ _____ _____    ______ ____
ROOT
ATOM      2  O   UNL     1     -12.703  10.285  20.486  0.00  0.00    -0.267 OA
ATOM      3  O   UNL     1     -14.317  12.239  16.055  0.00  0.00    -0.270 OA
ATOM      4  N   UNL     1     -12.000  11.978  15.866  0.00  0.00    -0.297 N 
ATOM      5  N   UNL     1     -11.328  10.607  18.631  0.00  0.00    -0.311 N 
ATOM      7  C   UNL     1     -10.710  12.938  17.763  0.00  0.00    +0.027 C 
ATOM      8  C   UNL     1      -9.870  10.935  16.602  0.00  0.00    +0.054 C 
ATOM      9  C   UNL     1      -9.448  12.256  17.243  0.00  0.00    +0.018 C 
ATOM     10  C   UNL     1     -11.693  13.202  16.607  0.00  0.00    +0.113 C 
ATOM     11  C   UNL     1     -11.329  12.061  18.858  0.00  0.00    +0.130 C 
ATOM     12  C   UNL     1     -10.824  11.213  15.421  0.00  0.00    +0.117 C 
ATOM     13  C   UNL     1     -10.563  10.037  17.610  0.00  0.00    +0.027 A 
ATOM     14  C   UNL     1     -10.478   8.702  17.497  0.00  0.00    +0.022 A 
ATOM     15  C   UNL     1     -12.045   9.822  19.553  0.00  0.00    +0.259 A 
ATOM     16  C   UNL     1     -13.332  11.602  15.684  0.00  0.00    +0.247 C 
ATOM     17  C   UNL     1     -11.969   8.329  19.370  0.00  0.00    +0.047 A 
ATOM     18  C   UNL     1     -11.198   7.839  18.389  0.00  0.00    +0.015 A 
ENDROOT
BRANCH  16  19
ATOM     19  C   UNL     1     -13.604  10.325  15.015  0.00  0.00    +0.037 A 
ATOM     21  C   UNL     1     -13.725   9.160  15.768  0.00  0.00    +0.014 A 
ATOM     22  C   UNL     1     -13.737  10.283  13.629  0.00  0.00    +0.014 A 
ATOM     25  C   UNL     1     -13.984   7.946  15.132  0.00  0.00    +0.019 A 
ATOM     26  C   UNL     1     -13.996   9.069  12.993  0.00  0.00    +0.019 A 
ATOM     29  C   UNL     1     -14.119   7.901  13.744  0.00  0.00    +0.052 A 
BRANCH  29  31
ATOM      6  N   UNL     1     -14.595   5.645  12.562  0.00  0.00    -0.191 NA
ATOM     31  C   UNL     1     -14.381   6.657  13.092  0.00  0.00    +0.099 C 
ENDBRANCH  29  31
ENDBRANCH  16  19
BRANCH  17  20
ATOM     20  C   UNL     1     -12.735   7.416  20.235  0.00  0.00    -0.013 A 
ATOM     23  C   UNL     1     -12.067   6.543  21.094  0.00  0.00    +0.010 A 
ATOM     24  C   UNL     1     -14.129   7.422  20.196  0.00  0.00    +0.010 A 
ATOM     27  C   UNL     1     -12.792   5.677  21.913  0.00  0.00    +0.015 A 
ATOM     28  C   UNL     1     -14.855   6.556  21.014  0.00  0.00    +0.015 A 
ATOM     30  C   UNL     1     -14.186   5.685  21.873  0.00  0.00    +0.008 A 
BRANCH  30   1
ATOM      1  S   UNL     1     -15.112   4.577  22.917  0.00  0.00    -0.129 S 
ATOM     32  C   UNL     1     -16.419   5.670  23.548  0.00  0.00    +0.090 C 
ENDBRANCH  30   1
ENDBRANCH  17  20
TORSDOF 4
ENDMDL
MODEL 3
REMARK VINA RESULT:      -7.4      4.412      7.462
REMARK  Name = 11885207
REMARK  5 active torsions:
REMARK  status: ('A' for Active; 'I' for Inactive)
REMARK    1  A    between atoms: S_1  and  C_30
REMARK    2  A    between atoms: S_1  and  C_32
REMARK    3  A    between atoms: C_16  and  C_19
REMARK    4  A    between atoms: C_17  and  C_20
REMARK    5  A    between atoms: C_29  and  C_31
REMARK                            x       y       z     vdW  Elec       q    Type
REMARK                         _______ _______ _______ _____ _____    ______ ____
ROOT
ATOM      2  O   UNL     1      10.731  10.160  23.173  0.00  0.00    -0.267 OA
ATOM      3  O   UNL     1      14.769   7.166  22.287  0.00  0.00    -0.270 OA
ATOM      4  N   UNL     1      14.088   8.002  20.211  0.00  0.00    -0.297 N 
ATOM      5  N   UNL     1      11.739   9.925  21.084  0.00  0.00    -0.311 N 
ATOM      7  C   UNL     1      11.658   7.734  19.755  0.00  0.00    +0.027 C 
ATOM      8  C   UNL     1      12.867   9.678  18.845  0.00  0.00    +0.054 C 
ATOM      9  C   UNL     1      11.794   8.636  18.532  0.00  0.00    +0.018 C 
ATOM     10  C   UNL     1      12.997   7.038  20.060  0.00  0.00    +0.113 C 
ATOM     11  C   UNL     1      11.164   8.579  20.937  0.00  0.00    +0.130 C 
ATOM     12  C   UNL     1      14.213   8.971  19.111  0.00  0.00    +0.117 C 
ATOM     13  C   UNL     1      12.484  10.508  20.057  0.00  0.00    +0.027 A 
ATOM     14  C   UNL     1      12.895  11.781  20.161  0.00  0.00    +0.022 A 
ATOM     15  C   UNL     1      11.413  10.627  22.260  0.00  0.00    +0.259 A 
ATOM     16  C   UNL     1      14.872   7.975  21.366  0.00  0.00    +0.247 C 
ATOM     17  C   UNL     1      11.930  12.037  22.368  0.00  0.00    +0.047 A 
ATOM     18  C   UNL     1      12.617  12.552  21.338  0.00  0.00    +0.015 A 
ENDROOT
BRANCH  16  19
ATOM     19  C   UNL     1      15.899   9.010  21.527  0.00  0.00    +0.037 A 
ATOM     21  C   UNL     1      17.194   8.779  21.072  0.00  0.00    +0.014 A 
ATOM     22  C   UNL     1      15.573  10.220  22.135  0.00  0.00    +0.014 A 
ATOM     25  C   UNL     1      18.170   9.764  21.224  0.00  0.00    +0.019 A 
ATOM     26  C   UNL     1      16.548  11.206  22.288  0.00  0.00    +0.019 A 
ATOM     29  C   UNL     1      17.846  10.977  21.833  0.00  0.00    +0.052 A 
BRANCH  29  31
ATOM      6  N   UNL     1      19.660  12.805  22.120  0.00  0.00    -0.191 NA
ATOM     31  C   UNL     1      18.846  11.985  21.991  0.00  0.00    +0.099 C 
ENDBRANCH  29  31
ENDBRANCH  16  19
BRANCH  17  20
ATOM     20  C   UNL     1      11.706  12.839  23.583  0.00  0.00    -0.013 A 
ATOM     23  C   UNL     1      10.592  13.674  23.673  0.00  0.00    +0.010 A 
ATOM     24  C   UNL     1      12.608  12.765  24.644  0.00  0.00    +0.010 A 
ATOM     27  C   UNL     1      10.380  14.434  24.823  0.00  0.00    +0.015 A 
ATOM     28  C   UNL     1      12.397  13.526  25.794  0.00  0.00    +0.015 A 
ATOM     30  C   UNL     1      11.283  14.359  25.883  0.00  0.00    +0.008 A 
BRANCH  30   1
ATOM      1  S   UNL     1      11.013  15.332  27.352  0.00  0.00    -0.129 S 
ATOM     32  C   UNL     1      12.682  15.395  28.065  0.00  0.00    +0.090 C 
ENDBRANCH  30   1
ENDBRANCH  17  20
TORSDOF 4
ENDMDL
MODEL 4
REMARK VINA RESULT:      -7.2      3.827      6.629
REMARK  Name = 11885207
REMARK  5 active torsions:
REMARK  status: ('A' for Active; 'I' for Inactive)
REMARK    1  A    between atoms: S_1  and  C_30
REMARK    2  A    between atoms: S_1  and  C_32
REMARK    3  A    between atoms: C_16  and  C_19
REMARK    4  A    between atoms: C_17  and  C_20
REMARK    5  A    between atoms: C_29  and  C_31
REMARK                            x       y       z     vdW  Elec       q    Type
REMARK                         _______ _______ _______ _____ _____    ______ ____
ROOT
ATOM      2  O   UNL     1      11.660  10.503  22.244  0.00  0.00    -0.267 OA
ATOM      3  O   UNL     1      13.944   6.152  20.866  0.00  0.00    -0.270 OA
ATOM      4  N   UNL     1      13.964   7.542  18.984  0.00  0.00    -0.297 N 
ATOM      5  N   UNL     1      12.677  10.170  20.172  0.00  0.00    -0.311 N 
ATOM      7  C   UNL     1      11.752   8.534  18.430  0.00  0.00    +0.027 C 
ATOM      8  C   UNL     1      13.813   9.796  17.955  0.00  0.00    +0.054 C 
ATOM      9  C   UNL     1      12.425   9.453  17.416  0.00  0.00    +0.018 C 
ATOM     10  C   UNL     1      12.577   7.248  18.619  0.00  0.00    +0.113 C 
ATOM     11  C   UNL     1      11.569   9.302  19.746  0.00  0.00    +0.130 C 
ATOM     12  C   UNL     1      14.643   8.504  18.103  0.00  0.00    +0.117 C 
ATOM     13  C   UNL     1      13.719  10.494  19.299  0.00  0.00    +0.027 A 
ATOM     14  C   UNL     1      14.654  11.384  19.665  0.00  0.00    +0.022 A 
ATOM     15  C   UNL     1      12.579  10.737  21.457  0.00  0.00    +0.259 A 
ATOM     16  C   UNL     1      14.511   6.956  20.128  0.00  0.00    +0.247 C 
ATOM     17  C   UNL     1      13.669  11.695  21.857  0.00  0.00    +0.047 A 
ATOM     18  C   UNL     1      14.628  11.988  20.966  0.00  0.00    +0.015 A 
ENDROOT
BRANCH  16  19
ATOM     19  C   UNL     1      15.873   7.340  20.515  0.00  0.00    +0.037 A 
ATOM     21  C   UNL     1      16.953   6.552  20.126  0.00  0.00    +0.014 A 
ATOM     22  C   UNL     1      16.078   8.492  21.272  0.00  0.00    +0.014 A 
ATOM     25  C   UNL     1      18.247   6.919  20.495  0.00  0.00    +0.019 A 
ATOM     26  C   UNL     1      17.373   8.858  21.640  0.00  0.00    +0.019 A 
ATOM     29  C   UNL     1      18.457   8.072  21.252  0.00  0.00    +0.052 A 
BRANCH  29  31
ATOM      6  N   UNL     1      20.861   8.750  21.939  0.00  0.00    -0.191 NA
ATOM     31  C   UNL     1      19.783   8.446  21.631  0.00  0.00    +0.099 C 
ENDBRANCH  29  31
ENDBRANCH  16  19
BRANCH  17  20
ATOM     20  C   UNL     1      13.702  12.293  23.202  0.00  0.00    -0.013 A 
ATOM     23  C   UNL     1      13.071  13.515  23.439  0.00  0.00    +0.010 A 
ATOM     24  C   UNL     1      14.366  11.640  24.241  0.00  0.00    +0.010 A 
ATOM     27  C   UNL     1      13.102  14.082  24.714  0.00  0.00    +0.015 A 
ATOM     28  C   UNL     1      14.398  12.208  25.515  0.00  0.00    +0.015 A 
ATOM     30  C   UNL     1      13.765  13.427  25.751  0.00  0.00    +0.008 A 
BRANCH  30   1
ATOM      1  S   UNL     1      13.808  14.153  27.378  0.00  0.00    -0.129 S 
ATOM     32  C   UNL     1      14.724  12.898  28.319  0.00  0.00    +0.090 C 
ENDBRANCH  30   1
ENDBRANCH  17  20
TORSDOF 4
ENDMDL
MODEL 5
REMARK VINA RESULT:      -7.0     11.285     14.467
REMARK  Name = 11885207
REMARK  5 active torsions:
REMARK  status: ('A' for Active; 'I' for Inactive)
REMARK    1  A    between atoms: S_1  and  C_30
REMARK    2  A    between atoms: S_1  and  C_32
REMARK    3  A    between atoms: C_16  and  C_19
REMARK    4  A    between atoms: C_17  and  C_20
REMARK    5  A    between atoms: C_29  and  C_31
REMARK                            x       y       z     vdW  Elec       q    Type
REMARK                         _______ _______ _______ _____ _____    ______ ____
ROOT
ATOM      2  O   UNL     1      12.687   7.851   3.522  0.00  0.00    -0.267 OA
ATOM      3  O   UNL     1       8.965  10.854   5.307  0.00  0.00    -0.270 OA
ATOM      4  N   UNL     1       8.596   8.726   6.206  0.00  0.00    -0.297 N 
ATOM      5  N   UNL     1      11.109   7.167   5.096  0.00  0.00    -0.311 N 
ATOM      7  C   UNL     1       8.624   6.893   4.526  0.00  0.00    +0.027 C 
ATOM      8  C   UNL     1       9.412   6.463   6.820  0.00  0.00    +0.054 C 
ATOM      9  C   UNL     1       8.624   5.867   5.655  0.00  0.00    +0.018 C 
ATOM     10  C   UNL     1       7.966   8.204   4.993  0.00  0.00    +0.113 C 
ATOM     11  C   UNL     1      10.069   7.108   4.057  0.00  0.00    +0.130 C 
ATOM     12  C   UNL     1       8.721   7.755   7.305  0.00  0.00    +0.117 C 
ATOM     13  C   UNL     1      10.839   6.776   6.410  0.00  0.00    +0.027 A 
ATOM     14  C   UNL     1      11.830   6.720   7.313  0.00  0.00    +0.022 A 
ATOM     15  C   UNL     1      12.401   7.533   4.678  0.00  0.00    +0.259 A 
ATOM     16  C   UNL     1       9.067  10.041   6.223  0.00  0.00    +0.247 C 
ATOM     17  C   UNL     1      13.482   7.507   5.725  0.00  0.00    +0.047 A 
ATOM     18  C   UNL     1      13.169   7.097   6.964  0.00  0.00    +0.015 A 
ENDROOT
BRANCH  16  19
ATOM     19  C   UNL     1       9.774  10.505   7.423  0.00  0.00    +0.037 A 
ATOM     21  C   UNL     1      11.161  10.401   7.494  0.00  0.00    +0.014 A 
ATOM     22  C   UNL     1       9.053  11.046   8.485  0.00  0.00    +0.014 A 
ATOM     25  C   UNL     1      11.832  10.843   8.634  0.00  0.00    +0.019 A 
ATOM     26  C   UNL     1       9.725  11.488   9.625  0.00  0.00    +0.019 A 
ATOM     29  C   UNL     1      11.113  11.387   9.700  0.00  0.00    +0.052 A 
BRANCH  29  31
ATOM      6  N   UNL     1      12.360  12.203  11.819  0.00  0.00    -0.191 NA
ATOM     31  C   UNL     1      11.801  11.837  10.868  0.00  0.00    +0.099 C 
ENDBRANCH  29  31
ENDBRANCH  16  19
BRANCH  17  20
ATOM     20  C   UNL     1      14.856   7.936   5.414  0.00  0.00    -0.013 A 
ATOM     23  C   UNL     1      15.440   8.982   6.130  0.00  0.00    +0.010 A 
ATOM     24  C   UNL     1      15.575   7.299   4.403  0.00  0.00    +0.010 A 
ATOM     27  C   UNL     1      16.741   9.389   5.836  0.00  0.00    +0.015 A 
ATOM     28  C   UNL     1      16.876   7.706   4.107  0.00  0.00    +0.015 A 
ATOM     30  C   UNL     1      17.459   8.750   4.824  0.00  0.00    +0.008 A 
BRANCH  30   1
ATOM      1  S   UNL     1      19.120   9.272   4.446  0.00  0.00    -0.129 S 
ATOM     32  C   UNL     1      19.900   7.703   3.966  0.00  0.00    +0.090 C 
ENDBRANCH  30   1
ENDBRANCH  17  20
TORSDOF 4
ENDMDL
MODEL 6
REMARK VINA RESULT:      -7.0     21.673     24.848
REMARK  Name = 11885207
REMARK  5 active torsions:
REMARK  status: ('A' for Active; 'I' for Inactive)
REMARK    1  A    between atoms: S_1  and  C_30
REMARK    2  A    between atoms: S_1  and  C_32
REMARK    3  A    between atoms: C_16  and  C_19
REMARK    4  A    between atoms: C_17  and  C_20
REMARK    5  A    between atoms: C_29  and  C_31
REMARK                            x       y       z     vdW  Elec       q    Type
REMARK                         _______ _______ _______ _____ _____    ______ ____
ROOT
ATOM      2  O   UNL     1       9.589  -9.812  32.156  0.00  0.00    -0.267 OA
ATOM      3  O   UNL     1       8.506  -9.063  37.088  0.00  0.00    -0.270 OA
ATOM      4  N   UNL     1       8.091  -7.035  35.997  0.00  0.00    -0.297 N 
ATOM      5  N   UNL     1       8.660  -7.845  32.997  0.00  0.00    -0.311 N 
ATOM      7  C   UNL     1       9.955  -6.263  34.543  0.00  0.00    +0.027 C 
ATOM      8  C   UNL     1       7.627  -5.744  33.927  0.00  0.00    +0.054 C 
ATOM      9  C   UNL     1       9.047  -5.182  33.964  0.00  0.00    +0.018 C 
ATOM     10  C   UNL     1       9.500  -6.640  35.965  0.00  0.00    +0.113 C 
ATOM     11  C   UNL     1       9.951  -7.469  33.596  0.00  0.00    +0.130 C 
ATOM     12  C   UNL     1       7.168  -6.082  35.361  0.00  0.00    +0.117 C 
ATOM     13  C   UNL     1       7.557  -6.992  33.067  0.00  0.00    +0.027 A 
ATOM     14  C   UNL     1       6.427  -7.297  32.409  0.00  0.00    +0.022 A 
ATOM     15  C   UNL     1       8.628  -9.049  32.269  0.00  0.00    +0.259 A 
ATOM     16  C   UNL     1       7.736  -8.264  36.556  0.00  0.00    +0.247 C 
ATOM     17  C   UNL     1       7.331  -9.387  31.583  0.00  0.00    +0.047 A 
ATOM     18  C   UNL     1       6.314  -8.516  31.662  0.00  0.00    +0.015 A 
ENDROOT
BRANCH  16  19
ATOM     19  C   UNL     1       6.327  -8.670  36.492  0.00  0.00    +0.037 A 
ATOM     21  C   UNL     1       5.475  -8.388  37.556  0.00  0.00    +0.014 A 
ATOM     22  C   UNL     1       5.850  -9.337  35.366  0.00  0.00    +0.014 A 
ATOM     25  C   UNL     1       4.136  -8.773  37.494  0.00  0.00    +0.019 A 
ATOM     26  C   UNL     1       4.510  -9.723  35.304  0.00  0.00    +0.019 A 
ATOM     29  C   UNL     1       3.654  -9.441  36.368  0.00  0.00    +0.052 A 
BRANCH  29  31
ATOM      6  N   UNL     1       1.168 -10.161  36.255  0.00  0.00    -0.191 NA
ATOM     31  C   UNL     1       2.283  -9.838  36.306  0.00  0.00    +0.099 C 
ENDBRANCH  29  31
ENDBRANCH  16  19
BRANCH  17  20
ATOM     20  C   UNL     1       7.164 -10.654  30.850  0.00  0.00    -0.013 A 
ATOM     23  C   UNL     1       6.418 -11.691  31.411  0.00  0.00    +0.010 A 
ATOM     24  C   UNL     1       7.752 -10.818  29.596  0.00  0.00    +0.010 A 
ATOM     27  C   UNL     1       6.259 -12.891  30.717  0.00  0.00    +0.015 A 
ATOM     28  C   UNL     1       7.594 -12.019  28.903  0.00  0.00    +0.015 A 
ATOM     30  C   UNL     1       6.847 -13.054  29.464  0.00  0.00    +0.008 A 
BRANCH  30   1
ATOM      1  S   UNL     1       6.647 -14.588  28.579  0.00  0.00    -0.129 S 
ATOM     32  C   UNL     1       4.858 -14.865  28.720  0.00  0.00    +0.090 C 
ENDBRANCH  30   1
ENDBRANCH  17  20
TORSDOF 4
ENDMDL
MODEL 7
REMARK VINA RESULT:      -6.9      4.860     10.315
REMARK  Name = 11885207
REMARK  5 active torsions:
REMARK  status: ('A' for Active; 'I' for Inactive)
REMARK    1  A    between atoms: S_1  and  C_30
REMARK    2  A    between atoms: S_1  and  C_32
REMARK    3  A    between atoms: C_16  and  C_19
REMARK    4  A    between atoms: C_17  and  C_20
REMARK    5  A    between atoms: C_29  and  C_31
REMARK                            x       y       z     vdW  Elec       q    Type
REMARK                         _______ _______ _______ _____ _____    ______ ____
ROOT
ATOM      2  O   UNL     1      19.930   3.711  20.464  0.00  0.00    -0.267 OA
ATOM      3  O   UNL     1      22.410   3.506  24.920  0.00  0.00    -0.270 OA
ATOM      4  N   UNL     1      23.900   4.424  23.368  0.00  0.00    -0.297 N 
ATOM      5  N   UNL     1      22.060   4.594  20.806  0.00  0.00    -0.311 N 
ATOM      7  C   UNL     1      24.106   3.118  21.261  0.00  0.00    +0.027 C 
ATOM      8  C   UNL     1      24.348   5.569  21.211  0.00  0.00    +0.054 C 
ATOM      9  C   UNL     1      24.896   4.264  20.635  0.00  0.00    +0.018 C 
ATOM     10  C   UNL     1      24.267   3.129  22.793  0.00  0.00    +0.113 C 
ATOM     11  C   UNL     1      22.638   3.241  20.834  0.00  0.00    +0.130 C 
ATOM     12  C   UNL     1      24.550   5.585  22.741  0.00  0.00    +0.117 C 
ATOM     13  C   UNL     1      22.872   5.727  20.894  0.00  0.00    +0.027 A 
ATOM     14  C   UNL     1      22.341   6.951  20.742  0.00  0.00    +0.022 A 
ATOM     15  C   UNL     1      20.674   4.686  20.581  0.00  0.00    +0.259 A 
ATOM     16  C   UNL     1      22.955   4.475  24.395  0.00  0.00    +0.247 C 
ATOM     17  C   UNL     1      20.100   6.073  20.463  0.00  0.00    +0.047 A 
ATOM     18  C   UNL     1      20.933   7.122  20.530  0.00  0.00    +0.015 A 
ENDROOT
BRANCH  16  19
ATOM     19  C   UNL     1      22.543   5.794  24.888  0.00  0.00    +0.037 A 
ATOM     21  C   UNL     1      21.488   6.465  24.274  0.00  0.00    +0.014 A 
ATOM     22  C   UNL     1      23.210   6.369  25.967  0.00  0.00    +0.014 A 
ATOM     25  C   UNL     1      21.097   7.719  24.744  0.00  0.00    +0.019 A 
ATOM     26  C   UNL     1      22.818   7.623  26.437  0.00  0.00    +0.019 A 
ATOM     29  C   UNL     1      21.762   8.297  25.826  0.00  0.00    +0.052 A 
BRANCH  29  31
ATOM      6  N   UNL     1      21.037  10.628  26.695  0.00  0.00    -0.191 NA
ATOM     31  C   UNL     1      21.362   9.582  26.305  0.00  0.00    +0.099 C 
ENDBRANCH  29  31
ENDBRANCH  16  19
BRANCH  17  20
ATOM     20  C   UNL     1      18.653   6.287  20.296  0.00  0.00    -0.013 A 
ATOM     23  C   UNL     1      18.008   5.828  19.147  0.00  0.00    +0.010 A 
ATOM     24  C   UNL     1      17.926   6.950  21.284  0.00  0.00    +0.010 A 
ATOM     27  C   UNL     1      16.637   6.031  18.988  0.00  0.00    +0.015 A 
ATOM     28  C   UNL     1      16.555   7.154  21.125  0.00  0.00    +0.015 A 
ATOM     30  C   UNL     1      15.911   6.694  19.977  0.00  0.00    +0.008 A 
BRANCH  30   1
ATOM      1  S   UNL     1      14.160   6.955  19.773  0.00  0.00    -0.129 S 
ATOM     32  C   UNL     1      14.087   7.685  18.112  0.00  0.00    +0.090 C 
ENDBRANCH  30   1
ENDBRANCH  17  20
TORSDOF 4
ENDMDL
MODEL 8
REMARK VINA RESULT:      -6.9     17.338     20.821
REMARK  Name = 11885207
REMARK  5 active torsions:
REMARK  status: ('A' for Active; 'I' for Inactive)
REMARK    1  A    between atoms: S_1  and  C_30
REMARK    2  A    between atoms: S_1  and  C_32
REMARK    3  A    between atoms: C_16  and  C_19
REMARK    4  A    between atoms: C_17  and  C_20
REMARK    5  A    between atoms: C_29  and  C_31
REMARK                            x       y       z     vdW  Elec       q    Type
REMARK                         _______ _______ _______ _____ _____    ______ ____
ROOT
ATOM      2  O   UNL     1      12.243   7.481   3.111  0.00  0.00    -0.267 OA
ATOM      3  O   UNL     1      14.066   6.941  -1.627  0.00  0.00    -0.270 OA
ATOM      4  N   UNL     1      13.988   4.798  -0.692  0.00  0.00    -0.297 N 
ATOM      5  N   UNL     1      12.673   5.419   2.112  0.00  0.00    -0.311 N 
ATOM      7  C   UNL     1      15.046   4.628   1.552  0.00  0.00    +0.027 C 
ATOM      8  C   UNL     1      13.115   3.203   0.998  0.00  0.00    +0.054 C 
ATOM      9  C   UNL     1      14.466   3.226   1.713  0.00  0.00    +0.018 C 
ATOM     10  C   UNL     1      15.232   4.963   0.061  0.00  0.00    +0.113 C 
ATOM     11  C   UNL     1      14.122   5.628   2.258  0.00  0.00    +0.130 C 
ATOM     12  C   UNL     1      13.319   3.502  -0.502  0.00  0.00    +0.117 C 
ATOM     13  C   UNL     1      12.165   4.225   1.593  0.00  0.00    +0.027 A 
ATOM     14  C   UNL     1      10.841   4.004   1.583  0.00  0.00    +0.022 A 
ATOM     15  C   UNL     1      11.834   6.430   2.615  0.00  0.00    +0.259 A 
ATOM     16  C   UNL     1      13.509   5.857  -1.467  0.00  0.00    +0.247 C 
ATOM     17  C   UNL     1      10.352   6.173   2.545  0.00  0.00    +0.047 A 
ATOM     18  C   UNL     1       9.924   4.998   2.062  0.00  0.00    +0.015 A 
ENDROOT
BRANCH  16  19
ATOM     19  C   UNL     1      12.214   5.690  -2.137  0.00  0.00    +0.037 A 
ATOM     21  C   UNL     1      11.040   6.033  -1.471  0.00  0.00    +0.014 A 
ATOM     22  C   UNL     1      12.166   5.189  -3.435  0.00  0.00    +0.014 A 
ATOM     25  C   UNL     1       9.809   5.875  -2.109  0.00  0.00    +0.019 A 
ATOM     26  C   UNL     1      10.936   5.032  -4.074  0.00  0.00    +0.019 A 
ATOM     29  C   UNL     1       9.758   5.374  -3.410  0.00  0.00    +0.052 A 
BRANCH  29  31
ATOM      6  N   UNL     1       7.472   5.077  -4.593  0.00  0.00    -0.191 NA
ATOM     31  C   UNL     1       8.497   5.210  -4.063  0.00  0.00    +0.099 C 
ENDBRANCH  29  31
ENDBRANCH  16  19
BRANCH  17  20
ATOM     20  C   UNL     1       9.381   7.191   2.980  0.00  0.00    -0.013 A 
ATOM     23  C   UNL     1       8.882   7.169   4.283  0.00  0.00    +0.010 A 
ATOM     24  C   UNL     1       8.957   8.178   2.090  0.00  0.00    +0.010 A 
ATOM     27  C   UNL     1       7.962   8.133   4.696  0.00  0.00    +0.015 A 
ATOM     28  C   UNL     1       8.036   9.142   2.502  0.00  0.00    +0.015 A 
ATOM     30  C   UNL     1       7.540   9.119   3.805  0.00  0.00    +0.008 A 
BRANCH  30   1
ATOM      1  S   UNL     1       6.363  10.349   4.330  0.00  0.00    -0.129 S 
ATOM     32  C   UNL     1       5.170  10.329   2.961  0.00  0.00    +0.090 C 
ENDBRANCH  30   1
ENDBRANCH  17  20
TORSDOF 4
ENDMDL
MODEL 9
REMARK VINA RESULT:      -6.8     28.197     30.521
REMARK  Name = 11885207
REMARK  5 active torsions:
REMARK  status: ('A' for Active; 'I' for Inactive)
REMARK    1  A    between atoms: S_1  and  C_30
REMARK    2  A    between atoms: S_1  and  C_32
REMARK    3  A    between atoms: C_16  and  C_19
REMARK    4  A    between atoms: C_17  and  C_20
REMARK    5  A    between atoms: C_29  and  C_31
REMARK                            x       y       z     vdW  Elec       q    Type
REMARK                         _______ _______ _______ _____ _____    ______ ____
ROOT
ATOM      2  O   UNL     1      -6.134 -12.936  15.311  0.00  0.00    -0.267 OA
ATOM      3  O   UNL     1     -11.149 -12.703  16.237  0.00  0.00    -0.270 OA
ATOM      4  N   UNL     1     -10.075 -11.967  18.180  0.00  0.00    -0.297 N 
ATOM      5  N   UNL     1      -7.055 -12.044  17.259  0.00  0.00    -0.311 N 
ATOM      7  C   UNL     1      -8.280 -13.486  18.988  0.00  0.00    +0.027 C 
ATOM      8  C   UNL     1      -8.077 -11.057  19.339  0.00  0.00    +0.054 C 
ATOM      9  C   UNL     1      -7.834 -12.420  19.984  0.00  0.00    +0.018 C 
ATOM     10  C   UNL     1      -9.774 -13.318  18.655  0.00  0.00    +0.113 C 
ATOM     11  C   UNL     1      -7.396 -13.393  17.738  0.00  0.00    +0.130 C 
ATOM     12  C   UNL     1      -9.582 -10.884  19.045  0.00  0.00    +0.117 C 
ATOM     13  C   UNL     1      -7.291 -10.916  18.048  0.00  0.00    +0.027 A 
ATOM     14  C   UNL     1      -6.862  -9.710  17.646  0.00  0.00    +0.022 A 
ATOM     15  C   UNL     1      -6.391 -11.962  16.021  0.00  0.00    +0.259 A 
ATOM     16  C   UNL     1     -10.736 -11.800  16.961  0.00  0.00    +0.247 C 
ATOM     17  C   UNL     1      -5.964 -10.589  15.574  0.00  0.00    +0.047 A 
ATOM     18  C   UNL     1      -6.194  -9.547  16.387  0.00  0.00    +0.015 A 
ENDROOT
BRANCH  16  19
ATOM     19  C   UNL     1     -10.944 -10.432  16.471  0.00  0.00    +0.037 A 
ATOM     21  C   UNL     1      -9.982  -9.833  15.661  0.00  0.00    +0.014 A 
ATOM     22  C   UNL     1     -12.101  -9.740  16.819  0.00  0.00    +0.014 A 
ATOM     25  C   UNL     1     -10.181  -8.533  15.195  0.00  0.00    +0.019 A 
ATOM     26  C   UNL     1     -12.299  -8.440  16.353  0.00  0.00    +0.019 A 
ATOM     29  C   UNL     1     -11.339  -7.837  15.541  0.00  0.00    +0.052 A 
BRANCH  29  31
ATOM      6  N   UNL     1     -11.705  -5.422  14.679  0.00  0.00    -0.191 NA
ATOM     31  C   UNL     1     -11.541  -6.505  15.066  0.00  0.00    +0.099 C 
ENDBRANCH  29  31
ENDBRANCH  16  19
BRANCH  17  20
ATOM     20  C   UNL     1      -5.323 -10.378  14.266  0.00  0.00    -0.013 A 
ATOM     23  C   UNL     1      -6.068  -9.885  13.194  0.00  0.00    +0.010 A 
ATOM     24  C   UNL     1      -3.970 -10.672  14.095  0.00  0.00    +0.010 A 
ATOM     27  C   UNL     1      -5.461  -9.685  11.954  0.00  0.00    +0.015 A 
ATOM     28  C   UNL     1      -3.362 -10.473  12.855  0.00  0.00    +0.015 A 
ATOM     30  C   UNL     1      -4.108  -9.979  11.786  0.00  0.00    +0.008 A 
BRANCH  30   1
ATOM      1  S   UNL     1      -3.332  -9.727  10.201  0.00  0.00    -0.129 S 
ATOM     32  C   UNL     1      -4.611  -8.797   9.308  0.00  0.00    +0.090 C 
ENDBRANCH  30   1
ENDBRANCH  17  20
TORSDOF 4
ENDMDL
MODEL 10
REMARK VINA RESULT:      -6.8     11.656     15.436
REMARK  Name = 11885207
REMARK  5 active torsions:
REMARK  status: ('A' for Active; 'I' for Inactive)
REMARK    1  A    between atoms: S_1  and  C_30
REMARK    2  A    between atoms: S_1  and  C_32
REMARK    3  A    between atoms: C_16  and  C_19
REMARK    4  A    between atoms: C_17  and  C_20
REMARK    5  A    between atoms: C_29  and  C_31
REMARK                            x       y       z     vdW  Elec       q    Type
REMARK                         _______ _______ _______ _____ _____    ______ ____
ROOT
ATOM      2  O   UNL     1       9.419  12.074   5.715  0.00  0.00    -0.267 OA
ATOM      3  O   UNL     1       7.918   7.394   4.338  0.00  0.00    -0.270 OA
ATOM      4  N   UNL     1      10.228   7.485   3.984  0.00  0.00    -0.297 N 
ATOM      5  N   UNL     1      10.884  10.375   5.077  0.00  0.00    -0.311 N 
ATOM      7  C   UNL     1      10.980   9.467   2.682  0.00  0.00    +0.027 C 
ATOM      8  C   UNL     1      12.447   8.513   4.416  0.00  0.00    +0.054 C 
ATOM      9  C   UNL     1      12.429   9.131   3.018  0.00  0.00    +0.018 C 
ATOM     10  C   UNL     1      10.114   8.194   2.708  0.00  0.00    +0.113 C 
ATOM     11  C   UNL     1      10.478  10.527   3.671  0.00  0.00    +0.130 C 
ATOM     12  C   UNL     1      11.608   7.218   4.420  0.00  0.00    +0.117 C 
ATOM     13  C   UNL     1      11.890   9.479   5.445  0.00  0.00    +0.027 A 
ATOM     14  C   UNL     1      12.332   9.445   6.712  0.00  0.00    +0.022 A 
ATOM     15  C   UNL     1      10.285  11.247   6.006  0.00  0.00    +0.259 A 
ATOM     16  C   UNL     1       9.072   7.171   4.700  0.00  0.00    +0.247 C 
ATOM     17  C   UNL     1      10.767  11.151   7.429  0.00  0.00    +0.047 A 
ATOM     18  C   UNL     1      11.755  10.290   7.718  0.00  0.00    +0.015 A 
ENDROOT
BRANCH  16  19
ATOM     19  C   UNL     1       9.226   6.541   6.017  0.00  0.00    +0.037 A 
ATOM     21  C   UNL     1       8.951   7.270   7.170  0.00  0.00    +0.014 A 
ATOM     22  C   UNL     1       9.647   5.216   6.105  0.00  0.00    +0.014 A 
ATOM     25  C   UNL     1       9.097   6.670   8.422  0.00  0.00    +0.019 A 
ATOM     26  C   UNL     1       9.793   4.616   7.356  0.00  0.00    +0.019 A 
ATOM     29  C   UNL     1       9.518   5.343   8.514  0.00  0.00    +0.052 A 
BRANCH  29  31
ATOM      6  N   UNL     1       9.793   4.232  10.838  0.00  0.00    -0.191 NA
ATOM     31  C   UNL     1       9.670   4.730   9.795  0.00  0.00    +0.099 C 
ENDBRANCH  29  31
ENDBRANCH  16  19
BRANCH  17  20
ATOM     20  C   UNL     1      10.163  11.967   8.495  0.00  0.00    -0.013 A 
ATOM     23  C   UNL     1      10.583  13.283   8.690  0.00  0.00    +0.010 A 
ATOM     24  C   UNL     1       9.172  11.425   9.313  0.00  0.00    +0.010 A 
ATOM     27  C   UNL     1      10.010  14.057   9.700  0.00  0.00    +0.015 A 
ATOM     28  C   UNL     1       8.600  12.198  10.324  0.00  0.00    +0.015 A 
ATOM     30  C   UNL     1       9.019  13.513  10.516  0.00  0.00    +0.008 A 
BRANCH  30   1
ATOM      1  S   UNL     1       8.290  14.500  11.808  0.00  0.00    -0.129 S 
ATOM     32  C   UNL     1       9.043  13.779  13.295  0.00  0.00    +0.090 C 
ENDBRANCH  30   1
ENDBRANCH  17  20
TORSDOF 4
ENDMDL
